MODEL 1
REMARK VINA RESULT:      -8.2      0.000      0.000
REMARK  11 active torsions:
REMARK  status: ('A' for Active; 'I' for Inactive)
REMARK    1  A    between atoms: O_1  and  C_2 
REMARK    2  A    between atoms: C_2  and  C_3 
REMARK    3  A    between atoms: C_3  and  O_4 
REMARK    4  A    between atoms: O_4  and  C_5 
REMARK    5  A    between atoms: C_7  and  C_25 
REMARK    6  A    between atoms: C_10  and  N_11 
REMARK       I    between atoms: N_11  and  C_12 
REMARK       I    between atoms: C_12  and  N_14 
REMARK    7  A    between atoms: N_14  and  C_15 
REMARK    8  A    between atoms: N_14  and  C_18 
REMARK    9  A    between atoms: C_15  and  C_16 
REMARK   10  A    between atoms: C_16  and  O_17 
REMARK   11  A    between atoms: C_18  and  C_19 
ROOT
HETATM    1  C   UNL     1       7.214  25.458  54.939  1.00  0.00     0.096 A 
HETATM    2  C   UNL     1       7.557  24.136  54.630  1.00  0.00     0.051 A 
HETATM    3  C   UNL     1       8.049  23.272  55.620  1.00  0.00    -0.020 A 
HETATM    4  C   UNL     1       8.230  23.754  56.921  1.00  0.00     0.015 A 
HETATM    5  C   UNL     1       7.882  25.068  57.242  1.00  0.00     0.033 A 
HETATM    6  C   UNL     1       7.319  25.900  56.269  1.00  0.00     0.069 A 
ENDROOT
BRANCH   6   7
HETATM    7  N   UNL     1       6.874  27.179  56.684  1.00  0.00    -0.306 N 
HETATM    8  C   UNL     1       7.756  28.070  57.276  1.00  0.00     0.323 C 
HETATM    9  O   UNL     1       8.952  27.844  57.451  1.00  0.00    -0.247 OA
HETATM   10  N   UNL     1       7.197  29.314  57.565  1.00  0.00    -0.328 N 
HETATM   11  H   UNL     1       6.244  27.647  56.040  1.00  0.00     0.171 HD
BRANCH  10  12
HETATM   12  C   UNL     1       5.752  29.581  57.589  1.00  0.00     0.153 C 
BRANCH  12  13
HETATM   13  C   UNL     1       5.304  30.477  56.433  1.00  0.00     0.184 C 
BRANCH  13  14
HETATM   14  O   UNL     1       5.806  29.985  55.189  1.00  0.00    -0.399 OA
HETATM   15  H   UNL     1       6.130  30.769  54.704  1.00  0.00     0.209 HD
ENDBRANCH  13  14
ENDBRANCH  12  13
ENDBRANCH  10  12
BRANCH  10  16
HETATM   16  C   UNL     1       8.104  30.427  57.839  1.00  0.00     0.166 C 
BRANCH  16  17
HETATM   17  C   UNL     1       8.119  30.916  59.269  1.00  0.00    -0.040 A 
HETATM   18  C   UNL     1       9.015  30.411  60.220  1.00  0.00     0.009 A 
HETATM   19  C   UNL     1       9.050  30.936  61.514  1.00  0.00     0.001 A 
HETATM   20  C   UNL     1       8.203  31.986  61.867  1.00  0.00     0.000 A 
HETATM   21  C   UNL     1       7.322  32.513  60.926  1.00  0.00     0.001 A 
HETATM   22  C   UNL     1       7.282  31.984  59.635  1.00  0.00     0.009 A 
ENDBRANCH  16  17
ENDBRANCH  10  16
ENDBRANCH   6   7
BRANCH   1  23
HETATM   23  O   UNL     1       6.804  26.379  54.007  1.00  0.00    -0.347 OA
BRANCH  23  24
HETATM   24  C   UNL     1       5.620  26.067  53.276  1.00  0.00     0.201 C 
BRANCH  24  25
HETATM   25  C   UNL     1       4.634  27.218  53.437  1.00  0.00     0.190 C 
BRANCH  25  26
HETATM   26  O   UNL     1       4.346  27.430  54.815  1.00  0.00    -0.399 OA
HETATM   27  H   UNL     1       3.378  27.397  54.908  1.00  0.00     0.209 HD
ENDBRANCH  25  26
ENDBRANCH  24  25
ENDBRANCH  23  24
ENDBRANCH   1  23
BRANCH   3  28
HETATM   28  C   UNL     1       8.348  21.885  55.317  1.00  0.00     0.010 A 
HETATM   29  C   UNL     1       8.383  21.200  54.081  1.00  0.00     0.152 A 
HETATM   30  N   UNL     1       8.701  19.910  54.214  1.00  0.00    -0.187 NA
HETATM   31  N   UNL     1       8.879  19.767  55.538  1.00  0.00    -0.289 N 
HETATM   32  H   UNL     1       9.137  18.852  55.892  1.00  0.00     0.188 HD
HETATM   33  C   UNL     1       8.679  20.919  56.242  1.00  0.00     0.123 A 
ENDBRANCH   3  28
TORSDOF 11
ENDMDL
MODEL 2
REMARK VINA RESULT:      -8.0      2.270      8.306
REMARK  11 active torsions:
REMARK  status: ('A' for Active; 'I' for Inactive)
REMARK    1  A    between atoms: O_1  and  C_2 
REMARK    2  A    between atoms: C_2  and  C_3 
REMARK    3  A    between atoms: C_3  and  O_4 
REMARK    4  A    between atoms: O_4  and  C_5 
REMARK    5  A    between atoms: C_7  and  C_25 
REMARK    6  A    between atoms: C_10  and  N_11 
REMARK       I    between atoms: N_11  and  C_12 
REMARK       I    between atoms: C_12  and  N_14 
REMARK    7  A    between atoms: N_14  and  C_15 
REMARK    8  A    between atoms: N_14  and  C_18 
REMARK    9  A    between atoms: C_15  and  C_16 
REMARK   10  A    between atoms: C_16  and  O_17 
REMARK   11  A    between atoms: C_18  and  C_19 
ROOT
HETATM    1  C   UNL     1       5.639  29.034  56.569  1.00  0.00     0.096 A 
HETATM    2  C   UNL     1       6.107  30.076  57.378  1.00  0.00     0.051 A 
HETATM    3  C   UNL     1       7.283  29.929  58.130  1.00  0.00    -0.020 A 
HETATM    4  C   UNL     1       7.970  28.710  58.093  1.00  0.00     0.015 A 
HETATM    5  C   UNL     1       7.517  27.668  57.283  1.00  0.00     0.033 A 
HETATM    6  C   UNL     1       6.389  27.848  56.476  1.00  0.00     0.069 A 
ENDROOT
BRANCH   6   7
HETATM    7  N   UNL     1       6.049  26.800  55.586  1.00  0.00    -0.306 N 
HETATM    8  C   UNL     1       6.979  26.327  54.673  1.00  0.00     0.323 C 
HETATM    9  O   UNL     1       8.135  26.739  54.589  1.00  0.00    -0.247 OA
HETATM   10  N   UNL     1       6.530  25.248  53.913  1.00  0.00    -0.328 N 
HETATM   11  H   UNL     1       5.506  26.045  55.994  1.00  0.00     0.171 HD
BRANCH  10  12
HETATM   12  C   UNL     1       5.119  24.852  53.801  1.00  0.00     0.153 C 
BRANCH  12  13
HETATM   13  C   UNL     1       4.664  24.717  52.347  1.00  0.00     0.184 C 
BRANCH  13  14
HETATM   14  O   UNL     1       4.597  25.998  51.718  1.00  0.00    -0.399 OA
HETATM   15  H   UNL     1       4.058  25.872  50.913  1.00  0.00     0.209 HD
ENDBRANCH  13  14
ENDBRANCH  12  13
ENDBRANCH  10  12
BRANCH  10  16
HETATM   16  C   UNL     1       7.526  24.449  53.200  1.00  0.00     0.166 C 
BRANCH  16  17
HETATM   17  C   UNL     1       7.752  23.058  53.744  1.00  0.00    -0.040 A 
HETATM   18  C   UNL     1       7.735  22.783  55.118  1.00  0.00     0.009 A 
HETATM   19  C   UNL     1       7.877  21.474  55.583  1.00  0.00     0.001 A 
HETATM   20  C   UNL     1       8.017  20.422  54.681  1.00  0.00     0.000 A 
HETATM   21  C   UNL     1       8.015  20.676  53.312  1.00  0.00     0.001 A 
HETATM   22  C   UNL     1       7.880  21.985  52.846  1.00  0.00     0.009 A 
ENDBRANCH  16  17
ENDBRANCH  10  16
ENDBRANCH   6   7
BRANCH   1  23
HETATM   23  O   UNL     1       4.457  29.079  55.872  1.00  0.00    -0.347 OA
BRANCH  23  24
HETATM   24  C   UNL     1       4.406  29.964  54.754  1.00  0.00     0.201 C 
BRANCH  24  25
HETATM   25  C   UNL     1       4.297  29.132  53.482  1.00  0.00     0.190 C 
BRANCH  25  26
HETATM   26  O   UNL     1       3.663  27.889  53.760  1.00  0.00    -0.399 OA
HETATM   27  H   UNL     1       3.184  27.632  52.953  1.00  0.00     0.209 HD
ENDBRANCH  25  26
ENDBRANCH  24  25
ENDBRANCH  23  24
ENDBRANCH   1  23
BRANCH   3  28
HETATM   28  C   UNL     1       7.803  31.027  58.922  1.00  0.00     0.010 A 
HETATM   29  C   UNL     1       9.092  31.607  58.957  1.00  0.00     0.152 A 
HETATM   30  N   UNL     1       9.182  32.611  59.833  1.00  0.00    -0.187 NA
HETATM   31  N   UNL     1       7.947  32.682  60.356  1.00  0.00    -0.289 N 
HETATM   32  H   UNL     1       7.764  33.389  61.060  1.00  0.00     0.188 HD
HETATM   33  C   UNL     1       7.085  31.755  59.846  1.00  0.00     0.123 A 
ENDBRANCH   3  28
TORSDOF 11
ENDMDL
MODEL 3
REMARK VINA RESULT:      -7.8      2.494      8.842
REMARK  11 active torsions:
REMARK  status: ('A' for Active; 'I' for Inactive)
REMARK    1  A    between atoms: O_1  and  C_2 
REMARK    2  A    between atoms: C_2  and  C_3 
REMARK    3  A    between atoms: C_3  and  O_4 
REMARK    4  A    between atoms: O_4  and  C_5 
REMARK    5  A    between atoms: C_7  and  C_25 
REMARK    6  A    between atoms: C_10  and  N_11 
REMARK       I    between atoms: N_11  and  C_12 
REMARK       I    between atoms: C_12  and  N_14 
REMARK    7  A    between atoms: N_14  and  C_15 
REMARK    8  A    between atoms: N_14  and  C_18 
REMARK    9  A    between atoms: C_15  and  C_16 
REMARK   10  A    between atoms: C_16  and  O_17 
REMARK   11  A    between atoms: C_18  and  C_19 
ROOT
HETATM    1  C   UNL     1       8.007  29.672  57.353  1.00  0.00     0.096 A 
HETATM    2  C   UNL     1       7.910  30.519  58.464  1.00  0.00     0.051 A 
HETATM    3  C   UNL     1       6.759  31.292  58.679  1.00  0.00    -0.020 A 
HETATM    4  C   UNL     1       5.715  31.237  57.749  1.00  0.00     0.015 A 
HETATM    5  C   UNL     1       5.797  30.389  56.644  1.00  0.00     0.033 A 
HETATM    6  C   UNL     1       6.913  29.563  56.476  1.00  0.00     0.069 A 
ENDROOT
BRANCH   6   7
HETATM    7  N   UNL     1       6.886  28.638  55.405  1.00  0.00    -0.306 N 
HETATM    8  C   UNL     1       6.678  27.289  55.648  1.00  0.00     0.323 C 
HETATM    9  O   UNL     1       6.478  26.813  56.764  1.00  0.00    -0.247 OA
HETATM   10  N   UNL     1       6.604  26.509  54.495  1.00  0.00    -0.328 N 
HETATM   11  H   UNL     1       6.388  28.951  54.577  1.00  0.00     0.171 HD
BRANCH  10  12
HETATM   12  C   UNL     1       7.045  26.959  53.168  1.00  0.00     0.153 C 
BRANCH  12  13
HETATM   13  C   UNL     1       5.948  26.822  52.111  1.00  0.00     0.184 C 
BRANCH  13  14
HETATM   14  O   UNL     1       6.358  25.931  51.071  1.00  0.00    -0.399 OA
HETATM   15  H   UNL     1       7.188  26.302  50.715  1.00  0.00     0.209 HD
ENDBRANCH  13  14
ENDBRANCH  12  13
ENDBRANCH  10  12
BRANCH  10  16
HETATM   16  C   UNL     1       6.030  25.169  54.610  1.00  0.00     0.166 C 
BRANCH  16  17
HETATM   17  C   UNL     1       7.011  24.029  54.464  1.00  0.00    -0.040 A 
HETATM   18  C   UNL     1       7.166  23.329  53.261  1.00  0.00     0.009 A 
HETATM   19  C   UNL     1       8.133  22.327  53.140  1.00  0.00     0.001 A 
HETATM   20  C   UNL     1       8.968  22.027  54.214  1.00  0.00     0.000 A 
HETATM   21  C   UNL     1       8.840  22.729  55.410  1.00  0.00     0.001 A 
HETATM   22  C   UNL     1       7.870  23.725  55.534  1.00  0.00     0.009 A 
ENDBRANCH  16  17
ENDBRANCH  10  16
ENDBRANCH   6   7
BRANCH   1  23
HETATM   23  O   UNL     1       9.133  28.951  57.038  1.00  0.00    -0.347 OA
BRANCH  23  24
HETATM   24  C   UNL     1      10.183  29.656  56.380  1.00  0.00     0.201 C 
BRANCH  24  25
HETATM   25  C   UNL     1      11.158  30.167  57.434  1.00  0.00     0.190 C 
BRANCH  25  26
HETATM   26  O   UNL     1      12.482  29.747  57.124  1.00  0.00    -0.399 OA
HETATM   27  H   UNL     1      12.713  30.155  56.272  1.00  0.00     0.209 HD
ENDBRANCH  25  26
ENDBRANCH  24  25
ENDBRANCH  23  24
ENDBRANCH   1  23
BRANCH   3  28
HETATM   28  C   UNL     1       6.630  32.124  59.860  1.00  0.00     0.010 A 
HETATM   29  C   UNL     1       5.508  32.799  60.394  1.00  0.00     0.152 A 
HETATM   30  N   UNL     1       5.795  33.476  61.509  1.00  0.00    -0.187 NA
HETATM   31  N   UNL     1       7.102  33.229  61.697  1.00  0.00    -0.289 N 
HETATM   32  H   UNL     1       7.558  33.643  62.503  1.00  0.00     0.188 HD
HETATM   33  C   UNL     1       7.649  32.427  60.738  1.00  0.00     0.123 A 
ENDBRANCH   3  28
TORSDOF 11
ENDMDL
MODEL 4
REMARK VINA RESULT:      -7.4      4.216      8.528
REMARK  11 active torsions:
REMARK  status: ('A' for Active; 'I' for Inactive)
REMARK    1  A    between atoms: O_1  and  C_2 
REMARK    2  A    between atoms: C_2  and  C_3 
REMARK    3  A    between atoms: C_3  and  O_4 
REMARK    4  A    between atoms: O_4  and  C_5 
REMARK    5  A    between atoms: C_7  and  C_25 
REMARK    6  A    between atoms: C_10  and  N_11 
REMARK       I    between atoms: N_11  and  C_12 
REMARK       I    between atoms: C_12  and  N_14 
REMARK    7  A    between atoms: N_14  and  C_15 
REMARK    8  A    between atoms: N_14  and  C_18 
REMARK    9  A    between atoms: C_15  and  C_16 
REMARK   10  A    between atoms: C_16  and  O_17 
REMARK   11  A    between atoms: C_18  and  C_19 
ROOT
HETATM    1  C   UNL     1       4.393  28.547  51.452  1.00  0.00     0.096 A 
HETATM    2  C   UNL     1       3.546  28.695  50.346  1.00  0.00     0.051 A 
HETATM    3  C   UNL     1       3.506  27.720  49.337  1.00  0.00    -0.020 A 
HETATM    4  C   UNL     1       4.351  26.608  49.427  1.00  0.00     0.015 A 
HETATM    5  C   UNL     1       5.191  26.447  50.530  1.00  0.00     0.033 A 
HETATM    6  C   UNL     1       5.170  27.381  51.570  1.00  0.00     0.069 A 
ENDROOT
BRANCH   6   7
HETATM    7  N   UNL     1       5.952  27.101  52.716  1.00  0.00    -0.306 N 
HETATM    8  C   UNL     1       5.580  26.090  53.589  1.00  0.00     0.323 C 
HETATM    9  O   UNL     1       4.600  25.366  53.428  1.00  0.00    -0.247 OA
HETATM   10  N   UNL     1       6.482  25.880  54.631  1.00  0.00    -0.328 N 
HETATM   11  H   UNL     1       6.957  27.117  52.567  1.00  0.00     0.171 HD
BRANCH  10  12
HETATM   12  C   UNL     1       7.538  26.829  55.009  1.00  0.00     0.153 C 
BRANCH  12  13
HETATM   13  C   UNL     1       7.419  27.285  56.465  1.00  0.00     0.184 C 
BRANCH  13  14
HETATM   14  O   UNL     1       8.504  26.776  57.243  1.00  0.00    -0.399 OA
HETATM   15  H   UNL     1       8.126  26.056  57.787  1.00  0.00     0.209 HD
ENDBRANCH  13  14
ENDBRANCH  12  13
ENDBRANCH  10  12
BRANCH  10  16
HETATM   16  C   UNL     1       6.385  24.627  55.379  1.00  0.00     0.166 C 
BRANCH  16  17
HETATM   17  C   UNL     1       7.336  23.536  54.944  1.00  0.00    -0.040 A 
HETATM   18  C   UNL     1       8.157  22.858  55.854  1.00  0.00     0.009 A 
HETATM   19  C   UNL     1       8.972  21.805  55.429  1.00  0.00     0.001 A 
HETATM   20  C   UNL     1       8.960  21.406  54.094  1.00  0.00     0.000 A 
HETATM   21  C   UNL     1       8.133  22.057  53.182  1.00  0.00     0.001 A 
HETATM   22  C   UNL     1       7.324  23.113  53.605  1.00  0.00     0.009 A 
ENDBRANCH  16  17
ENDBRANCH  10  16
ENDBRANCH   6   7
BRANCH   1  23
HETATM   23  O   UNL     1       4.542  29.497  52.433  1.00  0.00    -0.347 OA
BRANCH  23  24
HETATM   24  C   UNL     1       3.524  29.552  53.431  1.00  0.00     0.201 C 
BRANCH  24  25
HETATM   25  C   UNL     1       4.183  29.454  54.801  1.00  0.00     0.190 C 
BRANCH  25  26
HETATM   26  O   UNL     1       5.586  29.665  54.688  1.00  0.00    -0.399 OA
HETATM   27  H   UNL     1       5.848  29.350  53.806  1.00  0.00     0.209 HD
ENDBRANCH  25  26
ENDBRANCH  24  25
ENDBRANCH  23  24
ENDBRANCH   1  23
BRANCH   3  28
HETATM   28  C   UNL     1       2.588  27.841  48.221  1.00  0.00     0.010 A 
HETATM   29  C   UNL     1       1.486  27.039  47.845  1.00  0.00     0.152 A 
HETATM   30  N   UNL     1       0.882  27.479  46.738  1.00  0.00    -0.187 NA
HETATM   31  N   UNL     1       1.593  28.569  46.406  1.00  0.00    -0.289 N 
HETATM   32  H   UNL     1       1.317  29.089  45.580  1.00  0.00     0.188 HD
HETATM   33  C   UNL     1       2.625  28.828  47.260  1.00  0.00     0.123 A 
ENDBRANCH   3  28
TORSDOF 11
ENDMDL
MODEL 5
REMARK VINA RESULT:      -7.3      1.715      3.471
REMARK  11 active torsions:
REMARK  status: ('A' for Active; 'I' for Inactive)
REMARK    1  A    between atoms: O_1  and  C_2 
REMARK    2  A    between atoms: C_2  and  C_3 
REMARK    3  A    between atoms: C_3  and  O_4 
REMARK    4  A    between atoms: O_4  and  C_5 
REMARK    5  A    between atoms: C_7  and  C_25 
REMARK    6  A    between atoms: C_10  and  N_11 
REMARK       I    between atoms: N_11  and  C_12 
REMARK       I    between atoms: C_12  and  N_14 
REMARK    7  A    between atoms: N_14  and  C_15 
REMARK    8  A    between atoms: N_14  and  C_18 
REMARK    9  A    between atoms: C_15  and  C_16 
REMARK   10  A    between atoms: C_16  and  O_17 
REMARK   11  A    between atoms: C_18  and  C_19 
ROOT
HETATM    1  C   UNL     1       7.544  25.363  54.775  1.00  0.00     0.096 A 
HETATM    2  C   UNL     1       7.773  24.000  54.545  1.00  0.00     0.051 A 
HETATM    3  C   UNL     1       8.297  23.180  55.556  1.00  0.00    -0.020 A 
HETATM    4  C   UNL     1       8.627  23.745  56.793  1.00  0.00     0.015 A 
HETATM    5  C   UNL     1       8.394  25.100  57.035  1.00  0.00     0.033 A 
HETATM    6  C   UNL     1       7.799  25.895  56.051  1.00  0.00     0.069 A 
ENDROOT
BRANCH   6   7
HETATM    7  N   UNL     1       7.476  27.230  56.397  1.00  0.00    -0.306 N 
HETATM    8  C   UNL     1       6.152  27.619  56.532  1.00  0.00     0.323 C 
HETATM    9  O   UNL     1       5.193  26.860  56.399  1.00  0.00    -0.247 OA
HETATM   10  N   UNL     1       5.988  28.940  56.946  1.00  0.00    -0.328 N 
HETATM   11  H   UNL     1       8.063  27.644  57.115  1.00  0.00     0.171 HD
BRANCH  10  12
HETATM   12  C   UNL     1       7.053  29.951  56.911  1.00  0.00     0.153 C 
BRANCH  12  13
HETATM   13  C   UNL     1       7.568  30.306  58.308  1.00  0.00     0.184 C 
BRANCH  13  14
HETATM   14  O   UNL     1       8.121  29.155  58.949  1.00  0.00    -0.399 OA
HETATM   15  H   UNL     1       7.622  28.390  58.600  1.00  0.00     0.209 HD
ENDBRANCH  13  14
ENDBRANCH  12  13
ENDBRANCH  10  12
BRANCH  10  16
HETATM   16  C   UNL     1       4.681  29.337  57.469  1.00  0.00     0.166 C 
BRANCH  16  17
HETATM   17  C   UNL     1       4.044  30.526  56.788  1.00  0.00    -0.040 A 
HETATM   18  C   UNL     1       3.479  30.438  55.509  1.00  0.00     0.009 A 
HETATM   19  C   UNL     1       2.834  31.538  54.939  1.00  0.00     0.001 A 
HETATM   20  C   UNL     1       2.730  32.733  55.648  1.00  0.00     0.000 A 
HETATM   21  C   UNL     1       3.268  32.830  56.929  1.00  0.00     0.001 A 
HETATM   22  C   UNL     1       3.918  31.733  57.496  1.00  0.00     0.009 A 
ENDBRANCH  16  17
ENDBRANCH  10  16
ENDBRANCH   6   7
BRANCH   1  23
HETATM   23  O   UNL     1       7.110  26.238  53.810  1.00  0.00    -0.347 OA
BRANCH  23  24
HETATM   24  C   UNL     1       6.432  25.672  52.690  1.00  0.00     0.201 C 
BRANCH  24  25
HETATM   25  C   UNL     1       4.952  25.548  53.032  1.00  0.00     0.190 C 
BRANCH  25  26
HETATM   26  O   UNL     1       4.467  26.771  53.574  1.00  0.00    -0.399 OA
HETATM   27  H   UNL     1       4.240  27.342  52.819  1.00  0.00     0.209 HD
ENDBRANCH  25  26
ENDBRANCH  24  25
ENDBRANCH  23  24
ENDBRANCH   1  23
BRANCH   3  28
HETATM   28  C   UNL     1       8.479  21.757  55.341  1.00  0.00     0.010 A 
HETATM   29  C   UNL     1       8.574  21.012  54.144  1.00  0.00     0.152 A 
HETATM   30  N   UNL     1       8.737  19.705  54.361  1.00  0.00    -0.187 NA
HETATM   31  N   UNL     1       8.756  19.610  55.701  1.00  0.00    -0.289 N 
HETATM   32  H   UNL     1       8.875  18.692  56.116  1.00  0.00     0.188 HD
HETATM   33  C   UNL     1       8.604  20.810  56.334  1.00  0.00     0.123 A 
ENDBRANCH   3  28
TORSDOF 11
ENDMDL
MODEL 6
REMARK VINA RESULT:      -7.3      4.540      9.018
REMARK  11 active torsions:
REMARK  status: ('A' for Active; 'I' for Inactive)
REMARK    1  A    between atoms: O_1  and  C_2 
REMARK    2  A    between atoms: C_2  and  C_3 
REMARK    3  A    between atoms: C_3  and  O_4 
REMARK    4  A    between atoms: O_4  and  C_5 
REMARK    5  A    between atoms: C_7  and  C_25 
REMARK    6  A    between atoms: C_10  and  N_11 
REMARK       I    between atoms: N_11  and  C_12 
REMARK       I    between atoms: C_12  and  N_14 
REMARK    7  A    between atoms: N_14  and  C_15 
REMARK    8  A    between atoms: N_14  and  C_18 
REMARK    9  A    between atoms: C_15  and  C_16 
REMARK   10  A    between atoms: C_16  and  O_17 
REMARK   11  A    between atoms: C_18  and  C_19 
ROOT
HETATM    1  C   UNL     1       5.138  28.262  51.517  1.00  0.00     0.096 A 
HETATM    2  C   UNL     1       4.677  28.942  50.382  1.00  0.00     0.051 A 
HETATM    3  C   UNL     1       4.290  28.238  49.232  1.00  0.00    -0.020 A 
HETATM    4  C   UNL     1       4.403  26.843  49.212  1.00  0.00     0.015 A 
HETATM    5  C   UNL     1       4.853  26.156  50.341  1.00  0.00     0.033 A 
HETATM    6  C   UNL     1       5.163  26.856  51.511  1.00  0.00     0.069 A 
ENDROOT
BRANCH   6   7
HETATM    7  N   UNL     1       5.495  26.096  52.658  1.00  0.00    -0.306 N 
HETATM    8  C   UNL     1       6.652  25.332  52.682  1.00  0.00     0.323 C 
HETATM    9  O   UNL     1       7.465  25.282  51.761  1.00  0.00    -0.247 OA
HETATM   10  N   UNL     1       6.887  24.696  53.900  1.00  0.00    -0.328 N 
HETATM   11  H   UNL     1       5.334  26.561  53.546  1.00  0.00     0.171 HD
BRANCH  10  12
HETATM   12  C   UNL     1       5.873  24.531  54.951  1.00  0.00     0.153 C 
BRANCH  12  13
HETATM   13  C   UNL     1       6.352  25.044  56.310  1.00  0.00     0.184 C 
BRANCH  13  14
HETATM   14  O   UNL     1       6.450  26.469  56.306  1.00  0.00    -0.399 OA
HETATM   15  H   UNL     1       5.889  26.772  55.566  1.00  0.00     0.209 HD
ENDBRANCH  13  14
ENDBRANCH  12  13
ENDBRANCH  10  12
BRANCH  10  16
HETATM   16  C   UNL     1       8.231  24.180  54.157  1.00  0.00     0.166 C 
BRANCH  16  17
HETATM   17  C   UNL     1       8.353  22.675  54.189  1.00  0.00    -0.040 A 
HETATM   18  C   UNL     1       8.081  21.880  53.068  1.00  0.00     0.009 A 
HETATM   19  C   UNL     1       8.274  20.497  53.111  1.00  0.00     0.001 A 
HETATM   20  C   UNL     1       8.760  19.895  54.270  1.00  0.00     0.000 A 
HETATM   21  C   UNL     1       9.056  20.673  55.386  1.00  0.00     0.001 A 
HETATM   22  C   UNL     1       8.857  22.054  55.345  1.00  0.00     0.009 A 
ENDBRANCH  16  17
ENDBRANCH  10  16
ENDBRANCH   6   7
BRANCH   1  23
HETATM   23  O   UNL     1       5.608  28.889  52.645  1.00  0.00    -0.347 OA
BRANCH  23  24
HETATM   24  C   UNL     1       4.672  29.677  53.377  1.00  0.00     0.201 C 
BRANCH  24  25
HETATM   25  C   UNL     1       3.631  28.749  53.990  1.00  0.00     0.190 C 
BRANCH  25  26
HETATM   26  O   UNL     1       4.251  27.851  54.904  1.00  0.00    -0.399 OA
HETATM   27  H   UNL     1       4.025  28.161  55.799  1.00  0.00     0.209 HD
ENDBRANCH  25  26
ENDBRANCH  24  25
ENDBRANCH  23  24
ENDBRANCH   1  23
BRANCH   3  28
HETATM   28  C   UNL     1       3.755  28.935  48.077  1.00  0.00     0.010 A 
HETATM   29  C   UNL     1       4.237  30.067  47.381  1.00  0.00     0.152 A 
HETATM   30  N   UNL     1       3.452  30.416  46.358  1.00  0.00    -0.187 NA
HETATM   31  N   UNL     1       2.469  29.502  46.392  1.00  0.00    -0.289 N 
HETATM   32  H   UNL     1       1.736  29.558  45.693  1.00  0.00     0.188 HD
HETATM   33  C   UNL     1       2.603  28.594  47.402  1.00  0.00     0.123 A 
ENDBRANCH   3  28
TORSDOF 11
ENDMDL
MODEL 7
REMARK VINA RESULT:      -7.3      3.909      7.833
REMARK  11 active torsions:
REMARK  status: ('A' for Active; 'I' for Inactive)
REMARK    1  A    between atoms: O_1  and  C_2 
REMARK    2  A    between atoms: C_2  and  C_3 
REMARK    3  A    between atoms: C_3  and  O_4 
REMARK    4  A    between atoms: O_4  and  C_5 
REMARK    5  A    between atoms: C_7  and  C_25 
REMARK    6  A    between atoms: C_10  and  N_11 
REMARK       I    between atoms: N_11  and  C_12 
REMARK       I    between atoms: C_12  and  N_14 
REMARK    7  A    between atoms: N_14  and  C_15 
REMARK    8  A    between atoms: N_14  and  C_18 
REMARK    9  A    between atoms: C_15  and  C_16 
REMARK   10  A    between atoms: C_16  and  O_17 
REMARK   11  A    between atoms: C_18  and  C_19 
ROOT
HETATM    1  C   UNL     1       6.457  25.160  54.058  1.00  0.00     0.096 A 
HETATM    2  C   UNL     1       6.925  24.066  54.797  1.00  0.00     0.051 A 
HETATM    3  C   UNL     1       7.677  23.053  54.182  1.00  0.00    -0.020 A 
HETATM    4  C   UNL     1       7.927  23.125  52.808  1.00  0.00     0.015 A 
HETATM    5  C   UNL     1       7.474  24.216  52.064  1.00  0.00     0.033 A 
HETATM    6  C   UNL     1       6.793  25.261  52.696  1.00  0.00     0.069 A 
ENDROOT
BRANCH   6   7
HETATM    7  N   UNL     1       6.467  26.395  51.914  1.00  0.00    -0.306 N 
HETATM    8  C   UNL     1       5.188  26.550  51.403  1.00  0.00     0.323 C 
HETATM    9  O   UNL     1       4.264  25.764  51.606  1.00  0.00    -0.247 OA
HETATM   10  N   UNL     1       4.992  27.746  50.715  1.00  0.00    -0.328 N 
HETATM   11  H   UNL     1       6.845  27.276  52.251  1.00  0.00     0.171 HD
BRANCH  10  12
HETATM   12  C   UNL     1       6.082  28.615  50.249  1.00  0.00     0.153 C 
BRANCH  12  13
HETATM   13  C   UNL     1       5.610  30.042  49.964  1.00  0.00     0.184 C 
BRANCH  13  14
HETATM   14  O   UNL     1       6.044  30.932  50.993  1.00  0.00    -0.399 OA
HETATM   15  H   UNL     1       5.869  30.470  51.836  1.00  0.00     0.209 HD
ENDBRANCH  13  14
ENDBRANCH  12  13
ENDBRANCH  10  12
BRANCH  10  16
HETATM   16  C   UNL     1       3.617  28.175  50.461  1.00  0.00     0.166 C 
BRANCH  16  17
HETATM   17  C   UNL     1       2.968  27.580  49.233  1.00  0.00    -0.040 A 
HETATM   18  C   UNL     1       1.670  27.926  48.835  1.00  0.00     0.009 A 
HETATM   19  C   UNL     1       1.127  27.412  47.655  1.00  0.00     0.001 A 
HETATM   20  C   UNL     1       1.882  26.562  46.849  1.00  0.00     0.000 A 
HETATM   21  C   UNL     1       3.182  26.226  47.220  1.00  0.00     0.001 A 
HETATM   22  C   UNL     1       3.722  26.734  48.402  1.00  0.00     0.009 A 
ENDBRANCH  16  17
ENDBRANCH  10  16
ENDBRANCH   6   7
BRANCH   1  23
HETATM   23  O   UNL     1       5.651  26.144  54.576  1.00  0.00    -0.347 OA
BRANCH  23  24
HETATM   24  C   UNL     1       6.261  27.064  55.478  1.00  0.00     0.201 C 
BRANCH  24  25
HETATM   25  C   UNL     1       6.072  28.474  54.934  1.00  0.00     0.190 C 
BRANCH  25  26
HETATM   26  O   UNL     1       6.856  28.658  53.760  1.00  0.00    -0.399 OA
HETATM   27  H   UNL     1       6.806  27.827  53.256  1.00  0.00     0.209 HD
ENDBRANCH  25  26
ENDBRANCH  24  25
ENDBRANCH  23  24
ENDBRANCH   1  23
BRANCH   3  28
HETATM   28  C   UNL     1       8.213  21.950  54.956  1.00  0.00     0.010 A 
HETATM   29  C   UNL     1       8.384  21.802  56.352  1.00  0.00     0.152 A 
HETATM   30  N   UNL     1       8.922  20.625  56.684  1.00  0.00    -0.187 NA
HETATM   31  N   UNL     1       9.090  20.013  55.500  1.00  0.00    -0.289 N 
HETATM   32  H   UNL     1       9.490  19.081  55.494  1.00  0.00     0.188 HD
HETATM   33  C   UNL     1       8.682  20.763  54.435  1.00  0.00     0.123 A 
ENDBRANCH   3  28
TORSDOF 11
ENDMDL
MODEL 8
REMARK VINA RESULT:      -7.3      3.340      8.767
REMARK  11 active torsions:
REMARK  status: ('A' for Active; 'I' for Inactive)
REMARK    1  A    between atoms: O_1  and  C_2 
REMARK    2  A    between atoms: C_2  and  C_3 
REMARK    3  A    between atoms: C_3  and  O_4 
REMARK    4  A    between atoms: O_4  and  C_5 
REMARK    5  A    between atoms: C_7  and  C_25 
REMARK    6  A    between atoms: C_10  and  N_11 
REMARK       I    between atoms: N_11  and  C_12 
REMARK       I    between atoms: C_12  and  N_14 
REMARK    7  A    between atoms: N_14  and  C_15 
REMARK    8  A    between atoms: N_14  and  C_18 
REMARK    9  A    between atoms: C_15  and  C_16 
REMARK   10  A    between atoms: C_16  and  O_17 
REMARK   11  A    between atoms: C_18  and  C_19 
ROOT
HETATM    1  C   UNL     1       5.156  28.383  56.341  1.00  0.00     0.096 A 
HETATM    2  C   UNL     1       4.809  29.468  57.156  1.00  0.00     0.051 A 
HETATM    3  C   UNL     1       4.330  30.662  56.596  1.00  0.00    -0.020 A 
HETATM    4  C   UNL     1       4.234  30.776  55.204  1.00  0.00     0.015 A 
HETATM    5  C   UNL     1       4.568  29.697  54.384  1.00  0.00     0.033 A 
HETATM    6  C   UNL     1       4.970  28.483  54.951  1.00  0.00     0.069 A 
ENDROOT
BRANCH   6   7
HETATM    7  N   UNL     1       5.177  27.390  54.075  1.00  0.00    -0.306 N 
HETATM    8  C   UNL     1       6.456  27.064  53.651  1.00  0.00     0.323 C 
HETATM    9  O   UNL     1       7.474  27.651  54.012  1.00  0.00    -0.247 OA
HETATM   10  N   UNL     1       6.515  25.923  52.851  1.00  0.00    -0.328 N 
HETATM   11  H   UNL     1       4.627  26.562  54.280  1.00  0.00     0.171 HD
BRANCH  10  12
HETATM   12  C   UNL     1       5.345  25.310  52.207  1.00  0.00     0.153 C 
BRANCH  12  13
HETATM   13  C   UNL     1       5.031  25.937  50.847  1.00  0.00     0.184 C 
BRANCH  13  14
HETATM   14  O   UNL     1       4.253  27.125  51.008  1.00  0.00    -0.399 OA
HETATM   15  H   UNL     1       4.299  27.347  51.958  1.00  0.00     0.209 HD
ENDBRANCH  13  14
ENDBRANCH  12  13
ENDBRANCH  10  12
BRANCH  10  16
HETATM   16  C   UNL     1       7.817  25.287  52.659  1.00  0.00     0.166 C 
BRANCH  16  17
HETATM   17  C   UNL     1       8.010  23.973  53.380  1.00  0.00    -0.040 A 
HETATM   18  C   UNL     1       8.216  23.905  54.764  1.00  0.00     0.009 A 
HETATM   19  C   UNL     1       8.319  22.670  55.408  1.00  0.00     0.001 A 
HETATM   20  C   UNL     1       8.196  21.488  54.680  1.00  0.00     0.000 A 
HETATM   21  C   UNL     1       7.970  21.539  53.307  1.00  0.00     0.001 A 
HETATM   22  C   UNL     1       7.874  22.773  52.662  1.00  0.00     0.009 A 
ENDBRANCH  16  17
ENDBRANCH  10  16
ENDBRANCH   6   7
BRANCH   1  23
HETATM   23  O   UNL     1       5.705  27.217  56.814  1.00  0.00    -0.347 OA
BRANCH  23  24
HETATM   24  C   UNL     1       7.015  27.306  57.371  1.00  0.00     0.201 C 
BRANCH  24  25
HETATM   25  C   UNL     1       7.465  25.907  57.776  1.00  0.00     0.190 C 
BRANCH  25  26
HETATM   26  O   UNL     1       6.425  24.967  57.536  1.00  0.00    -0.399 OA
HETATM   27  H   UNL     1       5.737  25.132  58.205  1.00  0.00     0.209 HD
ENDBRANCH  25  26
ENDBRANCH  24  25
ENDBRANCH  23  24
ENDBRANCH   1  23
BRANCH   3  28
HETATM   28  C   UNL     1       3.914  31.766  57.440  1.00  0.00     0.010 A 
HETATM   29  C   UNL     1       3.632  31.811  58.824  1.00  0.00     0.152 A 
HETATM   30  N   UNL     1       3.270  33.028  59.238  1.00  0.00    -0.187 NA
HETATM   31  N   UNL     1       3.327  33.769  58.119  1.00  0.00    -0.289 N 
HETATM   32  H   UNL     1       3.093  34.754  58.183  1.00  0.00     0.188 HD
HETATM   33  C   UNL     1       3.706  33.061  57.015  1.00  0.00     0.123 A 
ENDBRANCH   3  28
TORSDOF 11
ENDMDL
MODEL 9
REMARK VINA RESULT:      -7.2      3.320      5.050
REMARK  11 active torsions:
REMARK  status: ('A' for Active; 'I' for Inactive)
REMARK    1  A    between atoms: O_1  and  C_2 
REMARK    2  A    between atoms: C_2  and  C_3 
REMARK    3  A    between atoms: C_3  and  O_4 
REMARK    4  A    between atoms: O_4  and  C_5 
REMARK    5  A    between atoms: C_7  and  C_25 
REMARK    6  A    between atoms: C_10  and  N_11 
REMARK       I    between atoms: N_11  and  C_12 
REMARK       I    between atoms: C_12  and  N_14 
REMARK    7  A    between atoms: N_14  and  C_15 
REMARK    8  A    between atoms: N_14  and  C_18 
REMARK    9  A    between atoms: C_15  and  C_16 
REMARK   10  A    between atoms: C_16  and  O_17 
REMARK   11  A    between atoms: C_18  and  C_19 
ROOT
HETATM    1  C   UNL     1       6.919  25.277  54.592  1.00  0.00     0.096 A 
HETATM    2  C   UNL     1       7.439  24.047  55.018  1.00  0.00     0.051 A 
HETATM    3  C   UNL     1       7.692  23.018  54.099  1.00  0.00    -0.020 A 
HETATM    4  C   UNL     1       7.387  23.217  52.748  1.00  0.00     0.015 A 
HETATM    5  C   UNL     1       6.878  24.441  52.312  1.00  0.00     0.033 A 
HETATM    6  C   UNL     1       6.701  25.490  53.220  1.00  0.00     0.069 A 
ENDROOT
BRANCH   6   7
HETATM    7  N   UNL     1       6.299  26.743  52.699  1.00  0.00    -0.306 N 
HETATM    8  C   UNL     1       4.967  27.126  52.741  1.00  0.00     0.323 C 
HETATM    9  O   UNL     1       4.070  26.449  53.242  1.00  0.00    -0.247 OA
HETATM   10  N   UNL     1       4.730  28.412  52.259  1.00  0.00    -0.328 N 
HETATM   11  H   UNL     1       6.918  27.519  52.913  1.00  0.00     0.171 HD
BRANCH  10  12
HETATM   12  C   UNL     1       5.692  29.180  51.456  1.00  0.00     0.153 C 
BRANCH  12  13
HETATM   13  C   UNL     1       5.456  29.022  49.953  1.00  0.00     0.184 C 
BRANCH  13  14
HETATM   14  O   UNL     1       5.711  27.678  49.541  1.00  0.00    -0.399 OA
HETATM   15  H   UNL     1       6.596  27.690  49.127  1.00  0.00     0.209 HD
ENDBRANCH  13  14
ENDBRANCH  12  13
ENDBRANCH  10  12
BRANCH  10  16
HETATM   16  C   UNL     1       3.455  29.045  52.591  1.00  0.00     0.166 C 
BRANCH  16  17
HETATM   17  C   UNL     1       3.521  30.125  53.646  1.00  0.00    -0.040 A 
HETATM   18  C   UNL     1       4.011  29.878  54.935  1.00  0.00     0.009 A 
HETATM   19  C   UNL     1       4.125  30.916  55.864  1.00  0.00     0.001 A 
HETATM   20  C   UNL     1       3.770  32.216  55.508  1.00  0.00     0.000 A 
HETATM   21  C   UNL     1       3.302  32.481  54.223  1.00  0.00     0.001 A 
HETATM   22  C   UNL     1       3.181  31.443  53.298  1.00  0.00     0.009 A 
ENDBRANCH  16  17
ENDBRANCH  10  16
ENDBRANCH   6   7
BRANCH   1  23
HETATM   23  O   UNL     1       6.573  26.296  55.445  1.00  0.00    -0.347 OA
BRANCH  23  24
HETATM   24  C   UNL     1       7.642  27.054  56.006  1.00  0.00     0.201 C 
BRANCH  24  25
HETATM   25  C   UNL     1       7.502  28.502  55.552  1.00  0.00     0.190 C 
BRANCH  25  26
HETATM   26  O   UNL     1       8.014  28.655  54.233  1.00  0.00    -0.399 OA
HETATM   27  H   UNL     1       8.973  28.492  54.284  1.00  0.00     0.209 HD
ENDBRANCH  25  26
ENDBRANCH  24  25
ENDBRANCH  23  24
ENDBRANCH   1  23
BRANCH   3  28
HETATM   28  C   UNL     1       8.286  21.766  54.528  1.00  0.00     0.010 A 
HETATM   29  C   UNL     1       8.344  20.508  53.886  1.00  0.00     0.152 A 
HETATM   30  N   UNL     1       8.982  19.587  54.614  1.00  0.00    -0.187 NA
HETATM   31  N   UNL     1       9.341  20.256  55.721  1.00  0.00    -0.289 N 
HETATM   32  H   UNL     1       9.854  19.757  56.440  1.00  0.00     0.188 HD
HETATM   33  C   UNL     1       8.947  21.563  55.720  1.00  0.00     0.123 A 
ENDBRANCH   3  28
TORSDOF 11
ENDMDL
MODEL 10
REMARK VINA RESULT:      -6.9      2.801      8.994
REMARK  11 active torsions:
REMARK  status: ('A' for Active; 'I' for Inactive)
REMARK    1  A    between atoms: O_1  and  C_2 
REMARK    2  A    between atoms: C_2  and  C_3 
REMARK    3  A    between atoms: C_3  and  O_4 
REMARK    4  A    between atoms: O_4  and  C_5 
REMARK    5  A    between atoms: C_7  and  C_25 
REMARK    6  A    between atoms: C_10  and  N_11 
REMARK       I    between atoms: N_11  and  C_12 
REMARK       I    between atoms: C_12  and  N_14 
REMARK    7  A    between atoms: N_14  and  C_15 
REMARK    8  A    between atoms: N_14  and  C_18 
REMARK    9  A    between atoms: C_15  and  C_16 
REMARK   10  A    between atoms: C_16  and  O_17 
REMARK   11  A    between atoms: C_18  and  C_19 
ROOT
HETATM    1  C   UNL     1       7.775  30.568  58.622  1.00  0.00     0.096 A 
HETATM    2  C   UNL     1       7.781  31.292  59.821  1.00  0.00     0.051 A 
HETATM    3  C   UNL     1       6.691  32.099  60.178  1.00  0.00    -0.020 A 
HETATM    4  C   UNL     1       5.604  32.207  59.304  1.00  0.00     0.015 A 
HETATM    5  C   UNL     1       5.583  31.483  58.111  1.00  0.00     0.033 A 
HETATM    6  C   UNL     1       6.637  30.619  57.797  1.00  0.00     0.069 A 
ENDROOT
BRANCH   6   7
HETATM    7  N   UNL     1       6.503  29.820  56.635  1.00  0.00    -0.306 N 
HETATM    8  C   UNL     1       6.166  28.480  56.741  1.00  0.00     0.323 C 
HETATM    9  O   UNL     1       5.934  27.908  57.805  1.00  0.00    -0.247 OA
HETATM   10  N   UNL     1       5.998  27.838  55.515  1.00  0.00    -0.328 N 
HETATM   11  H   UNL     1       6.027  30.267  55.857  1.00  0.00     0.171 HD
BRANCH  10  12
HETATM   12  C   UNL     1       6.464  28.382  54.232  1.00  0.00     0.153 C 
BRANCH  12  13
HETATM   13  C   UNL     1       7.952  28.122  53.993  1.00  0.00     0.184 C 
BRANCH  13  14
HETATM   14  O   UNL     1       8.137  26.972  53.165  1.00  0.00    -0.399 OA
HETATM   15  H   UNL     1       8.376  27.315  52.282  1.00  0.00     0.209 HD
ENDBRANCH  13  14
ENDBRANCH  12  13
ENDBRANCH  10  12
BRANCH  10  16
HETATM   16  C   UNL     1       5.296  26.556  55.502  1.00  0.00     0.166 C 
BRANCH  16  17
HETATM   17  C   UNL     1       6.176  25.335  55.362  1.00  0.00    -0.040 A 
HETATM   18  C   UNL     1       6.892  24.806  56.443  1.00  0.00     0.009 A 
HETATM   19  C   UNL     1       7.639  23.634  56.296  1.00  0.00     0.001 A 
HETATM   20  C   UNL     1       7.662  22.968  55.073  1.00  0.00     0.000 A 
HETATM   21  C   UNL     1       6.938  23.470  53.994  1.00  0.00     0.001 A 
HETATM   22  C   UNL     1       6.197  24.644  54.139  1.00  0.00     0.009 A 
ENDBRANCH  16  17
ENDBRANCH  10  16
ENDBRANCH   6   7
BRANCH   1  23
HETATM   23  O   UNL     1       8.837  29.823  58.172  1.00  0.00    -0.347 OA
BRANCH  23  24
HETATM   24  C   UNL     1      10.068  30.517  57.975  1.00  0.00     0.201 C 
BRANCH  24  25
HETATM   25  C   UNL     1      10.790  29.896  56.786  1.00  0.00     0.190 C 
BRANCH  25  26
HETATM   26  O   UNL     1      12.170  29.722  57.084  1.00  0.00    -0.399 OA
HETATM   27  H   UNL     1      12.619  29.543  56.239  1.00  0.00     0.209 HD
ENDBRANCH  25  26
ENDBRANCH  24  25
ENDBRANCH  23  24
ENDBRANCH   1  23
BRANCH   3  28
HETATM   28  C   UNL     1       6.669  32.803  61.447  1.00  0.00     0.010 A 
HETATM   29  C   UNL     1       7.408  32.585  62.632  1.00  0.00     0.152 A 
HETATM   30  N   UNL     1       7.097  33.452  63.600  1.00  0.00    -0.187 NA
HETATM   31  N   UNL     1       6.164  34.234  63.032  1.00  0.00    -0.289 N 
HETATM   32  H   UNL     1       5.769  34.987  63.584  1.00  0.00     0.188 HD
HETATM   33  C   UNL     1       5.871  33.886  61.745  1.00  0.00     0.123 A 
ENDBRANCH   3  28
TORSDOF 11
ENDMDL
