MODEL 1
REMARK VINA RESULT:      -9.4      0.000      0.000
REMARK  9 active torsions:
REMARK  status: ('A' for Active; 'I' for Inactive)
REMARK    1  A    between atoms: C_2  and  C_3 
REMARK    2  A    between atoms: C_3  and  C_4 
REMARK    3  A    between atoms: C_3  and  C_23 
REMARK    4  A    between atoms: C_4  and  C_5 
REMARK    5  A    between atoms: C_4  and  C_17 
REMARK    6  A    between atoms: C_15  and  O_16 
REMARK    7  A    between atoms: C_23  and  N_24 
REMARK    8  A    between atoms: N_31  and  N_32 
REMARK       I    between atoms: N_32  and  C_33 
REMARK    9  A    between atoms: C_33  and  C_34 
ROOT
HETATM    1  C   UNL     1       3.743  31.932  58.473  1.00  0.00     0.213 C 
HETATM    2  C   UNL     1       4.263  33.251  57.926  1.00  0.00    -0.011 C 
HETATM    3  N   UNL     1       4.695  34.346  57.472  1.00  0.00    -0.101 N 
ENDROOT
BRANCH   1   4
HETATM    4  C   UNL     1       4.591  30.787  57.956  1.00  0.00     0.249 C 
HETATM    5  N   UNL     1       3.902  29.733  57.367  1.00  0.00    -0.246 N 
HETATM    6  H   UNL     1       2.885  29.685  57.370  1.00  0.00     0.192 HD
HETATM    7  O   UNL     1       5.813  30.760  58.124  1.00  0.00    -0.271 OA
BRANCH   5   8
HETATM    8  N   UNL     1       4.612  28.805  56.677  1.00  0.00    -0.181 NA
HETATM    9  C   UNL     1       4.610  28.834  55.380  1.00  0.00     0.035 C 
HETATM   10  C   UNL     1       3.843  29.836  54.546  1.00  0.00     0.068 C 
BRANCH   9  11
HETATM   11  C   UNL     1       5.523  27.847  54.655  1.00  0.00     0.074 C 
BRANCH  11  12
HETATM   12  C   UNL     1       6.637  27.192  55.533  1.00  0.00     0.072 C 
BRANCH  12  13
HETATM   13  C   UNL     1       6.920  25.697  55.348  1.00  0.00     0.061 C 
HETATM   14  C   UNL     1       6.480  24.839  56.484  1.00  0.00     0.298 C 
HETATM   15  O   UNL     1       5.761  25.313  57.368  1.00  0.00    -0.259 OA
HETATM   16  O   UNL     1       6.802  23.498  56.482  1.00  0.00    -0.274 OA
HETATM   17  C   UNL     1       7.419  22.906  55.371  1.00  0.00     0.092 A 
HETATM   18  C   UNL     1       7.751  23.662  54.252  1.00  0.00     0.032 A 
HETATM   19  C   UNL     1       7.671  21.536  55.442  1.00  0.00     0.038 A 
HETATM   20  C   UNL     1       8.371  23.009  53.179  1.00  0.00     0.017 A 
HETATM   21  C   UNL     1       7.478  25.100  54.281  1.00  0.00     0.091 C 
HETATM   22  C   UNL     1       8.629  21.635  53.234  1.00  0.00     0.001 A 
HETATM   23  C   UNL     1       8.277  20.899  54.363  1.00  0.00     0.003 A 
BRANCH  21  24
HETATM   24  O   UNL     1       7.803  25.799  53.144  1.00  0.00    -0.359 OA
HETATM   25  H   UNL     1       6.958  25.992  52.674  1.00  0.00     0.218 HD
ENDBRANCH  21  24
ENDBRANCH  12  13
BRANCH  12  26
HETATM   26  C   UNL     1       7.886  28.051  55.768  1.00  0.00    -0.049 A 
HETATM   27  C   UNL     1       8.301  28.302  57.092  1.00  0.00     0.008 A 
HETATM   28  C   UNL     1       9.427  29.084  57.363  1.00  0.00     0.001 A 
HETATM   29  C   UNL     1      10.167  29.623  56.318  1.00  0.00     0.000 A 
HETATM   30  C   UNL     1       9.789  29.370  55.004  1.00  0.00     0.001 A 
HETATM   31  C   UNL     1       8.664  28.586  54.732  1.00  0.00     0.008 A 
ENDBRANCH  12  26
ENDBRANCH  11  12
BRANCH  11  32
HETATM   32  C   UNL     1       6.035  28.606  53.410  1.00  0.00     0.246 C 
BRANCH  32  33
HETATM   33  N   UNL     1       5.877  27.862  52.092  1.00  0.00    -0.070 N 
HETATM   34  H   UNL     1       6.823  27.535  51.797  1.00  0.00     0.279 HD
HETATM   35  C   UNL     1       4.945  26.678  52.167  1.00  0.00     0.235 C 
HETATM   36  C   UNL     1       4.863  25.972  50.822  1.00  0.00     0.028 C 
HETATM   37  C   UNL     1       4.467  26.924  49.703  1.00  0.00     0.003 C 
HETATM   38  C   UNL     1       5.414  28.115  49.654  1.00  0.00     0.028 C 
HETATM   39  C   UNL     1       5.472  28.832  50.994  1.00  0.00     0.235 C 
ENDBRANCH  32  33
ENDBRANCH  11  32
ENDBRANCH   9  11
ENDBRANCH   5   8
ENDBRANCH   1   4
TORSDOF 9
ENDMDL
MODEL 2
REMARK VINA RESULT:      -8.8      2.036      5.694
REMARK  9 active torsions:
REMARK  status: ('A' for Active; 'I' for Inactive)
REMARK    1  A    between atoms: C_2  and  C_3 
REMARK    2  A    between atoms: C_3  and  C_4 
REMARK    3  A    between atoms: C_3  and  C_23 
REMARK    4  A    between atoms: C_4  and  C_5 
REMARK    5  A    between atoms: C_4  and  C_17 
REMARK    6  A    between atoms: C_15  and  O_16 
REMARK    7  A    between atoms: C_23  and  N_24 
REMARK    8  A    between atoms: N_31  and  N_32 
REMARK       I    between atoms: N_32  and  C_33 
REMARK    9  A    between atoms: C_33  and  C_34 
ROOT
HETATM    1  C   UNL     1       3.677  25.546  48.237  1.00  0.00     0.213 C 
HETATM    2  C   UNL     1       2.559  26.116  47.378  1.00  0.00    -0.011 C 
HETATM    3  N   UNL     1       1.632  26.588  46.665  1.00  0.00    -0.101 N 
ENDROOT
BRANCH   1   4
HETATM    4  C   UNL     1       3.955  26.470  49.405  1.00  0.00     0.249 C 
HETATM    5  N   UNL     1       4.706  25.934  50.444  1.00  0.00    -0.246 N 
HETATM    6  H   UNL     1       4.971  24.951  50.467  1.00  0.00     0.192 HD
HETATM    7  O   UNL     1       3.472  27.605  49.462  1.00  0.00    -0.271 OA
BRANCH   5   8
HETATM    8  N   UNL     1       5.187  26.777  51.393  1.00  0.00    -0.181 NA
HETATM    9  C   UNL     1       5.049  26.471  52.646  1.00  0.00     0.035 C 
HETATM   10  C   UNL     1       4.356  25.227  53.155  1.00  0.00     0.068 C 
BRANCH   9  11
HETATM   11  C   UNL     1       5.717  27.388  53.670  1.00  0.00     0.074 C 
BRANCH  11  12
HETATM   12  C   UNL     1       6.659  26.677  54.695  1.00  0.00     0.072 C 
BRANCH  12  13
HETATM   13  C   UNL     1       7.172  25.274  54.354  1.00  0.00     0.061 C 
HETATM   14  C   UNL     1       7.872  25.173  53.042  1.00  0.00     0.298 C 
HETATM   15  O   UNL     1       8.177  26.199  52.429  1.00  0.00    -0.259 OA
HETATM   16  O   UNL     1       8.258  23.933  52.577  1.00  0.00    -0.274 OA
HETATM   17  C   UNL     1       8.120  22.789  53.374  1.00  0.00     0.092 A 
HETATM   18  C   UNL     1       7.563  22.867  54.645  1.00  0.00     0.032 A 
HETATM   19  C   UNL     1       8.575  21.584  52.836  1.00  0.00     0.038 A 
HETATM   20  C   UNL     1       7.450  21.684  55.387  1.00  0.00     0.017 A 
HETATM   21  C   UNL     1       7.085  24.169  55.114  1.00  0.00     0.091 C 
HETATM   22  C   UNL     1       7.903  20.468  54.863  1.00  0.00     0.001 A 
HETATM   23  C   UNL     1       8.466  20.418  53.589  1.00  0.00     0.003 A 
BRANCH  21  24
HETATM   24  O   UNL     1       6.562  24.199  56.384  1.00  0.00    -0.359 OA
HETATM   25  H   UNL     1       5.585  24.105  56.293  1.00  0.00     0.218 HD
ENDBRANCH  21  24
ENDBRANCH  12  13
BRANCH  12  26
HETATM   26  C   UNL     1       7.688  27.581  55.386  1.00  0.00    -0.049 A 
HETATM   27  C   UNL     1       7.903  27.434  56.771  1.00  0.00     0.008 A 
HETATM   28  C   UNL     1       8.823  28.236  57.452  1.00  0.00     0.001 A 
HETATM   29  C   UNL     1       9.553  29.194  56.761  1.00  0.00     0.000 A 
HETATM   30  C   UNL     1       9.374  29.341  55.390  1.00  0.00     0.001 A 
HETATM   31  C   UNL     1       8.456  28.538  54.708  1.00  0.00     0.008 A 
ENDBRANCH  12  26
ENDBRANCH  11  12
BRANCH  11  32
HETATM   32  C   UNL     1       4.565  28.202  54.299  1.00  0.00     0.246 C 
BRANCH  32  33
HETATM   33  N   UNL     1       4.943  29.604  54.758  1.00  0.00    -0.070 N 
HETATM   34  H   UNL     1       5.930  29.776  54.470  1.00  0.00     0.279 HD
HETATM   35  C   UNL     1       4.064  30.690  54.190  1.00  0.00     0.235 C 
HETATM   36  C   UNL     1       4.521  32.059  54.671  1.00  0.00     0.028 C 
HETATM   37  C   UNL     1       4.592  32.134  56.189  1.00  0.00     0.003 C 
HETATM   38  C   UNL     1       5.474  31.023  56.739  1.00  0.00     0.028 C 
HETATM   39  C   UNL     1       4.997  29.655  56.277  1.00  0.00     0.235 C 
ENDBRANCH  32  33
ENDBRANCH  11  32
ENDBRANCH   9  11
ENDBRANCH   5   8
ENDBRANCH   1   4
TORSDOF 9
ENDMDL
MODEL 3
REMARK VINA RESULT:      -7.5      1.928      5.593
REMARK  9 active torsions:
REMARK  status: ('A' for Active; 'I' for Inactive)
REMARK    1  A    between atoms: C_2  and  C_3 
REMARK    2  A    between atoms: C_3  and  C_4 
REMARK    3  A    between atoms: C_3  and  C_23 
REMARK    4  A    between atoms: C_4  and  C_5 
REMARK    5  A    between atoms: C_4  and  C_17 
REMARK    6  A    between atoms: C_15  and  O_16 
REMARK    7  A    between atoms: C_23  and  N_24 
REMARK    8  A    between atoms: N_31  and  N_32 
REMARK       I    between atoms: N_32  and  C_33 
REMARK    9  A    between atoms: C_33  and  C_34 
ROOT
HETATM    1  C   UNL     1       3.370  32.250  57.310  1.00  0.00     0.213 C 
HETATM    2  C   UNL     1       2.715  32.555  55.973  1.00  0.00    -0.011 C 
HETATM    3  N   UNL     1       2.171  32.807  54.863  1.00  0.00    -0.101 N 
ENDROOT
BRANCH   1   4
HETATM    4  C   UNL     1       4.495  31.253  57.120  1.00  0.00     0.249 C 
HETATM    5  N   UNL     1       4.112  29.936  56.893  1.00  0.00    -0.246 N 
HETATM    6  H   UNL     1       3.140  29.639  56.949  1.00  0.00     0.192 HD
HETATM    7  O   UNL     1       5.679  31.580  57.242  1.00  0.00    -0.271 OA
BRANCH   5   8
HETATM    8  N   UNL     1       5.055  29.052  56.479  1.00  0.00    -0.181 NA
HETATM    9  C   UNL     1       5.206  28.827  55.211  1.00  0.00     0.035 C 
HETATM   10  C   UNL     1       4.378  29.470  54.121  1.00  0.00     0.068 C 
BRANCH   9  11
HETATM   11  C   UNL     1       6.362  27.921  54.791  1.00  0.00     0.074 C 
BRANCH  11  12
HETATM   12  C   UNL     1       5.953  26.609  54.047  1.00  0.00     0.072 C 
BRANCH  12  13
HETATM   13  C   UNL     1       5.559  26.707  52.569  1.00  0.00     0.061 C 
HETATM   14  C   UNL     1       4.766  25.552  52.063  1.00  0.00     0.298 C 
HETATM   15  O   UNL     1       4.307  24.727  52.857  1.00  0.00    -0.259 OA
HETATM   16  O   UNL     1       4.470  25.473  50.718  1.00  0.00    -0.274 OA
HETATM   17  C   UNL     1       4.790  26.524  49.847  1.00  0.00     0.092 A 
HETATM   18  C   UNL     1       5.441  27.662  50.310  1.00  0.00     0.032 A 
HETATM   19  C   UNL     1       4.418  26.374  48.511  1.00  0.00     0.038 A 
HETATM   20  C   UNL     1       5.737  28.671  49.385  1.00  0.00     0.017 A 
HETATM   21  C   UNL     1       5.822  27.717  51.722  1.00  0.00     0.091 C 
HETATM   22  C   UNL     1       5.368  28.537  48.042  1.00  0.00     0.001 A 
HETATM   23  C   UNL     1       4.708  27.391  47.605  1.00  0.00     0.003 A 
BRANCH  21  24
HETATM   24  O   UNL     1       6.444  28.870  52.136  1.00  0.00    -0.359 OA
HETATM   25  H   UNL     1       6.552  28.801  53.113  1.00  0.00     0.218 HD
ENDBRANCH  21  24
ENDBRANCH  12  13
BRANCH  12  26
HETATM   26  C   UNL     1       6.769  25.361  54.406  1.00  0.00    -0.049 A 
HETATM   27  C   UNL     1       6.481  24.680  55.606  1.00  0.00     0.008 A 
HETATM   28  C   UNL     1       7.198  23.543  55.986  1.00  0.00     0.001 A 
HETATM   29  C   UNL     1       8.212  23.057  55.170  1.00  0.00     0.000 A 
HETATM   30  C   UNL     1       8.498  23.699  53.970  1.00  0.00     0.001 A 
HETATM   31  C   UNL     1       7.779  24.836  53.589  1.00  0.00     0.008 A 
ENDBRANCH  12  26
ENDBRANCH  11  12
BRANCH  11  32
HETATM   32  C   UNL     1       7.199  27.710  56.072  1.00  0.00     0.246 C 
BRANCH  32  33
HETATM   33  N   UNL     1       8.090  28.882  56.460  1.00  0.00    -0.070 N 
HETATM   34  H   UNL     1       7.692  29.740  56.022  1.00  0.00     0.279 HD
HETATM   35  C   UNL     1       8.205  29.093  57.949  1.00  0.00     0.235 C 
HETATM   36  C   UNL     1       9.086  30.296  58.255  1.00  0.00     0.028 C 
HETATM   37  C   UNL     1      10.454  30.181  57.599  1.00  0.00     0.003 C 
HETATM   38  C   UNL     1      10.312  29.957  56.100  1.00  0.00     0.028 C 
HETATM   39  C   UNL     1       9.452  28.738  55.801  1.00  0.00     0.235 C 
ENDBRANCH  32  33
ENDBRANCH  11  32
ENDBRANCH   9  11
ENDBRANCH   5   8
ENDBRANCH   1   4
TORSDOF 9
ENDMDL
MODEL 4
REMARK VINA RESULT:      -7.2      4.293      8.285
REMARK  9 active torsions:
REMARK  status: ('A' for Active; 'I' for Inactive)
REMARK    1  A    between atoms: C_2  and  C_3 
REMARK    2  A    between atoms: C_3  and  C_4 
REMARK    3  A    between atoms: C_3  and  C_23 
REMARK    4  A    between atoms: C_4  and  C_5 
REMARK    5  A    between atoms: C_4  and  C_17 
REMARK    6  A    between atoms: C_15  and  O_16 
REMARK    7  A    between atoms: C_23  and  N_24 
REMARK    8  A    between atoms: N_31  and  N_32 
REMARK       I    between atoms: N_32  and  C_33 
REMARK    9  A    between atoms: C_33  and  C_34 
ROOT
HETATM    1  C   UNL     1      -0.096  33.776  53.443  1.00  0.00     0.213 C 
HETATM    2  C   UNL     1      -1.542  33.309  53.479  1.00  0.00    -0.011 C 
HETATM    3  N   UNL     1      -2.742  32.921  53.509  1.00  0.00    -0.101 N 
ENDROOT
BRANCH   1   4
HETATM    4  C   UNL     1       0.577  33.479  54.768  1.00  0.00     0.249 C 
HETATM    5  N   UNL     1       1.278  32.282  54.843  1.00  0.00    -0.246 N 
HETATM    6  H   UNL     1       1.261  31.598  54.088  1.00  0.00     0.192 HD
HETATM    7  O   UNL     1       0.439  34.221  55.745  1.00  0.00    -0.271 OA
BRANCH   5   8
HETATM    8  N   UNL     1       2.093  32.077  55.908  1.00  0.00    -0.181 NA
HETATM    9  C   UNL     1       3.225  31.466  55.738  1.00  0.00     0.035 C 
HETATM   10  C   UNL     1       3.718  30.927  54.414  1.00  0.00     0.068 C 
BRANCH   9  11
HETATM   11  C   UNL     1       4.160  31.372  56.943  1.00  0.00     0.074 C 
BRANCH  11  12
HETATM   12  C   UNL     1       4.256  32.661  57.821  1.00  0.00     0.072 C 
BRANCH  12  13
HETATM   13  C   UNL     1       4.900  32.547  59.207  1.00  0.00     0.061 C 
HETATM   14  C   UNL     1       3.932  32.535  60.340  1.00  0.00     0.298 C 
HETATM   15  O   UNL     1       2.726  32.407  60.114  1.00  0.00    -0.259 OA
HETATM   16  O   UNL     1       4.407  32.567  61.634  1.00  0.00    -0.274 OA
HETATM   17  C   UNL     1       5.780  32.480  61.901  1.00  0.00     0.092 A 
HETATM   18  C   UNL     1       6.704  32.387  60.866  1.00  0.00     0.032 A 
HETATM   19  C   UNL     1       6.166  32.480  63.242  1.00  0.00     0.038 A 
HETATM   20  C   UNL     1       8.062  32.309  61.203  1.00  0.00     0.017 A 
HETATM   21  C   UNL     1       6.209  32.427  59.489  1.00  0.00     0.091 C 
HETATM   22  C   UNL     1       8.465  32.306  62.542  1.00  0.00     0.001 A 
HETATM   23  C   UNL     1       7.518  32.390  63.561  1.00  0.00     0.003 A 
BRANCH  21  24
HETATM   24  O   UNL     1       7.158  32.311  58.502  1.00  0.00    -0.359 OA
HETATM   25  H   UNL     1       7.680  33.147  58.509  1.00  0.00     0.218 HD
ENDBRANCH  21  24
ENDBRANCH  12  13
BRANCH  12  26
HETATM   26  C   UNL     1       4.595  33.953  57.067  1.00  0.00    -0.049 A 
HETATM   27  C   UNL     1       4.391  35.191  57.709  1.00  0.00     0.008 A 
HETATM   28  C   UNL     1       4.676  36.398  57.066  1.00  0.00     0.001 A 
HETATM   29  C   UNL     1       5.179  36.393  55.771  1.00  0.00     0.000 A 
HETATM   30  C   UNL     1       5.410  35.183  55.126  1.00  0.00     0.001 A 
HETATM   31  C   UNL     1       5.127  33.975  55.770  1.00  0.00     0.008 A 
ENDBRANCH  12  26
ENDBRANCH  11  12
BRANCH  11  32
HETATM   32  C   UNL     1       5.505  30.867  56.376  1.00  0.00     0.246 C 
BRANCH  32  33
HETATM   33  N   UNL     1       5.999  29.552  56.962  1.00  0.00    -0.070 N 
HETATM   34  H   UNL     1       5.896  29.610  57.999  1.00  0.00     0.279 HD
HETATM   35  C   UNL     1       5.255  28.341  56.457  1.00  0.00     0.235 C 
HETATM   36  C   UNL     1       5.787  27.074  57.110  1.00  0.00     0.028 C 
HETATM   37  C   UNL     1       7.290  26.925  56.924  1.00  0.00     0.003 C 
HETATM   38  C   UNL     1       8.017  28.162  57.429  1.00  0.00     0.028 C 
HETATM   39  C   UNL     1       7.500  29.424  56.755  1.00  0.00     0.235 C 
ENDBRANCH  32  33
ENDBRANCH  11  32
ENDBRANCH   9  11
ENDBRANCH   5   8
ENDBRANCH   1   4
TORSDOF 9
ENDMDL
MODEL 5
REMARK VINA RESULT:      -7.0      6.421      9.615
REMARK  9 active torsions:
REMARK  status: ('A' for Active; 'I' for Inactive)
REMARK    1  A    between atoms: C_2  and  C_3 
REMARK    2  A    between atoms: C_3  and  C_4 
REMARK    3  A    between atoms: C_3  and  C_23 
REMARK    4  A    between atoms: C_4  and  C_5 
REMARK    5  A    between atoms: C_4  and  C_17 
REMARK    6  A    between atoms: C_15  and  O_16 
REMARK    7  A    between atoms: C_23  and  N_24 
REMARK    8  A    between atoms: N_31  and  N_32 
REMARK       I    between atoms: N_32  and  C_33 
REMARK    9  A    between atoms: C_33  and  C_34 
ROOT
HETATM    1  C   UNL     1       2.125  36.802  56.309  1.00  0.00     0.213 C 
HETATM    2  C   UNL     1       2.220  38.313  56.180  1.00  0.00    -0.011 C 
HETATM    3  N   UNL     1       2.299  39.568  56.072  1.00  0.00    -0.101 N 
ENDROOT
BRANCH   1   4
HETATM    4  C   UNL     1       3.283  36.279  57.135  1.00  0.00     0.249 C 
HETATM    5  N   UNL     1       3.043  36.125  58.495  1.00  0.00    -0.246 N 
HETATM    6  H   UNL     1       2.176  36.435  58.929  1.00  0.00     0.192 HD
HETATM    7  O   UNL     1       4.396  36.081  56.638  1.00  0.00    -0.271 OA
BRANCH   5   8
HETATM    8  N   UNL     1       3.951  35.440  59.237  1.00  0.00    -0.181 NA
HETATM    9  C   UNL     1       3.541  34.556  60.092  1.00  0.00     0.035 C 
HETATM   10  C   UNL     1       2.088  34.228  60.356  1.00  0.00     0.068 C 
BRANCH   9  11
HETATM   11  C   UNL     1       4.604  33.726  60.809  1.00  0.00     0.074 C 
BRANCH  11  12
HETATM   12  C   UNL     1       5.092  32.454  60.045  1.00  0.00     0.072 C 
BRANCH  12  13
HETATM   13  C   UNL     1       4.527  32.188  58.645  1.00  0.00     0.061 C 
HETATM   14  C   UNL     1       3.445  31.164  58.599  1.00  0.00     0.298 C 
HETATM   15  O   UNL     1       2.937  30.762  59.648  1.00  0.00    -0.259 OA
HETATM   16  O   UNL     1       2.956  30.753  57.377  1.00  0.00    -0.274 OA
HETATM   17  C   UNL     1       3.368  31.374  56.189  1.00  0.00     0.092 A 
HETATM   18  C   UNL     1       4.303  32.403  56.209  1.00  0.00     0.032 A 
HETATM   19  C   UNL     1       2.790  30.919  55.004  1.00  0.00     0.038 A 
HETATM   20  C   UNL     1       4.674  32.976  54.986  1.00  0.00     0.017 A 
HETATM   21  C   UNL     1       4.879  32.793  57.497  1.00  0.00     0.091 C 
HETATM   22  C   UNL     1       4.104  32.532  53.788  1.00  0.00     0.001 A 
HETATM   23  C   UNL     1       3.161  31.506  53.797  1.00  0.00     0.003 A 
BRANCH  21  24
HETATM   24  O   UNL     1       5.782  33.827  57.467  1.00  0.00    -0.359 OA
HETATM   25  H   UNL     1       6.230  33.841  58.345  1.00  0.00     0.218 HD
ENDBRANCH  21  24
ENDBRANCH  12  13
BRANCH  12  26
HETATM   26  C   UNL     1       6.579  32.114  60.205  1.00  0.00    -0.049 A 
HETATM   27  C   UNL     1       7.135  31.092  59.408  1.00  0.00     0.008 A 
HETATM   28  C   UNL     1       8.482  30.737  59.519  1.00  0.00     0.001 A 
HETATM   29  C   UNL     1       9.303  31.401  60.422  1.00  0.00     0.000 A 
HETATM   30  C   UNL     1       8.782  32.427  61.202  1.00  0.00     0.001 A 
HETATM   31  C   UNL     1       7.435  32.785  61.089  1.00  0.00     0.008 A 
ENDBRANCH  12  26
ENDBRANCH  11  12
BRANCH  11  32
HETATM   32  C   UNL     1       4.031  33.460  62.218  1.00  0.00     0.246 C 
BRANCH  32  33
HETATM   33  N   UNL     1       4.851  34.032  63.366  1.00  0.00    -0.070 N 
HETATM   34  H   UNL     1       5.555  34.683  62.958  1.00  0.00     0.279 HD
HETATM   35  C   UNL     1       4.030  34.770  64.394  1.00  0.00     0.235 C 
HETATM   36  C   UNL     1       4.922  35.333  65.490  1.00  0.00     0.028 C 
HETATM   37  C   UNL     1       5.785  34.257  66.132  1.00  0.00     0.003 C 
HETATM   38  C   UNL     1       6.594  33.519  65.075  1.00  0.00     0.028 C 
HETATM   39  C   UNL     1       5.695  32.935  63.996  1.00  0.00     0.235 C 
ENDBRANCH  32  33
ENDBRANCH  11  32
ENDBRANCH   9  11
ENDBRANCH   5   8
ENDBRANCH   1   4
TORSDOF 9
ENDMDL
MODEL 6
REMARK VINA RESULT:      -6.8      5.210      9.571
REMARK  9 active torsions:
REMARK  status: ('A' for Active; 'I' for Inactive)
REMARK    1  A    between atoms: C_2  and  C_3 
REMARK    2  A    between atoms: C_3  and  C_4 
REMARK    3  A    between atoms: C_3  and  C_23 
REMARK    4  A    between atoms: C_4  and  C_5 
REMARK    5  A    between atoms: C_4  and  C_17 
REMARK    6  A    between atoms: C_15  and  O_16 
REMARK    7  A    between atoms: C_23  and  N_24 
REMARK    8  A    between atoms: N_31  and  N_32 
REMARK       I    between atoms: N_32  and  C_33 
REMARK    9  A    between atoms: C_33  and  C_34 
ROOT
HETATM    1  C   UNL     1       6.091  34.871  50.391  1.00  0.00     0.213 C 
HETATM    2  C   UNL     1       7.218  35.644  49.725  1.00  0.00    -0.011 C 
HETATM    3  N   UNL     1       8.153  36.286  49.173  1.00  0.00    -0.101 N 
ENDROOT
BRANCH   1   4
HETATM    4  C   UNL     1       6.068  33.446  49.877  1.00  0.00     0.249 C 
HETATM    5  N   UNL     1       6.000  32.448  50.843  1.00  0.00    -0.246 N 
HETATM    6  H   UNL     1       6.062  32.655  51.838  1.00  0.00     0.192 HD
HETATM    7  O   UNL     1       6.183  33.188  48.675  1.00  0.00    -0.271 OA
BRANCH   5   8
HETATM    8  N   UNL     1       5.734  31.179  50.442  1.00  0.00    -0.181 NA
HETATM    9  C   UNL     1       4.807  30.501  51.045  1.00  0.00     0.035 C 
HETATM   10  C   UNL     1       3.986  31.014  52.207  1.00  0.00     0.068 C 
BRANCH   9  11
HETATM   11  C   UNL     1       4.461  29.126  50.475  1.00  0.00     0.074 C 
BRANCH  11  12
HETATM   12  C   UNL     1       3.194  29.077  49.561  1.00  0.00     0.072 C 
BRANCH  12  13
HETATM   13  C   UNL     1       2.751  30.369  48.867  1.00  0.00     0.061 C 
HETATM   14  C   UNL     1       1.441  30.904  49.334  1.00  0.00     0.298 C 
HETATM   15  O   UNL     1       0.911  30.433  50.343  1.00  0.00    -0.259 OA
HETATM   16  O   UNL     1       0.885  31.988  48.687  1.00  0.00    -0.274 OA
HETATM   17  C   UNL     1       1.591  32.671  47.687  1.00  0.00     0.092 A 
HETATM   18  C   UNL     1       2.860  32.257  47.299  1.00  0.00     0.032 A 
HETATM   19  C   UNL     1       0.966  33.780  47.116  1.00  0.00     0.038 A 
HETATM   20  C   UNL     1       3.508  32.981  46.290  1.00  0.00     0.017 A 
HETATM   21  C   UNL     1       3.423  31.062  47.932  1.00  0.00     0.091 C 
HETATM   22  C   UNL     1       2.896  34.097  45.709  1.00  0.00     0.001 A 
HETATM   23  C   UNL     1       1.627  34.497  46.122  1.00  0.00     0.003 A 
BRANCH  21  24
HETATM   24  O   UNL     1       4.688  30.706  47.531  1.00  0.00    -0.359 OA
HETATM   25  H   UNL     1       4.798  29.751  47.749  1.00  0.00     0.218 HD
ENDBRANCH  21  24
ENDBRANCH  12  13
BRANCH  12  26
HETATM   26  C   UNL     1       3.043  27.812  48.706  1.00  0.00    -0.049 A 
HETATM   27  C   UNL     1       4.177  27.008  48.471  1.00  0.00     0.008 A 
HETATM   28  C   UNL     1       4.096  25.850  47.693  1.00  0.00     0.001 A 
HETATM   29  C   UNL     1       2.880  25.466  47.143  1.00  0.00     0.000 A 
HETATM   30  C   UNL     1       1.743  26.231  47.382  1.00  0.00     0.001 A 
HETATM   31  C   UNL     1       1.823  27.389  48.161  1.00  0.00     0.008 A 
ENDBRANCH  12  26
ENDBRANCH  11  12
BRANCH  11  32
HETATM   32  C   UNL     1       4.421  28.179  51.695  1.00  0.00     0.246 C 
BRANCH  32  33
HETATM   33  N   UNL     1       5.742  27.498  52.025  1.00  0.00    -0.070 N 
HETATM   34  H   UNL     1       6.461  27.863  51.363  1.00  0.00     0.279 HD
HETATM   35  C   UNL     1       6.210  27.727  53.440  1.00  0.00     0.235 C 
HETATM   36  C   UNL     1       7.546  27.040  53.682  1.00  0.00     0.028 C 
HETATM   37  C   UNL     1       7.494  25.558  53.344  1.00  0.00     0.003 C 
HETATM   38  C   UNL     1       7.009  25.352  51.916  1.00  0.00     0.028 C 
HETATM   39  C   UNL     1       5.661  26.018  51.687  1.00  0.00     0.235 C 
ENDBRANCH  32  33
ENDBRANCH  11  32
ENDBRANCH   9  11
ENDBRANCH   5   8
ENDBRANCH   1   4
TORSDOF 9
ENDMDL
MODEL 7
REMARK VINA RESULT:      -6.7      5.080      9.082
REMARK  9 active torsions:
REMARK  status: ('A' for Active; 'I' for Inactive)
REMARK    1  A    between atoms: C_2  and  C_3 
REMARK    2  A    between atoms: C_3  and  C_4 
REMARK    3  A    between atoms: C_3  and  C_23 
REMARK    4  A    between atoms: C_4  and  C_5 
REMARK    5  A    between atoms: C_4  and  C_17 
REMARK    6  A    between atoms: C_15  and  O_16 
REMARK    7  A    between atoms: C_23  and  N_24 
REMARK    8  A    between atoms: N_31  and  N_32 
REMARK       I    between atoms: N_32  and  C_33 
REMARK    9  A    between atoms: C_33  and  C_34 
ROOT
HETATM    1  C   UNL     1      -0.601  33.531  52.463  1.00  0.00     0.213 C 
HETATM    2  C   UNL     1      -1.872  32.701  52.386  1.00  0.00    -0.011 C 
HETATM    3  N   UNL     1      -2.927  32.012  52.322  1.00  0.00    -0.101 N 
ENDROOT
BRANCH   1   4
HETATM    4  C   UNL     1       0.464  32.931  51.567  1.00  0.00     0.249 C 
HETATM    5  N   UNL     1       1.517  32.293  52.211  1.00  0.00    -0.246 N 
HETATM    6  H   UNL     1       1.621  32.312  53.224  1.00  0.00     0.192 HD
HETATM    7  O   UNL     1       0.435  33.073  50.341  1.00  0.00    -0.271 OA
BRANCH   5   8
HETATM    8  N   UNL     1       2.364  31.535  51.469  1.00  0.00    -0.181 NA
HETATM    9  C   UNL     1       3.272  30.825  52.063  1.00  0.00     0.035 C 
HETATM   10  C   UNL     1       3.488  30.785  53.560  1.00  0.00     0.068 C 
BRANCH   9  11
HETATM   11  C   UNL     1       4.116  29.895  51.193  1.00  0.00     0.074 C 
BRANCH  11  12
HETATM   12  C   UNL     1       3.795  29.929  49.664  1.00  0.00     0.072 C 
BRANCH  12  13
HETATM   13  C   UNL     1       4.335  31.101  48.837  1.00  0.00     0.061 C 
HETATM   14  C   UNL     1       3.351  31.692  47.886  1.00  0.00     0.298 C 
HETATM   15  O   UNL     1       2.161  31.374  47.957  1.00  0.00    -0.259 OA
HETATM   16  O   UNL     1       3.768  32.663  47.000  1.00  0.00    -0.274 OA
HETATM   17  C   UNL     1       5.064  33.194  47.069  1.00  0.00     0.092 A 
HETATM   18  C   UNL     1       5.974  32.734  48.013  1.00  0.00     0.032 A 
HETATM   19  C   UNL     1       5.384  34.202  46.158  1.00  0.00     0.038 A 
HETATM   20  C   UNL     1       7.254  33.303  48.024  1.00  0.00     0.017 A 
HETATM   21  C   UNL     1       5.559  31.651  48.907  1.00  0.00     0.091 C 
HETATM   22  C   UNL     1       7.591  34.316  47.119  1.00  0.00     0.001 A 
HETATM   23  C   UNL     1       6.657  34.766  46.188  1.00  0.00     0.003 A 
BRANCH  21  24
HETATM   24  O   UNL     1       6.486  31.246  49.836  1.00  0.00    -0.359 OA
HETATM   25  H   UNL     1       6.688  32.030  50.399  1.00  0.00     0.218 HD
ENDBRANCH  21  24
ENDBRANCH  12  13
BRANCH  12  26
HETATM   26  C   UNL     1       3.834  28.574  48.948  1.00  0.00    -0.049 A 
HETATM   27  C   UNL     1       2.631  27.861  48.770  1.00  0.00     0.008 A 
HETATM   28  C   UNL     1       2.611  26.619  48.132  1.00  0.00     0.001 A 
HETATM   29  C   UNL     1       3.790  26.067  47.649  1.00  0.00     0.000 A 
HETATM   30  C   UNL     1       4.986  26.762  47.792  1.00  0.00     0.001 A 
HETATM   31  C   UNL     1       5.006  28.007  48.429  1.00  0.00     0.008 A 
ENDBRANCH  12  26
ENDBRANCH  11  12
BRANCH  11  32
HETATM   32  C   UNL     1       3.999  28.503  51.852  1.00  0.00     0.246 C 
BRANCH  32  33
HETATM   33  N   UNL     1       5.319  27.773  52.056  1.00  0.00    -0.070 N 
HETATM   34  H   UNL     1       5.998  28.145  51.357  1.00  0.00     0.279 HD
HETATM   35  C   UNL     1       5.897  27.933  53.441  1.00  0.00     0.235 C 
HETATM   36  C   UNL     1       7.226  27.201  53.556  1.00  0.00     0.028 C 
HETATM   37  C   UNL     1       7.104  25.736  53.167  1.00  0.00     0.003 C 
HETATM   38  C   UNL     1       6.509  25.599  51.774  1.00  0.00     0.028 C 
HETATM   39  C   UNL     1       5.168  26.310  51.671  1.00  0.00     0.235 C 
ENDBRANCH  32  33
ENDBRANCH  11  32
ENDBRANCH   9  11
ENDBRANCH   5   8
ENDBRANCH   1   4
TORSDOF 9
ENDMDL
MODEL 8
REMARK VINA RESULT:      -6.7      5.004      8.567
REMARK  9 active torsions:
REMARK  status: ('A' for Active; 'I' for Inactive)
REMARK    1  A    between atoms: C_2  and  C_3 
REMARK    2  A    between atoms: C_3  and  C_4 
REMARK    3  A    between atoms: C_3  and  C_23 
REMARK    4  A    between atoms: C_4  and  C_5 
REMARK    5  A    between atoms: C_4  and  C_17 
REMARK    6  A    between atoms: C_15  and  O_16 
REMARK    7  A    between atoms: C_23  and  N_24 
REMARK    8  A    between atoms: N_31  and  N_32 
REMARK       I    between atoms: N_32  and  C_33 
REMARK    9  A    between atoms: C_33  and  C_34 
ROOT
HETATM    1  C   UNL     1       3.514  30.414  54.849  1.00  0.00     0.213 C 
HETATM    2  C   UNL     1       4.164  29.115  55.301  1.00  0.00    -0.011 C 
HETATM    3  N   UNL     1       4.702  28.038  55.676  1.00  0.00    -0.101 N 
ENDROOT
BRANCH   1   4
HETATM    4  C   UNL     1       3.768  30.631  53.371  1.00  0.00     0.249 C 
HETATM    5  N   UNL     1       3.612  31.933  52.909  1.00  0.00    -0.246 N 
HETATM    6  H   UNL     1       3.255  32.678  53.504  1.00  0.00     0.192 HD
HETATM    7  O   UNL     1       4.017  29.691  52.611  1.00  0.00    -0.271 OA
BRANCH   5   8
HETATM    8  N   UNL     1       4.055  32.232  51.661  1.00  0.00    -0.181 NA
HETATM    9  C   UNL     1       3.214  32.657  50.770  1.00  0.00     0.035 C 
HETATM   10  C   UNL     1       1.730  32.832  51.006  1.00  0.00     0.068 C 
BRANCH   9  11
HETATM   11  C   UNL     1       3.782  33.097  49.422  1.00  0.00     0.074 C 
BRANCH  11  12
HETATM   12  C   UNL     1       4.924  32.199  48.848  1.00  0.00     0.072 C 
BRANCH  12  13
HETATM   13  C   UNL     1       4.654  30.699  48.687  1.00  0.00     0.061 C 
HETATM   14  C   UNL     1       5.629  29.816  49.389  1.00  0.00     0.298 C 
HETATM   15  O   UNL     1       6.429  30.303  50.192  1.00  0.00    -0.259 OA
HETATM   16  O   UNL     1       5.559  28.451  49.204  1.00  0.00    -0.274 OA
HETATM   17  C   UNL     1       4.509  27.875  48.475  1.00  0.00     0.092 A 
HETATM   18  C   UNL     1       3.526  28.667  47.893  1.00  0.00     0.032 A 
HETATM   19  C   UNL     1       4.497  26.484  48.375  1.00  0.00     0.038 A 
HETATM   20  C   UNL     1       2.508  28.028  47.173  1.00  0.00     0.017 A 
HETATM   21  C   UNL     1       3.638  30.121  48.024  1.00  0.00     0.091 C 
HETATM   22  C   UNL     1       2.481  26.633  47.064  1.00  0.00     0.001 A 
HETATM   23  C   UNL     1       3.473  25.862  47.666  1.00  0.00     0.003 A 
BRANCH  21  24
HETATM   24  O   UNL     1       2.631  30.859  47.450  1.00  0.00    -0.359 OA
HETATM   25  H   UNL     1       2.809  30.878  46.481  1.00  0.00     0.218 HD
ENDBRANCH  21  24
ENDBRANCH  12  13
BRANCH  12  26
HETATM   26  C   UNL     1       5.752  32.821  47.716  1.00  0.00    -0.049 A 
HETATM   27  C   UNL     1       5.216  32.841  46.412  1.00  0.00     0.008 A 
HETATM   28  C   UNL     1       5.930  33.388  45.343  1.00  0.00     0.001 A 
HETATM   29  C   UNL     1       7.189  33.934  45.555  1.00  0.00     0.000 A 
HETATM   30  C   UNL     1       7.728  33.946  46.838  1.00  0.00     0.001 A 
HETATM   31  C   UNL     1       7.013  33.401  47.908  1.00  0.00     0.008 A 
ENDBRANCH  12  26
ENDBRANCH  11  12
BRANCH  11  32
HETATM   32  C   UNL     1       4.153  34.586  49.604  1.00  0.00     0.246 C 
BRANCH  32  33
HETATM   33  N   UNL     1       4.740  34.942  50.962  1.00  0.00    -0.070 N 
HETATM   34  H   UNL     1       4.446  34.205  51.638  1.00  0.00     0.279 HD
HETATM   35  C   UNL     1       6.245  35.047  50.968  1.00  0.00     0.235 C 
HETATM   36  C   UNL     1       6.756  35.377  52.363  1.00  0.00     0.028 C 
HETATM   37  C   UNL     1       6.106  36.633  52.924  1.00  0.00     0.003 C 
HETATM   38  C   UNL     1       4.590  36.508  52.898  1.00  0.00     0.028 C 
HETATM   39  C   UNL     1       4.083  36.205  51.496  1.00  0.00     0.235 C 
ENDBRANCH  32  33
ENDBRANCH  11  32
ENDBRANCH   9  11
ENDBRANCH   5   8
ENDBRANCH   1   4
TORSDOF 9
ENDMDL
MODEL 9
REMARK VINA RESULT:      -6.6      4.346      8.542
REMARK  9 active torsions:
REMARK  status: ('A' for Active; 'I' for Inactive)
REMARK    1  A    between atoms: C_2  and  C_3 
REMARK    2  A    between atoms: C_3  and  C_4 
REMARK    3  A    between atoms: C_3  and  C_23 
REMARK    4  A    between atoms: C_4  and  C_5 
REMARK    5  A    between atoms: C_4  and  C_17 
REMARK    6  A    between atoms: C_15  and  O_16 
REMARK    7  A    between atoms: C_23  and  N_24 
REMARK    8  A    between atoms: N_31  and  N_32 
REMARK       I    between atoms: N_32  and  C_33 
REMARK    9  A    between atoms: C_33  and  C_34 
ROOT
HETATM    1  C   UNL     1       2.384  33.437  55.492  1.00  0.00     0.213 C 
HETATM    2  C   UNL     1       1.087  33.578  54.712  1.00  0.00    -0.011 C 
HETATM    3  N   UNL     1       0.011  33.695  54.065  1.00  0.00    -0.101 N 
ENDROOT
BRANCH   1   4
HETATM    4  C   UNL     1       3.292  32.434  54.809  1.00  0.00     0.249 C 
HETATM    5  N   UNL     1       2.665  31.335  54.234  1.00  0.00    -0.246 N 
HETATM    6  H   UNL     1       1.669  31.161  54.348  1.00  0.00     0.192 HD
HETATM    7  O   UNL     1       4.521  32.549  54.835  1.00  0.00    -0.271 OA
BRANCH   5   8
HETATM    8  N   UNL     1       3.391  30.538  53.408  1.00  0.00    -0.181 NA
HETATM    9  C   UNL     1       3.145  30.546  52.135  1.00  0.00     0.035 C 
HETATM   10  C   UNL     1       2.070  31.381  51.474  1.00  0.00     0.068 C 
BRANCH   9  11
HETATM   11  C   UNL     1       4.070  29.728  51.236  1.00  0.00     0.074 C 
BRANCH  11  12
HETATM   12  C   UNL     1       3.775  29.823  49.704  1.00  0.00     0.072 C 
BRANCH  12  13
HETATM   13  C   UNL     1       4.394  30.985  48.919  1.00  0.00     0.061 C 
HETATM   14  C   UNL     1       3.526  31.531  47.837  1.00  0.00     0.298 C 
HETATM   15  O   UNL     1       2.343  31.190  47.769  1.00  0.00    -0.259 OA
HETATM   16  O   UNL     1       4.033  32.489  46.984  1.00  0.00    -0.274 OA
HETATM   17  C   UNL     1       5.301  33.048  47.198  1.00  0.00     0.092 A 
HETATM   18  C   UNL     1       6.094  32.630  48.261  1.00  0.00     0.032 A 
HETATM   19  C   UNL     1       5.715  34.039  46.308  1.00  0.00     0.038 A 
HETATM   20  C   UNL     1       7.353  33.226  48.415  1.00  0.00     0.017 A 
HETATM   21  C   UNL     1       5.590  31.562  49.126  1.00  0.00     0.091 C 
HETATM   22  C   UNL     1       7.782  34.223  47.532  1.00  0.00     0.001 A 
HETATM   23  C   UNL     1       6.964  34.630  46.480  1.00  0.00     0.003 A 
BRANCH  21  24
HETATM   24  O   UNL     1       6.401  31.199  50.173  1.00  0.00    -0.359 OA
HETATM   25  H   UNL     1       5.924  31.442  51.001  1.00  0.00     0.218 HD
ENDBRANCH  21  24
ENDBRANCH  12  13
BRANCH  12  26
HETATM   26  C   UNL     1       3.750  28.488  48.949  1.00  0.00    -0.049 A 
HETATM   27  C   UNL     1       4.961  27.957  48.462  1.00  0.00     0.008 A 
HETATM   28  C   UNL     1       4.994  26.748  47.762  1.00  0.00     0.001 A 
HETATM   29  C   UNL     1       3.818  26.041  47.541  1.00  0.00     0.000 A 
HETATM   30  C   UNL     1       2.615  26.535  48.033  1.00  0.00     0.001 A 
HETATM   31  C   UNL     1       2.582  27.743  48.736  1.00  0.00     0.008 A 
ENDBRANCH  12  26
ENDBRANCH  11  12
BRANCH  11  32
HETATM   32  C   UNL     1       4.041  28.297  51.817  1.00  0.00     0.246 C 
BRANCH  32  33
HETATM   33  N   UNL     1       4.982  28.059  52.989  1.00  0.00    -0.070 N 
HETATM   34  H   UNL     1       4.899  28.874  53.634  1.00  0.00     0.279 HD
HETATM   35  C   UNL     1       4.695  26.791  53.755  1.00  0.00     0.235 C 
HETATM   36  C   UNL     1       5.657  26.640  54.924  1.00  0.00     0.028 C 
HETATM   37  C   UNL     1       7.110  26.705  54.477  1.00  0.00     0.003 C 
HETATM   38  C   UNL     1       7.373  27.986  53.698  1.00  0.00     0.028 C 
HETATM   39  C   UNL     1       6.426  28.120  52.515  1.00  0.00     0.235 C 
ENDBRANCH  32  33
ENDBRANCH  11  32
ENDBRANCH   9  11
ENDBRANCH   5   8
ENDBRANCH   1   4
TORSDOF 9
ENDMDL
MODEL 10
REMARK VINA RESULT:      -6.5      4.674      7.759
REMARK  9 active torsions:
REMARK  status: ('A' for Active; 'I' for Inactive)
REMARK    1  A    between atoms: C_2  and  C_3 
REMARK    2  A    between atoms: C_3  and  C_4 
REMARK    3  A    between atoms: C_3  and  C_23 
REMARK    4  A    between atoms: C_4  and  C_5 
REMARK    5  A    between atoms: C_4  and  C_17 
REMARK    6  A    between atoms: C_15  and  O_16 
REMARK    7  A    between atoms: C_23  and  N_24 
REMARK    8  A    between atoms: N_31  and  N_32 
REMARK       I    between atoms: N_32  and  C_33 
REMARK    9  A    between atoms: C_33  and  C_34 
ROOT
HETATM    1  C   UNL     1      -1.766  32.811  50.626  1.00  0.00     0.213 C 
HETATM    2  C   UNL     1      -2.410  32.659  51.995  1.00  0.00    -0.011 C 
HETATM    3  N   UNL     1      -2.945  32.533  53.130  1.00  0.00    -0.101 N 
ENDROOT
BRANCH   1   4
HETATM    4  C   UNL     1      -0.408  32.139  50.616  1.00  0.00     0.249 C 
HETATM    5  N   UNL     1       0.545  32.674  51.474  1.00  0.00    -0.246 N 
HETATM    6  H   UNL     1       0.376  33.526  52.005  1.00  0.00     0.192 HD
HETATM    7  O   UNL     1      -0.145  31.222  49.832  1.00  0.00    -0.271 OA
BRANCH   5   8
HETATM    8  N   UNL     1       1.689  31.973  51.685  1.00  0.00    -0.181 NA
HETATM    9  C   UNL     1       2.805  32.610  51.857  1.00  0.00     0.035 C 
HETATM   10  C   UNL     1       2.948  34.116  51.819  1.00  0.00     0.068 C 
BRANCH   9  11
HETATM   11  C   UNL     1       4.038  31.782  52.215  1.00  0.00     0.074 C 
BRANCH  11  12
HETATM   12  C   UNL     1       4.861  31.243  51.001  1.00  0.00     0.072 C 
BRANCH  12  13
HETATM   13  C   UNL     1       4.461  29.892  50.398  1.00  0.00     0.061 C 
HETATM   14  C   UNL     1       5.367  28.764  50.754  1.00  0.00     0.298 C 
HETATM   15  O   UNL     1       6.217  28.914  51.635  1.00  0.00    -0.259 OA
HETATM   16  O   UNL     1       5.178  27.533  50.161  1.00  0.00    -0.274 OA
HETATM   17  C   UNL     1       4.072  27.294  49.333  1.00  0.00     0.092 A 
HETATM   18  C   UNL     1       3.152  28.300  49.063  1.00  0.00     0.032 A 
HETATM   19  C   UNL     1       3.939  26.007  48.810  1.00  0.00     0.038 A 
HETATM   20  C   UNL     1       2.073  27.996  48.222  1.00  0.00     0.017 A 
HETATM   21  C   UNL     1       3.390  29.629  49.630  1.00  0.00     0.091 C 
HETATM   22  C   UNL     1       1.925  26.710  47.691  1.00  0.00     0.001 A 
HETATM   23  C   UNL     1       2.856  25.716  47.985  1.00  0.00     0.003 A 
BRANCH  21  24
HETATM   24  O   UNL     1       2.442  30.583  49.352  1.00  0.00    -0.359 OA
HETATM   25  H   UNL     1       1.646  30.107  49.018  1.00  0.00     0.218 HD
ENDBRANCH  21  24
ENDBRANCH  12  13
BRANCH  12  26
HETATM   26  C   UNL     1       5.293  32.296  49.973  1.00  0.00    -0.049 A 
HETATM   27  C   UNL     1       5.974  33.446  50.420  1.00  0.00     0.008 A 
HETATM   28  C   UNL     1       6.383  34.440  49.527  1.00  0.00     0.001 A 
HETATM   29  C   UNL     1       6.128  34.302  48.168  1.00  0.00     0.000 A 
HETATM   30  C   UNL     1       5.478  33.164  47.702  1.00  0.00     0.001 A 
HETATM   31  C   UNL     1       5.071  32.169  48.595  1.00  0.00     0.008 A 
ENDBRANCH  12  26
ENDBRANCH  11  12
BRANCH  11  32
HETATM   32  C   UNL     1       3.531  30.698  53.191  1.00  0.00     0.246 C 
BRANCH  32  33
HETATM   33  N   UNL     1       4.587  30.129  54.128  1.00  0.00    -0.070 N 
HETATM   34  H   UNL     1       5.489  30.095  53.605  1.00  0.00     0.279 HD
HETATM   35  C   UNL     1       4.778  30.930  55.392  1.00  0.00     0.235 C 
HETATM   36  C   UNL     1       5.866  30.315  56.259  1.00  0.00     0.028 C 
HETATM   37  C   UNL     1       5.593  28.850  56.562  1.00  0.00     0.003 C 
HETATM   38  C   UNL     1       5.393  28.065  55.273  1.00  0.00     0.028 C 
HETATM   39  C   UNL     1       4.286  28.668  54.423  1.00  0.00     0.235 C 
ENDBRANCH  32  33
ENDBRANCH  11  32
ENDBRANCH   9  11
ENDBRANCH   5   8
ENDBRANCH   1   4
TORSDOF 9
ENDMDL
