MODEL 1
REMARK VINA RESULT:     -10.5      0.000      0.000
REMARK  7 active torsions:
REMARK  status: ('A' for Active; 'I' for Inactive)
REMARK    1  A    between atoms: C_2  and  C_3 
REMARK    2  A    between atoms: C_6  and  C_7 
REMARK    3  A    between atoms: N_8  and  N_9 
REMARK    4  A    between atoms: C_20  and  C_21 
REMARK       I    between atoms: C_21  and  N_22 
REMARK    5  A    between atoms: N_22  and  C_23 
REMARK    6  A    between atoms: C_23  and  C_24 
REMARK    7  A    between atoms: C_30  and  N_31 
ROOT
HETATM    1  N   UNL     1       6.896  28.948  56.072  1.00  0.00    -0.202 N 
HETATM    2  C   UNL     1       5.939  29.944  56.043  1.00  0.00     0.183 A 
HETATM    3  C   UNL     1       6.144  30.740  57.171  1.00  0.00     0.124 A 
HETATM    4  N   UNL     1       5.292  31.754  57.471  1.00  0.00    -0.242 NA
HETATM    5  C   UNL     1       4.315  31.962  56.578  1.00  0.00     0.086 A 
HETATM    6  C   UNL     1       4.149  31.158  55.419  1.00  0.00     0.088 A 
HETATM    7  N   UNL     1       4.944  30.111  55.138  1.00  0.00    -0.225 NA
HETATM    8  C   UNL     1       3.435  33.012  56.802  1.00  0.00     0.034 A 
HETATM    9  C   UNL     1       2.403  33.304  55.909  1.00  0.00     0.002 A 
HETATM   10  C   UNL     1       2.249  32.530  54.768  1.00  0.00     0.002 A 
HETATM   11  C   UNL     1       3.120  31.464  54.537  1.00  0.00     0.034 A 
HETATM   12  C   UNL     1       7.276  30.239  57.873  1.00  0.00     0.104 C 
HETATM   13  C   UNL     1       7.835  29.281  57.040  1.00  0.00     0.123 C 
ENDROOT
BRANCH   1  14
HETATM   14  N   UNL     1       6.986  27.723  55.468  1.00  0.00    -0.176 NA
HETATM   15  C   UNL     1       6.112  26.841  55.825  1.00  0.00     0.150 C 
BRANCH  15  16
HETATM   16  C   UNL     1       6.401  25.407  55.586  1.00  0.00    -0.017 A 
HETATM   17  C   UNL     1       6.266  24.877  54.301  1.00  0.00     0.013 A 
HETATM   18  C   UNL     1       6.798  23.623  53.995  1.00  0.00     0.009 A 
HETATM   19  C   UNL     1       7.478  22.869  54.965  1.00  0.00    -0.051 A 
HETATM   20  C   UNL     1       7.530  23.390  56.275  1.00  0.00     0.009 A 
HETATM   21  C   UNL     1       7.008  24.653  56.585  1.00  0.00     0.013 A 
BRANCH  19  22
HETATM   22  C   UNL     1       8.167  21.534  54.625  1.00  0.00    -0.024 C 
HETATM   23  C   UNL     1       7.837  21.008  53.207  1.00  0.00     0.019 C 
HETATM   24  C   UNL     1       7.721  20.466  55.640  1.00  0.00     0.019 C 
HETATM   25  C   UNL     1       9.704  21.691  54.687  1.00  0.00     0.019 C 
ENDBRANCH  19  22
ENDBRANCH  15  16
ENDBRANCH   1  14
BRANCH  13  26
HETATM   26  N   UNL     1       8.999  28.565  57.147  1.00  0.00    -0.286 NA
HETATM   27  H   UNL     1       8.981  27.839  57.872  1.00  0.00     0.125 HD
HETATM   28  H   UNL     1       9.388  28.186  56.282  1.00  0.00     0.125 HD
ENDBRANCH  13  26
BRANCH  12  29
HETATM   29  C   UNL     1       7.728  30.567  59.222  1.00  0.00     0.257 C 
HETATM   30  N   UNL     1       7.032  31.628  59.767  1.00  0.00    -0.354 N 
HETATM   31  H   UNL     1       6.309  32.035  59.180  1.00  0.00     0.162 HD
HETATM   32  O   UNL     1       8.674  30.022  59.773  1.00  0.00    -0.267 OA
BRANCH  30  33
HETATM   33  C   UNL     1       7.462  32.393  60.920  1.00  0.00     0.155 C 
BRANCH  33  34
HETATM   34  C   UNL     1       7.118  31.763  62.282  1.00  0.00     0.139 C 
HETATM   35  O   UNL     1       5.734  32.012  62.591  1.00  0.00    -0.384 OA
HETATM   36  C   UNL     1       5.652  32.733  63.824  1.00  0.00     0.168 C 
HETATM   37  C   UNL     1       7.026  33.303  64.087  1.00  0.00     0.029 C 
HETATM   38  C   UNL     1       7.928  32.260  63.474  1.00  0.00     0.035 C 
ENDBRANCH  33  34
ENDBRANCH  30  33
ENDBRANCH  12  29
TORSDOF 7
ENDMDL
MODEL 2
REMARK VINA RESULT:     -10.4      3.967      8.356
REMARK  7 active torsions:
REMARK  status: ('A' for Active; 'I' for Inactive)
REMARK    1  A    between atoms: C_2  and  C_3 
REMARK    2  A    between atoms: C_6  and  C_7 
REMARK    3  A    between atoms: N_8  and  N_9 
REMARK    4  A    between atoms: C_20  and  C_21 
REMARK       I    between atoms: C_21  and  N_22 
REMARK    5  A    between atoms: N_22  and  C_23 
REMARK    6  A    between atoms: C_23  and  C_24 
REMARK    7  A    between atoms: C_30  and  N_31 
ROOT
HETATM    1  N   UNL     1       5.618  25.703  54.281  1.00  0.00    -0.202 N 
HETATM    2  C   UNL     1       6.418  24.582  54.400  1.00  0.00     0.183 A 
HETATM    3  C   UNL     1       7.085  24.685  55.621  1.00  0.00     0.124 A 
HETATM    4  N   UNL     1       8.024  23.771  55.979  1.00  0.00    -0.242 NA
HETATM    5  C   UNL     1       8.192  22.757  55.119  1.00  0.00     0.086 A 
HETATM    6  C   UNL     1       7.473  22.659  53.898  1.00  0.00     0.088 A 
HETATM    7  N   UNL     1       6.586  23.586  53.497  1.00  0.00    -0.225 NA
HETATM    8  C   UNL     1       9.106  21.764  55.446  1.00  0.00     0.034 A 
HETATM    9  C   UNL     1       9.322  20.667  54.612  1.00  0.00     0.002 A 
HETATM   10  C   UNL     1       8.610  20.561  53.426  1.00  0.00     0.002 A 
HETATM   11  C   UNL     1       7.697  21.558  53.080  1.00  0.00     0.034 A 
HETATM   12  C   UNL     1       6.647  25.871  56.273  1.00  0.00     0.104 C 
HETATM   13  C   UNL     1       5.584  26.340  55.516  1.00  0.00     0.123 C 
ENDROOT
BRANCH   1  14
HETATM   14  N   UNL     1       5.028  26.319  53.211  1.00  0.00    -0.176 NA
HETATM   15  C   UNL     1       5.465  25.983  52.043  1.00  0.00     0.150 C 
BRANCH  15  16
HETATM   16  C   UNL     1       5.228  26.894  50.897  1.00  0.00    -0.017 A 
HETATM   17  C   UNL     1       4.721  26.384  49.700  1.00  0.00     0.013 A 
HETATM   18  C   UNL     1       4.226  27.247  48.720  1.00  0.00     0.009 A 
HETATM   19  C   UNL     1       4.224  28.637  48.913  1.00  0.00    -0.051 A 
HETATM   20  C   UNL     1       4.814  29.130  50.096  1.00  0.00     0.009 A 
HETATM   21  C   UNL     1       5.302  28.270  51.088  1.00  0.00     0.013 A 
BRANCH  19  22
HETATM   22  C   UNL     1       3.585  29.601  47.896  1.00  0.00    -0.024 C 
HETATM   23  C   UNL     1       4.595  30.200  46.888  1.00  0.00     0.019 C 
HETATM   24  C   UNL     1       2.927  30.768  48.654  1.00  0.00     0.019 C 
HETATM   25  C   UNL     1       2.514  28.866  47.057  1.00  0.00     0.019 C 
ENDBRANCH  19  22
ENDBRANCH  15  16
ENDBRANCH   1  14
BRANCH  13  26
HETATM   26  N   UNL     1       4.710  27.372  55.735  1.00  0.00    -0.286 NA
HETATM   27  H   UNL     1       4.666  28.056  54.972  1.00  0.00     0.125 HD
HETATM   28  H   UNL     1       3.766  27.120  56.035  1.00  0.00     0.125 HD
ENDBRANCH  13  26
BRANCH  12  29
HETATM   29  C   UNL     1       7.227  26.536  57.436  1.00  0.00     0.257 C 
HETATM   30  N   UNL     1       7.087  27.910  57.381  1.00  0.00    -0.354 N 
HETATM   31  H   UNL     1       6.609  28.275  56.562  1.00  0.00     0.162 HD
HETATM   32  O   UNL     1       7.843  25.953  58.317  1.00  0.00    -0.267 OA
BRANCH  30  33
HETATM   33  C   UNL     1       7.836  28.850  58.190  1.00  0.00     0.155 C 
BRANCH  33  34
HETATM   34  C   UNL     1       8.526  29.978  57.401  1.00  0.00     0.139 C 
HETATM   35  O   UNL     1       8.740  29.552  56.042  1.00  0.00    -0.384 OA
HETATM   36  C   UNL     1      10.140  29.603  55.751  1.00  0.00     0.168 C 
HETATM   37  C   UNL     1      10.859  29.673  57.078  1.00  0.00     0.029 C 
HETATM   38  C   UNL     1       9.878  30.438  57.933  1.00  0.00     0.035 C 
ENDBRANCH  33  34
ENDBRANCH  30  33
ENDBRANCH  12  29
TORSDOF 7
ENDMDL
MODEL 3
REMARK VINA RESULT:     -10.1      3.901     10.084
REMARK  7 active torsions:
REMARK  status: ('A' for Active; 'I' for Inactive)
REMARK    1  A    between atoms: C_2  and  C_3 
REMARK    2  A    between atoms: C_6  and  C_7 
REMARK    3  A    between atoms: N_8  and  N_9 
REMARK    4  A    between atoms: C_20  and  C_21 
REMARK       I    between atoms: C_21  and  N_22 
REMARK    5  A    between atoms: N_22  and  C_23 
REMARK    6  A    between atoms: C_23  and  C_24 
REMARK    7  A    between atoms: C_30  and  N_31 
ROOT
HETATM    1  N   UNL     1       6.680  27.272  54.077  1.00  0.00    -0.202 N 
HETATM    2  C   UNL     1       7.121  25.965  53.999  1.00  0.00     0.183 A 
HETATM    3  C   UNL     1       6.783  25.496  52.730  1.00  0.00     0.124 A 
HETATM    4  N   UNL     1       7.002  24.201  52.385  1.00  0.00    -0.242 NA
HETATM    5  C   UNL     1       7.620  23.460  53.315  1.00  0.00     0.086 A 
HETATM    6  C   UNL     1       7.984  23.972  54.588  1.00  0.00     0.088 A 
HETATM    7  N   UNL     1       7.719  25.233  54.970  1.00  0.00    -0.225 NA
HETATM    8  C   UNL     1       7.914  22.137  53.011  1.00  0.00     0.034 A 
HETATM    9  C   UNL     1       8.572  21.307  53.919  1.00  0.00     0.002 A 
HETATM   10  C   UNL     1       8.943  21.810  55.157  1.00  0.00     0.002 A 
HETATM   11  C   UNL     1       8.643  23.134  55.481  1.00  0.00     0.034 A 
HETATM   12  C   UNL     1       6.163  26.556  52.010  1.00  0.00     0.104 C 
HETATM   13  C   UNL     1       6.328  27.685  52.798  1.00  0.00     0.123 C 
ENDROOT
BRANCH   1  14
HETATM   14  N   UNL     1       6.414  28.106  55.130  1.00  0.00    -0.176 NA
HETATM   15  C   UNL     1       7.395  28.836  55.546  1.00  0.00     0.150 C 
BRANCH  15  16
HETATM   16  C   UNL     1       7.340  29.400  56.916  1.00  0.00    -0.017 A 
HETATM   17  C   UNL     1       8.319  29.053  57.849  1.00  0.00     0.013 A 
HETATM   18  C   UNL     1       8.453  29.780  59.034  1.00  0.00     0.009 A 
HETATM   19  C   UNL     1       7.615  30.870  59.314  1.00  0.00    -0.051 A 
HETATM   20  C   UNL     1       6.583  31.149  58.394  1.00  0.00     0.009 A 
HETATM   21  C   UNL     1       6.449  30.432  57.198  1.00  0.00     0.013 A 
BRANCH  19  22
HETATM   22  C   UNL     1       7.813  31.752  60.561  1.00  0.00    -0.024 C 
HETATM   23  C   UNL     1       8.008  30.947  61.868  1.00  0.00     0.019 C 
HETATM   24  C   UNL     1       6.577  32.652  60.741  1.00  0.00     0.019 C 
HETATM   25  C   UNL     1       9.071  32.636  60.399  1.00  0.00     0.019 C 
ENDBRANCH  19  22
ENDBRANCH  15  16
ENDBRANCH   1  14
BRANCH  13  26
HETATM   26  N   UNL     1       6.040  29.003  52.554  1.00  0.00    -0.286 NA
HETATM   27  H   UNL     1       6.416  29.358  51.668  1.00  0.00     0.125 HD
HETATM   28  H   UNL     1       5.065  29.289  52.660  1.00  0.00     0.125 HD
ENDBRANCH  13  26
BRANCH  12  29
HETATM   29  C   UNL     1       5.419  26.491  50.755  1.00  0.00     0.257 C 
HETATM   30  N   UNL     1       5.725  27.537  49.907  1.00  0.00    -0.354 N 
HETATM   31  H   UNL     1       6.412  28.203  50.251  1.00  0.00     0.162 HD
HETATM   32  O   UNL     1       4.559  25.655  50.517  1.00  0.00    -0.267 OA
BRANCH  30  33
HETATM   33  C   UNL     1       4.927  27.936  48.765  1.00  0.00     0.155 C 
BRANCH  33  34
HETATM   34  C   UNL     1       4.067  29.194  48.983  1.00  0.00     0.139 C 
HETATM   35  O   UNL     1       4.060  29.536  50.382  1.00  0.00    -0.384 OA
HETATM   36  C   UNL     1       2.712  29.526  50.860  1.00  0.00     0.168 C 
HETATM   37  C   UNL     1       1.894  28.767  49.841  1.00  0.00     0.029 C 
HETATM   38  C   UNL     1       2.608  29.091  48.551  1.00  0.00     0.035 C 
ENDBRANCH  33  34
ENDBRANCH  30  33
ENDBRANCH  12  29
TORSDOF 7
ENDMDL
MODEL 4
REMARK VINA RESULT:     -10.0      4.468      6.653
REMARK  7 active torsions:
REMARK  status: ('A' for Active; 'I' for Inactive)
REMARK    1  A    between atoms: C_2  and  C_3 
REMARK    2  A    between atoms: C_6  and  C_7 
REMARK    3  A    between atoms: N_8  and  N_9 
REMARK    4  A    between atoms: C_20  and  C_21 
REMARK       I    between atoms: C_21  and  N_22 
REMARK    5  A    between atoms: N_22  and  C_23 
REMARK    6  A    between atoms: C_23  and  C_24 
REMARK    7  A    between atoms: C_30  and  N_31 
ROOT
HETATM    1  N   UNL     1       5.743  27.161  51.366  1.00  0.00    -0.202 N 
HETATM    2  C   UNL     1       4.761  27.234  50.396  1.00  0.00     0.183 A 
HETATM    3  C   UNL     1       4.006  28.376  50.665  1.00  0.00     0.124 A 
HETATM    4  N   UNL     1       2.899  28.666  49.934  1.00  0.00    -0.242 NA
HETATM    5  C   UNL     1       2.648  27.827  48.920  1.00  0.00     0.086 A 
HETATM    6  C   UNL     1       3.453  26.689  48.647  1.00  0.00     0.088 A 
HETATM    7  N   UNL     1       4.516  26.351  49.398  1.00  0.00    -0.225 NA
HETATM    8  C   UNL     1       1.555  28.091  48.105  1.00  0.00     0.034 A 
HETATM    9  C   UNL     1       1.240  27.274  47.018  1.00  0.00     0.002 A 
HETATM   10  C   UNL     1       2.034  26.172  46.741  1.00  0.00     0.002 A 
HETATM   11  C   UNL     1       3.129  25.888  47.559  1.00  0.00     0.034 A 
HETATM   12  C   UNL     1       4.571  29.031  51.794  1.00  0.00     0.104 C 
HETATM   13  C   UNL     1       5.764  28.372  52.048  1.00  0.00     0.123 C 
ENDROOT
BRANCH   1  14
HETATM   14  N   UNL     1       6.526  26.138  51.825  1.00  0.00    -0.176 NA
HETATM   15  C   UNL     1       5.928  25.219  52.509  1.00  0.00     0.150 C 
BRANCH  15  16
HETATM   16  C   UNL     1       6.729  24.353  53.406  1.00  0.00    -0.017 A 
HETATM   17  C   UNL     1       6.609  24.490  54.790  1.00  0.00     0.013 A 
HETATM   18  C   UNL     1       7.126  23.513  55.643  1.00  0.00     0.009 A 
HETATM   19  C   UNL     1       7.772  22.375  55.134  1.00  0.00    -0.051 A 
HETATM   20  C   UNL     1       7.951  22.301  53.737  1.00  0.00     0.009 A 
HETATM   21  C   UNL     1       7.426  23.272  52.875  1.00  0.00     0.013 A 
BRANCH  19  22
HETATM   22  C   UNL     1       8.252  21.232  56.048  1.00  0.00    -0.024 C 
HETATM   23  C   UNL     1       8.395  21.643  57.534  1.00  0.00     0.019 C 
HETATM   24  C   UNL     1       9.627  20.742  55.559  1.00  0.00     0.019 C 
HETATM   25  C   UNL     1       7.247  20.058  56.014  1.00  0.00     0.019 C 
ENDBRANCH  19  22
ENDBRANCH  15  16
ENDBRANCH   1  14
BRANCH  13  26
HETATM   26  N   UNL     1       6.773  28.646  52.935  1.00  0.00    -0.286 NA
HETATM   27  H   UNL     1       6.549  29.382  53.613  1.00  0.00     0.125 HD
HETATM   28  H   UNL     1       7.197  27.848  53.411  1.00  0.00     0.125 HD
ENDBRANCH  13  26
BRANCH  12  29
HETATM   29  C   UNL     1       4.002  30.107  52.601  1.00  0.00     0.257 C 
HETATM   30  N   UNL     1       4.799  30.434  53.680  1.00  0.00    -0.354 N 
HETATM   31  H   UNL     1       5.660  29.902  53.775  1.00  0.00     0.162 HD
HETATM   32  O   UNL     1       2.903  30.604  52.395  1.00  0.00    -0.267 OA
BRANCH  30  33
HETATM   33  C   UNL     1       4.361  31.201  54.829  1.00  0.00     0.155 C 
BRANCH  33  34
HETATM   34  C   UNL     1       4.557  30.503  56.187  1.00  0.00     0.139 C 
HETATM   35  O   UNL     1       5.962  30.298  56.425  1.00  0.00    -0.384 OA
HETATM   36  C   UNL     1       6.210  28.899  56.592  1.00  0.00     0.168 C 
HETATM   37  C   UNL     1       5.002  28.174  56.045  1.00  0.00     0.029 C 
HETATM   38  C   UNL     1       3.884  29.143  56.345  1.00  0.00     0.035 C 
ENDBRANCH  33  34
ENDBRANCH  30  33
ENDBRANCH  12  29
TORSDOF 7
ENDMDL
MODEL 5
REMARK VINA RESULT:      -9.8      3.680      6.975
REMARK  7 active torsions:
REMARK  status: ('A' for Active; 'I' for Inactive)
REMARK    1  A    between atoms: C_2  and  C_3 
REMARK    2  A    between atoms: C_6  and  C_7 
REMARK    3  A    between atoms: N_8  and  N_9 
REMARK    4  A    between atoms: C_20  and  C_21 
REMARK       I    between atoms: C_21  and  N_22 
REMARK    5  A    between atoms: N_22  and  C_23 
REMARK    6  A    between atoms: C_23  and  C_24 
REMARK    7  A    between atoms: C_30  and  N_31 
ROOT
HETATM    1  N   UNL     1       4.683  28.182  55.110  1.00  0.00    -0.202 N 
HETATM    2  C   UNL     1       4.672  29.430  55.702  1.00  0.00     0.183 A 
HETATM    3  C   UNL     1       4.169  30.326  54.758  1.00  0.00     0.124 A 
HETATM    4  N   UNL     1       4.127  31.658  55.017  1.00  0.00    -0.242 NA
HETATM    5  C   UNL     1       4.528  32.015  56.245  1.00  0.00     0.086 A 
HETATM    6  C   UNL     1       5.004  31.078  57.200  1.00  0.00     0.088 A 
HETATM    7  N   UNL     1       5.112  29.763  56.940  1.00  0.00    -0.225 NA
HETATM    8  C   UNL     1       4.468  33.359  56.590  1.00  0.00     0.034 A 
HETATM    9  C   UNL     1       4.850  33.806  57.855  1.00  0.00     0.002 A 
HETATM   10  C   UNL     1       5.301  32.890  58.794  1.00  0.00     0.002 A 
HETATM   11  C   UNL     1       5.377  31.538  58.457  1.00  0.00     0.034 A 
HETATM   12  C   UNL     1       3.828  29.596  53.586  1.00  0.00     0.104 C 
HETATM   13  C   UNL     1       3.950  28.258  53.932  1.00  0.00     0.123 C 
ENDROOT
BRANCH   1  14
HETATM   14  N   UNL     1       5.359  27.024  55.386  1.00  0.00    -0.176 NA
HETATM   15  C   UNL     1       6.587  26.968  54.990  1.00  0.00     0.150 C 
BRANCH  15  16
HETATM   16  C   UNL     1       7.232  25.642  54.832  1.00  0.00    -0.017 A 
HETATM   17  C   UNL     1       7.734  24.978  55.953  1.00  0.00     0.013 A 
HETATM   18  C   UNL     1       8.080  23.628  55.877  1.00  0.00     0.009 A 
HETATM   19  C   UNL     1       7.931  22.908  54.680  1.00  0.00    -0.051 A 
HETATM   20  C   UNL     1       7.498  23.622  53.543  1.00  0.00     0.009 A 
HETATM   21  C   UNL     1       7.138  24.974  53.615  1.00  0.00     0.013 A 
BRANCH  19  22
HETATM   22  C   UNL     1       8.202  21.394  54.599  1.00  0.00    -0.024 C 
HETATM   23  C   UNL     1       7.800  20.763  53.245  1.00  0.00     0.019 C 
HETATM   24  C   UNL     1       7.405  20.682  55.707  1.00  0.00     0.019 C 
HETATM   25  C   UNL     1       9.709  21.107  54.786  1.00  0.00     0.019 C 
ENDBRANCH  19  22
ENDBRANCH  15  16
ENDBRANCH   1  14
BRANCH  13  26
HETATM   26  N   UNL     1       3.635  27.118  53.241  1.00  0.00    -0.286 NA
HETATM   27  H   UNL     1       3.579  26.275  53.823  1.00  0.00     0.125 HD
HETATM   28  H   UNL     1       2.828  27.166  52.616  1.00  0.00     0.125 HD
ENDBRANCH  13  26
BRANCH  12  29
HETATM   29  C   UNL     1       3.506  30.108  52.257  1.00  0.00     0.257 C 
HETATM   30  N   UNL     1       2.569  29.330  51.605  1.00  0.00    -0.354 N 
HETATM   31  H   UNL     1       2.228  28.522  52.118  1.00  0.00     0.162 HD
HETATM   32  O   UNL     1       4.066  31.066  51.743  1.00  0.00    -0.267 OA
BRANCH  30  33
HETATM   33  C   UNL     1       2.304  29.375  50.181  1.00  0.00     0.155 C 
BRANCH  33  34
HETATM   34  C   UNL     1       3.176  28.435  49.329  1.00  0.00     0.139 C 
HETATM   35  O   UNL     1       3.913  27.549  50.192  1.00  0.00    -0.384 OA
HETATM   36  C   UNL     1       5.313  27.726  49.961  1.00  0.00     0.168 C 
HETATM   37  C   UNL     1       5.471  29.039  49.231  1.00  0.00     0.029 C 
HETATM   38  C   UNL     1       4.199  29.110  48.421  1.00  0.00     0.035 C 
ENDBRANCH  33  34
ENDBRANCH  30  33
ENDBRANCH  12  29
TORSDOF 7
ENDMDL
MODEL 6
REMARK VINA RESULT:      -9.8      3.724      6.854
REMARK  7 active torsions:
REMARK  status: ('A' for Active; 'I' for Inactive)
REMARK    1  A    between atoms: C_2  and  C_3 
REMARK    2  A    between atoms: C_6  and  C_7 
REMARK    3  A    between atoms: N_8  and  N_9 
REMARK    4  A    between atoms: C_20  and  C_21 
REMARK       I    between atoms: C_21  and  N_22 
REMARK    5  A    between atoms: N_22  and  C_23 
REMARK    6  A    between atoms: C_23  and  C_24 
REMARK    7  A    between atoms: C_30  and  N_31 
ROOT
HETATM    1  N   UNL     1       6.228  28.072  54.710  1.00  0.00    -0.202 N 
HETATM    2  C   UNL     1       6.699  26.851  55.153  1.00  0.00     0.183 A 
HETATM    3  C   UNL     1       7.394  27.088  56.339  1.00  0.00     0.124 A 
HETATM    4  N   UNL     1       8.059  26.085  56.968  1.00  0.00    -0.242 NA
HETATM    5  C   UNL     1       7.931  24.875  56.407  1.00  0.00     0.086 A 
HETATM    6  C   UNL     1       7.189  24.655  55.217  1.00  0.00     0.088 A 
HETATM    7  N   UNL     1       6.576  25.646  54.546  1.00  0.00    -0.225 NA
HETATM    8  C   UNL     1       8.551  23.796  57.024  1.00  0.00     0.034 A 
HETATM    9  C   UNL     1       8.448  22.503  56.512  1.00  0.00     0.002 A 
HETATM   10  C   UNL     1       7.710  22.283  55.358  1.00  0.00     0.002 A 
HETATM   11  C   UNL     1       7.092  23.360  54.721  1.00  0.00     0.034 A 
HETATM   12  C   UNL     1       7.304  28.475  56.642  1.00  0.00     0.104 C 
HETATM   13  C   UNL     1       6.391  28.995  55.736  1.00  0.00     0.123 C 
ENDROOT
BRANCH   1  14
HETATM   14  N   UNL     1       5.805  28.521  53.488  1.00  0.00    -0.176 NA
HETATM   15  C   UNL     1       4.585  28.242  53.166  1.00  0.00     0.150 C 
BRANCH  15  16
HETATM   16  C   UNL     1       4.195  28.275  51.736  1.00  0.00    -0.017 A 
HETATM   17  C   UNL     1       4.790  27.391  50.834  1.00  0.00     0.013 A 
HETATM   18  C   UNL     1       4.244  27.207  49.562  1.00  0.00     0.009 A 
HETATM   19  C   UNL     1       3.090  27.900  49.161  1.00  0.00    -0.051 A 
HETATM   20  C   UNL     1       2.556  28.846  50.061  1.00  0.00     0.009 A 
HETATM   21  C   UNL     1       3.092  29.027  51.343  1.00  0.00     0.013 A 
BRANCH  19  22
HETATM   22  C   UNL     1       2.408  27.633  47.807  1.00  0.00    -0.024 C 
HETATM   23  C   UNL     1       3.027  26.453  47.020  1.00  0.00     0.019 C 
HETATM   24  C   UNL     1       2.520  28.895  46.932  1.00  0.00     0.019 C 
HETATM   25  C   UNL     1       0.916  27.285  48.016  1.00  0.00     0.019 C 
ENDBRANCH  19  22
ENDBRANCH  15  16
ENDBRANCH   1  14
BRANCH  13  26
HETATM   26  N   UNL     1       5.831  30.241  55.638  1.00  0.00    -0.286 NA
HETATM   27  H   UNL     1       4.874  30.244  55.267  1.00  0.00     0.125 HD
HETATM   28  H   UNL     1       5.889  30.839  56.464  1.00  0.00     0.125 HD
ENDBRANCH  13  26
BRANCH  12  29
HETATM   29  C   UNL     1       8.064  29.243  57.624  1.00  0.00     0.257 C 
HETATM   30  N   UNL     1       7.249  29.989  58.454  1.00  0.00    -0.354 N 
HETATM   31  H   UNL     1       6.250  29.911  58.285  1.00  0.00     0.162 HD
HETATM   32  O   UNL     1       9.285  29.290  57.653  1.00  0.00    -0.267 OA
BRANCH  30  33
HETATM   33  C   UNL     1       7.699  31.090  59.282  1.00  0.00     0.155 C 
BRANCH  33  34
HETATM   34  C   UNL     1       8.060  30.708  60.729  1.00  0.00     0.139 C 
HETATM   35  O   UNL     1       7.327  31.543  61.644  1.00  0.00    -0.384 OA
HETATM   36  C   UNL     1       8.251  32.259  62.468  1.00  0.00     0.168 C 
HETATM   37  C   UNL     1       9.596  32.180  61.785  1.00  0.00     0.029 C 
HETATM   38  C   UNL     1       9.532  30.832  61.108  1.00  0.00     0.035 C 
ENDBRANCH  33  34
ENDBRANCH  30  33
ENDBRANCH  12  29
TORSDOF 7
ENDMDL
MODEL 7
REMARK VINA RESULT:      -9.7      4.589      8.720
REMARK  7 active torsions:
REMARK  status: ('A' for Active; 'I' for Inactive)
REMARK    1  A    between atoms: C_2  and  C_3 
REMARK    2  A    between atoms: C_6  and  C_7 
REMARK    3  A    between atoms: N_8  and  N_9 
REMARK    4  A    between atoms: C_20  and  C_21 
REMARK       I    between atoms: C_21  and  N_22 
REMARK    5  A    between atoms: N_22  and  C_23 
REMARK    6  A    between atoms: C_23  and  C_24 
REMARK    7  A    between atoms: C_30  and  N_31 
ROOT
HETATM    1  N   UNL     1       4.988  26.523  52.397  1.00  0.00    -0.202 N 
HETATM    2  C   UNL     1       5.831  25.606  52.996  1.00  0.00     0.183 A 
HETATM    3  C   UNL     1       5.905  25.942  54.347  1.00  0.00     0.124 A 
HETATM    4  N   UNL     1       6.741  25.275  55.185  1.00  0.00    -0.242 NA
HETATM    5  C   UNL     1       7.408  24.254  54.632  1.00  0.00     0.086 A 
HETATM    6  C   UNL     1       7.289  23.911  53.259  1.00  0.00     0.088 A 
HETATM    7  N   UNL     1       6.515  24.599  52.401  1.00  0.00    -0.225 NA
HETATM    8  C   UNL     1       8.248  23.502  55.444  1.00  0.00     0.034 A 
HETATM    9  C   UNL     1       8.962  22.411  54.946  1.00  0.00     0.002 A 
HETATM   10  C   UNL     1       8.834  22.066  53.609  1.00  0.00     0.002 A 
HETATM   11  C   UNL     1       8.003  22.820  52.779  1.00  0.00     0.034 A 
HETATM   12  C   UNL     1       5.055  27.058  54.579  1.00  0.00     0.104 C 
HETATM   13  C   UNL     1       4.344  27.235  53.401  1.00  0.00     0.123 C 
ENDROOT
BRANCH   1  14
HETATM   14  N   UNL     1       4.808  26.915  51.098  1.00  0.00    -0.176 NA
HETATM   15  C   UNL     1       5.694  27.721  50.614  1.00  0.00     0.150 C 
BRANCH  15  16
HETATM   16  C   UNL     1       5.351  28.536  49.424  1.00  0.00    -0.017 A 
HETATM   17  C   UNL     1       4.550  27.991  48.418  1.00  0.00     0.013 A 
HETATM   18  C   UNL     1       3.983  28.815  47.444  1.00  0.00     0.009 A 
HETATM   19  C   UNL     1       4.201  30.202  47.452  1.00  0.00    -0.051 A 
HETATM   20  C   UNL     1       5.078  30.716  48.430  1.00  0.00     0.009 A 
HETATM   21  C   UNL     1       5.641  29.897  49.417  1.00  0.00     0.013 A 
BRANCH  19  22
HETATM   22  C   UNL     1       3.500  31.143  46.455  1.00  0.00    -0.024 C 
HETATM   23  C   UNL     1       4.254  31.299  45.112  1.00  0.00     0.019 C 
HETATM   24  C   UNL     1       3.372  32.540  47.089  1.00  0.00     0.019 C 
HETATM   25  C   UNL     1       2.093  30.607  46.107  1.00  0.00     0.019 C 
ENDBRANCH  19  22
ENDBRANCH  15  16
ENDBRANCH   1  14
BRANCH  13  26
HETATM   26  N   UNL     1       3.306  28.076  53.093  1.00  0.00    -0.286 NA
HETATM   27  H   UNL     1       3.593  28.945  52.631  1.00  0.00     0.125 HD
HETATM   28  H   UNL     1       2.510  27.665  52.604  1.00  0.00     0.125 HD
ENDBRANCH  13  26
BRANCH  12  29
HETATM   29  C   UNL     1       4.984  27.921  55.756  1.00  0.00     0.257 C 
HETATM   30  N   UNL     1       6.235  28.261  56.234  1.00  0.00    -0.354 N 
HETATM   31  H   UNL     1       7.026  27.882  55.721  1.00  0.00     0.162 HD
HETATM   32  O   UNL     1       3.939  28.235  56.307  1.00  0.00    -0.267 OA
BRANCH  30  33
HETATM   33  C   UNL     1       6.495  28.805  57.552  1.00  0.00     0.155 C 
BRANCH  33  34
HETATM   34  C   UNL     1       7.909  28.535  58.097  1.00  0.00     0.139 C 
HETATM   35  O   UNL     1       8.325  29.638  58.923  1.00  0.00    -0.384 OA
HETATM   36  C   UNL     1       9.526  30.199  58.385  1.00  0.00     0.168 C 
HETATM   37  C   UNL     1       9.643  29.698  56.965  1.00  0.00     0.029 C 
HETATM   38  C   UNL     1       9.002  28.333  57.054  1.00  0.00     0.035 C 
ENDBRANCH  33  34
ENDBRANCH  30  33
ENDBRANCH  12  29
TORSDOF 7
ENDMDL
MODEL 8
REMARK VINA RESULT:      -9.5      3.942      7.840
REMARK  7 active torsions:
REMARK  status: ('A' for Active; 'I' for Inactive)
REMARK    1  A    between atoms: C_2  and  C_3 
REMARK    2  A    between atoms: C_6  and  C_7 
REMARK    3  A    between atoms: N_8  and  N_9 
REMARK    4  A    between atoms: C_20  and  C_21 
REMARK       I    between atoms: C_21  and  N_22 
REMARK    5  A    between atoms: N_22  and  C_23 
REMARK    6  A    between atoms: C_23  and  C_24 
REMARK    7  A    between atoms: C_30  and  N_31 
ROOT
HETATM    1  N   UNL     1       6.566  27.810  53.843  1.00  0.00    -0.202 N 
HETATM    2  C   UNL     1       6.973  26.506  54.052  1.00  0.00     0.183 A 
HETATM    3  C   UNL     1       7.464  26.437  55.356  1.00  0.00     0.124 A 
HETATM    4  N   UNL     1       8.031  25.295  55.825  1.00  0.00    -0.242 NA
HETATM    5  C   UNL     1       8.008  24.256  54.980  1.00  0.00     0.086 A 
HETATM    6  C   UNL     1       7.470  24.345  53.669  1.00  0.00     0.088 A 
HETATM    7  N   UNL     1       6.962  25.483  53.164  1.00  0.00    -0.225 NA
HETATM    8  C   UNL     1       8.532  23.046  55.413  1.00  0.00     0.034 A 
HETATM    9  C   UNL     1       8.528  21.913  54.598  1.00  0.00     0.002 A 
HETATM   10  C   UNL     1       7.988  21.993  53.323  1.00  0.00     0.002 A 
HETATM   11  C   UNL     1       7.469  23.207  52.870  1.00  0.00     0.034 A 
HETATM   12  C   UNL     1       7.311  27.715  55.962  1.00  0.00     0.104 C 
HETATM   13  C   UNL     1       6.551  28.459  55.071  1.00  0.00     0.123 C 
ENDROOT
BRANCH   1  14
HETATM   14  N   UNL     1       6.340  28.547  52.712  1.00  0.00    -0.176 NA
HETATM   15  C   UNL     1       5.129  28.551  52.262  1.00  0.00     0.150 C 
BRANCH  15  16
HETATM   16  C   UNL     1       4.889  28.919  50.846  1.00  0.00    -0.017 A 
HETATM   17  C   UNL     1       3.801  28.372  50.163  1.00  0.00     0.013 A 
HETATM   18  C   UNL     1       3.392  28.912  48.941  1.00  0.00     0.009 A 
HETATM   19  C   UNL     1       4.058  30.011  48.375  1.00  0.00    -0.051 A 
HETATM   20  C   UNL     1       5.202  30.493  49.046  1.00  0.00     0.009 A 
HETATM   21  C   UNL     1       5.611  29.963  50.277  1.00  0.00     0.013 A 
BRANCH  19  22
HETATM   22  C   UNL     1       3.560  30.691  47.087  1.00  0.00    -0.024 C 
HETATM   23  C   UNL     1       3.071  32.144  47.301  1.00  0.00     0.019 C 
HETATM   24  C   UNL     1       2.388  29.878  46.510  1.00  0.00     0.019 C 
HETATM   25  C   UNL     1       4.698  30.762  46.042  1.00  0.00     0.019 C 
ENDBRANCH  19  22
ENDBRANCH  15  16
ENDBRANCH   1  14
BRANCH  13  26
HETATM   26  N   UNL     1       6.000  29.709  55.185  1.00  0.00    -0.286 NA
HETATM   27  H   UNL     1       4.991  29.708  55.367  1.00  0.00     0.125 HD
HETATM   28  H   UNL     1       6.469  30.364  55.813  1.00  0.00     0.125 HD
ENDBRANCH  13  26
BRANCH  12  29
HETATM   29  C   UNL     1       7.894  28.208  57.206  1.00  0.00     0.257 C 
HETATM   30  N   UNL     1       8.452  29.464  57.065  1.00  0.00    -0.354 N 
HETATM   31  H   UNL     1       8.387  29.878  56.139  1.00  0.00     0.162 HD
HETATM   32  O   UNL     1       7.959  27.549  58.234  1.00  0.00    -0.267 OA
BRANCH  30  33
HETATM   33  C   UNL     1       9.384  30.063  57.999  1.00  0.00     0.155 C 
BRANCH  33  34
HETATM   34  C   UNL     1       8.816  31.236  58.819  1.00  0.00     0.139 C 
HETATM   35  O   UNL     1       9.900  32.007  59.369  1.00  0.00    -0.384 OA
HETATM   36  C   UNL     1       9.787  32.023  60.795  1.00  0.00     0.168 C 
HETATM   37  C   UNL     1       8.846  30.902  61.170  1.00  0.00     0.029 C 
HETATM   38  C   UNL     1       7.910  30.861  59.986  1.00  0.00     0.035 C 
ENDBRANCH  33  34
ENDBRANCH  30  33
ENDBRANCH  12  29
TORSDOF 7
ENDMDL
MODEL 9
REMARK VINA RESULT:      -9.4      3.693      5.643
REMARK  7 active torsions:
REMARK  status: ('A' for Active; 'I' for Inactive)
REMARK    1  A    between atoms: C_2  and  C_3 
REMARK    2  A    between atoms: C_6  and  C_7 
REMARK    3  A    between atoms: N_8  and  N_9 
REMARK    4  A    between atoms: C_20  and  C_21 
REMARK       I    between atoms: C_21  and  N_22 
REMARK    5  A    between atoms: N_22  and  C_23 
REMARK    6  A    between atoms: C_23  and  C_24 
REMARK    7  A    between atoms: C_30  and  N_31 
ROOT
HETATM    1  N   UNL     1       4.814  29.888  56.290  1.00  0.00    -0.202 N 
HETATM    2  C   UNL     1       6.135  29.979  56.687  1.00  0.00     0.183 A 
HETATM    3  C   UNL     1       6.156  30.719  57.869  1.00  0.00     0.124 A 
HETATM    4  N   UNL     1       7.333  31.061  58.454  1.00  0.00    -0.242 NA
HETATM    5  C   UNL     1       8.430  30.578  57.856  1.00  0.00     0.086 A 
HETATM    6  C   UNL     1       8.378  29.798  56.670  1.00  0.00     0.088 A 
HETATM    7  N   UNL     1       7.227  29.502  56.042  1.00  0.00    -0.225 NA
HETATM    8  C   UNL     1       9.665  30.855  58.428  1.00  0.00     0.034 A 
HETATM    9  C   UNL     1      10.851  30.371  57.875  1.00  0.00     0.002 A 
HETATM   10  C   UNL     1      10.802  29.596  56.726  1.00  0.00     0.002 A 
HETATM   11  C   UNL     1       9.568  29.321  56.134  1.00  0.00     0.034 A 
HETATM   12  C   UNL     1       4.816  31.044  58.219  1.00  0.00     0.104 C 
HETATM   13  C   UNL     1       4.018  30.322  57.344  1.00  0.00     0.123 C 
ENDROOT
BRANCH   1  14
HETATM   14  N   UNL     1       4.217  29.610  55.091  1.00  0.00    -0.176 NA
HETATM   15  C   UNL     1       4.284  28.385  54.687  1.00  0.00     0.150 C 
BRANCH  15  16
HETATM   16  C   UNL     1       4.086  28.092  53.247  1.00  0.00    -0.017 A 
HETATM   17  C   UNL     1       3.244  28.903  52.484  1.00  0.00     0.013 A 
HETATM   18  C   UNL     1       3.263  28.825  51.090  1.00  0.00     0.009 A 
HETATM   19  C   UNL     1       4.124  27.938  50.425  1.00  0.00    -0.051 A 
HETATM   20  C   UNL     1       4.906  27.074  51.221  1.00  0.00     0.009 A 
HETATM   21  C   UNL     1       4.900  27.154  52.619  1.00  0.00     0.013 A 
BRANCH  19  22
HETATM   22  C   UNL     1       4.243  27.911  48.890  1.00  0.00    -0.024 C 
HETATM   23  C   UNL     1       5.458  28.700  48.347  1.00  0.00     0.019 C 
HETATM   24  C   UNL     1       2.970  28.525  48.278  1.00  0.00     0.019 C 
HETATM   25  C   UNL     1       4.404  26.458  48.388  1.00  0.00     0.019 C 
ENDBRANCH  19  22
ENDBRANCH  15  16
ENDBRANCH   1  14
BRANCH  13  26
HETATM   26  N   UNL     1       2.659  30.155  57.295  1.00  0.00    -0.286 NA
HETATM   27  H   UNL     1       2.327  29.280  57.715  1.00  0.00     0.125 HD
HETATM   28  H   UNL     1       2.086  30.937  57.618  1.00  0.00     0.125 HD
ENDBRANCH  13  26
BRANCH  12  29
HETATM   29  C   UNL     1       4.342  32.003  59.213  1.00  0.00     0.257 C 
HETATM   30  N   UNL     1       5.082  31.962  60.379  1.00  0.00    -0.354 N 
HETATM   31  H   UNL     1       5.845  31.290  60.398  1.00  0.00     0.162 HD
HETATM   32  O   UNL     1       3.349  32.700  59.066  1.00  0.00    -0.267 OA
BRANCH  30  33
HETATM   33  C   UNL     1       4.662  32.528  61.645  1.00  0.00     0.155 C 
BRANCH  33  34
HETATM   34  C   UNL     1       5.567  32.183  62.841  1.00  0.00     0.139 C 
HETATM   35  O   UNL     1       4.847  32.402  64.068  1.00  0.00    -0.384 OA
HETATM   36  C   UNL     1       5.550  33.363  64.860  1.00  0.00     0.168 C 
HETATM   37  C   UNL     1       6.517  34.065  63.935  1.00  0.00     0.029 C 
HETATM   38  C   UNL     1       6.866  32.975  62.950  1.00  0.00     0.035 C 
ENDBRANCH  33  34
ENDBRANCH  30  33
ENDBRANCH  12  29
TORSDOF 7
ENDMDL
MODEL 10
REMARK VINA RESULT:      -9.1      3.724     10.168
REMARK  7 active torsions:
REMARK  status: ('A' for Active; 'I' for Inactive)
REMARK    1  A    between atoms: C_2  and  C_3 
REMARK    2  A    between atoms: C_6  and  C_7 
REMARK    3  A    between atoms: N_8  and  N_9 
REMARK    4  A    between atoms: C_20  and  C_21 
REMARK       I    between atoms: C_21  and  N_22 
REMARK    5  A    between atoms: N_22  and  C_23 
REMARK    6  A    between atoms: C_23  and  C_24 
REMARK    7  A    between atoms: C_30  and  N_31 
ROOT
HETATM    1  N   UNL     1       5.893  28.671  55.761  1.00  0.00    -0.202 N 
HETATM    2  C   UNL     1       6.390  27.383  55.691  1.00  0.00     0.183 A 
HETATM    3  C   UNL     1       5.906  26.822  54.509  1.00  0.00     0.124 A 
HETATM    4  N   UNL     1       6.146  25.520  54.207  1.00  0.00    -0.242 NA
HETATM    5  C   UNL     1       6.926  24.867  55.079  1.00  0.00     0.086 A 
HETATM    6  C   UNL     1       7.435  25.472  56.258  1.00  0.00     0.088 A 
HETATM    7  N   UNL     1       7.156  26.741  56.605  1.00  0.00    -0.225 NA
HETATM    8  C   UNL     1       7.248  23.543  54.807  1.00  0.00     0.034 A 
HETATM    9  C   UNL     1       8.070  22.802  55.657  1.00  0.00     0.002 A 
HETATM   10  C   UNL     1       8.581  23.396  56.801  1.00  0.00     0.002 A 
HETATM   11  C   UNL     1       8.256  24.722  57.092  1.00  0.00     0.034 A 
HETATM   12  C   UNL     1       5.136  27.806  53.829  1.00  0.00     0.104 C 
HETATM   13  C   UNL     1       5.345  28.988  54.524  1.00  0.00     0.123 C 
ENDROOT
BRANCH   1  14
HETATM   14  N   UNL     1       5.730  29.553  56.794  1.00  0.00    -0.176 NA
HETATM   15  C   UNL     1       6.607  30.498  56.886  1.00  0.00     0.150 C 
BRANCH  15  16
HETATM   16  C   UNL     1       6.779  31.194  58.183  1.00  0.00    -0.017 A 
HETATM   17  C   UNL     1       5.821  32.116  58.608  1.00  0.00     0.013 A 
HETATM   18  C   UNL     1       5.810  32.564  59.930  1.00  0.00     0.009 A 
HETATM   19  C   UNL     1       6.754  32.100  60.860  1.00  0.00    -0.051 A 
HETATM   20  C   UNL     1       7.759  31.230  60.387  1.00  0.00     0.009 A 
HETATM   21  C   UNL     1       7.770  30.769  59.064  1.00  0.00     0.013 A 
BRANCH  19  22
HETATM   22  C   UNL     1       6.695  32.494  62.348  1.00  0.00    -0.024 C 
HETATM   23  C   UNL     1       7.987  32.156  63.131  1.00  0.00     0.019 C 
HETATM   24  C   UNL     1       5.528  31.748  63.020  1.00  0.00     0.019 C 
HETATM   25  C   UNL     1       6.481  34.018  62.492  1.00  0.00     0.019 C 
ENDBRANCH  19  22
ENDBRANCH  15  16
ENDBRANCH   1  14
BRANCH  13  26
HETATM   26  N   UNL     1       4.955  30.273  54.252  1.00  0.00    -0.286 NA
HETATM   27  H   UNL     1       3.961  30.370  54.018  1.00  0.00     0.125 HD
HETATM   28  H   UNL     1       5.227  30.990  54.927  1.00  0.00     0.125 HD
ENDBRANCH  13  26
BRANCH  12  29
HETATM   29  C   UNL     1       4.230  27.631  52.697  1.00  0.00     0.257 C 
HETATM   30  N   UNL     1       4.747  26.786  51.734  1.00  0.00    -0.354 N 
HETATM   31  H   UNL     1       5.667  26.400  51.929  1.00  0.00     0.162 HD
HETATM   32  O   UNL     1       3.171  28.231  52.574  1.00  0.00    -0.267 OA
BRANCH  30  33
HETATM   33  C   UNL     1       4.256  26.684  50.375  1.00  0.00     0.155 C 
BRANCH  33  34
HETATM   34  C   UNL     1       5.159  27.332  49.309  1.00  0.00     0.139 C 
HETATM   35  O   UNL     1       5.388  28.712  49.649  1.00  0.00    -0.384 OA
HETATM   36  C   UNL     1       4.920  29.541  48.581  1.00  0.00     0.168 C 
HETATM   37  C   UNL     1       4.010  28.685  47.732  1.00  0.00     0.029 C 
HETATM   38  C   UNL     1       4.628  27.315  47.880  1.00  0.00     0.035 C 
ENDBRANCH  33  34
ENDBRANCH  30  33
ENDBRANCH  12  29
TORSDOF 7
ENDMDL
