MODEL 1
REMARK VINA RESULT:      -9.0      0.000      0.000
REMARK  4 active torsions:
REMARK  status: ('A' for Active; 'I' for Inactive)
REMARK    1  A    between atoms: C_9  and  C_10 
REMARK    2  A    between atoms: C_20  and  C_21 
REMARK       I    between atoms: C_21  and  N_22 
REMARK    3  A    between atoms: N_22  and  C_23 
REMARK    4  A    between atoms: C_26  and  O_27 
ROOT
HETATM    1  C   UNL     1       5.382  27.096  50.507  1.00  0.00     0.070 C 
HETATM    2  C   UNL     1       5.098  27.598  51.900  1.00  0.00     0.037 A 
HETATM    3  N   UNL     1       4.851  28.960  52.006  1.00  0.00    -0.192 N 
HETATM    4  C   UNL     1       4.507  29.566  53.157  1.00  0.00     0.725 A 
HETATM    5  N   UNL     1       4.367  28.821  54.298  1.00  0.00    -0.084 N 
HETATM    6  N   UNL     1       3.923  29.586  55.320  1.00  0.00    -0.149 NA
HETATM    7  C   UNL     1       3.897  30.790  54.740  1.00  0.00     0.275 A 
HETATM    8  N   UNL     1       4.236  30.820  53.413  1.00  0.00    -0.054 NA
HETATM    9  C   UNL     1       4.549  27.365  54.357  1.00  0.00     0.203 A 
HETATM   10  C   UNL     1       5.023  26.816  53.005  1.00  0.00     0.062 A 
HETATM   11  H   UNL     1       4.889  29.520  51.158  1.00  0.00     0.184 HD
ENDROOT
BRANCH  10  12
HETATM   12  C   UNL     1       5.337  25.359  53.011  1.00  0.00     0.256 C 
HETATM   13  N   UNL     1       6.642  25.109  53.389  1.00  0.00    -0.323 N 
HETATM   14  H   UNL     1       7.253  25.907  53.494  1.00  0.00     0.169 HD
HETATM   15  O   UNL     1       4.459  24.552  52.754  1.00  0.00    -0.267 OA
BRANCH  13  16
HETATM   16  C   UNL     1       7.221  23.866  53.705  1.00  0.00     0.035 A 
HETATM   17  C   UNL     1       7.704  22.968  52.758  1.00  0.00     0.032 A 
HETATM   18  C   UNL     1       8.204  21.724  53.161  1.00  0.00     0.039 A 
HETATM   19  C   UNL     1       8.242  21.367  54.511  1.00  0.00     0.068 A 
HETATM   20  C   UNL     1       7.775  22.271  55.462  1.00  0.00     0.039 A 
HETATM   21  C   UNL     1       7.260  23.509  55.059  1.00  0.00     0.032 A 
BRANCH  19  22
HETATM   22  O   UNL     1       8.745  20.122  54.764  1.00  0.00    -0.356 OA
HETATM   23  C   UNL     1       9.442  19.946  55.992  1.00  0.00     0.210 C 
ENDBRANCH  19  22
ENDBRANCH  13  16
ENDBRANCH  10  12
BRANCH   9  24
HETATM   24  C   UNL     1       5.431  26.988  55.556  1.00  0.00    -0.017 A 
HETATM   25  C   UNL     1       6.713  27.594  55.766  1.00  0.00    -0.017 A 
HETATM   26  C   UNL     1       7.440  27.258  56.938  1.00  0.00    -0.025 A 
HETATM   27  C   UNL     1       7.330  28.508  54.874  1.00  0.00     0.013 A 
HETATM   28  C   UNL     1       8.693  27.844  57.190  1.00  0.00     0.012 A 
HETATM   29  C   UNL     1       6.916  26.332  57.848  1.00  0.00     0.012 A 
HETATM   30  C   UNL     1       9.260  28.748  56.297  1.00  0.00     0.001 A 
HETATM   31  C   UNL     1       8.581  29.075  55.134  1.00  0.00     0.001 A 
HETATM   32  C   UNL     1       5.698  25.707  57.613  1.00  0.00     0.002 A 
HETATM   33  C   UNL     1       4.968  26.019  56.472  1.00  0.00     0.010 A 
ENDBRANCH   9  24
TORSDOF 4
ENDMDL
MODEL 2
REMARK VINA RESULT:      -8.6      1.077      2.278
REMARK  4 active torsions:
REMARK  status: ('A' for Active; 'I' for Inactive)
REMARK    1  A    between atoms: C_9  and  C_10 
REMARK    2  A    between atoms: C_20  and  C_21 
REMARK       I    between atoms: C_21  and  N_22 
REMARK    3  A    between atoms: N_22  and  C_23 
REMARK    4  A    between atoms: C_26  and  O_27 
ROOT
HETATM    1  C   UNL     1       4.699  25.958  49.648  1.00  0.00     0.070 C 
HETATM    2  C   UNL     1       4.759  26.961  50.773  1.00  0.00     0.037 A 
HETATM    3  N   UNL     1       4.476  28.273  50.420  1.00  0.00    -0.192 N 
HETATM    4  C   UNL     1       4.409  29.283  51.306  1.00  0.00     0.725 A 
HETATM    5  N   UNL     1       4.609  29.030  52.638  1.00  0.00    -0.084 N 
HETATM    6  N   UNL     1       4.403  30.143  53.375  1.00  0.00    -0.149 NA
HETATM    7  C   UNL     1       4.164  31.041  52.414  1.00  0.00     0.275 A 
HETATM    8  N   UNL     1       4.148  30.554  51.134  1.00  0.00    -0.054 NA
HETATM    9  C   UNL     1       4.876  27.695  53.190  1.00  0.00     0.203 A 
HETATM   10  C   UNL     1       5.013  26.655  52.070  1.00  0.00     0.062 A 
HETATM   11  H   UNL     1       4.264  28.471  49.445  1.00  0.00     0.184 HD
ENDROOT
BRANCH  10  12
HETATM   12  C   UNL     1       5.395  25.294  52.539  1.00  0.00     0.256 C 
HETATM   13  N   UNL     1       6.765  25.126  52.591  1.00  0.00    -0.323 N 
HETATM   14  H   UNL     1       7.336  25.864  52.203  1.00  0.00     0.169 HD
HETATM   15  O   UNL     1       4.526  24.506  52.875  1.00  0.00    -0.267 OA
BRANCH  13  16
HETATM   16  C   UNL     1       7.478  24.063  53.176  1.00  0.00     0.035 A 
HETATM   17  C   UNL     1       7.616  22.805  52.596  1.00  0.00     0.032 A 
HETATM   18  C   UNL     1       8.288  21.787  53.282  1.00  0.00     0.039 A 
HETATM   19  C   UNL     1       8.842  22.013  54.545  1.00  0.00     0.068 A 
HETATM   20  C   UNL     1       8.720  23.275  55.119  1.00  0.00     0.039 A 
HETATM   21  C   UNL     1       8.034  24.291  54.442  1.00  0.00     0.032 A 
BRANCH  19  22
HETATM   22  O   UNL     1       9.462  20.931  55.106  1.00  0.00    -0.356 OA
HETATM   23  C   UNL     1       8.845  20.358  56.252  1.00  0.00     0.210 C 
ENDBRANCH  19  22
ENDBRANCH  13  16
ENDBRANCH  10  12
BRANCH   9  24
HETATM   24  C   UNL     1       6.056  27.752  54.170  1.00  0.00    -0.017 A 
HETATM   25  C   UNL     1       6.048  27.015  55.399  1.00  0.00    -0.017 A 
HETATM   26  C   UNL     1       7.206  27.049  56.220  1.00  0.00    -0.025 A 
HETATM   27  C   UNL     1       4.952  26.250  55.876  1.00  0.00     0.013 A 
HETATM   28  C   UNL     1       7.245  26.324  57.425  1.00  0.00     0.012 A 
HETATM   29  C   UNL     1       8.315  27.813  55.839  1.00  0.00     0.012 A 
HETATM   30  C   UNL     1       6.153  25.575  57.853  1.00  0.00     0.001 A 
HETATM   31  C   UNL     1       5.003  25.544  57.081  1.00  0.00     0.001 A 
HETATM   32  C   UNL     1       8.298  28.570  54.673  1.00  0.00     0.002 A 
HETATM   33  C   UNL     1       7.175  28.552  53.853  1.00  0.00     0.010 A 
ENDBRANCH   9  24
TORSDOF 4
ENDMDL
MODEL 3
REMARK VINA RESULT:      -8.6      2.618      6.275
REMARK  4 active torsions:
REMARK  status: ('A' for Active; 'I' for Inactive)
REMARK    1  A    between atoms: C_9  and  C_10 
REMARK    2  A    between atoms: C_20  and  C_21 
REMARK       I    between atoms: C_21  and  N_22 
REMARK    3  A    between atoms: N_22  and  C_23 
REMARK    4  A    between atoms: C_26  and  O_27 
ROOT
HETATM    1  C   UNL     1       7.717  21.825  52.494  1.00  0.00     0.070 C 
HETATM    2  C   UNL     1       7.806  22.372  53.896  1.00  0.00     0.037 A 
HETATM    3  N   UNL     1       8.023  21.430  54.893  1.00  0.00    -0.192 N 
HETATM    4  C   UNL     1       8.203  21.746  56.188  1.00  0.00     0.725 A 
HETATM    5  N   UNL     1       8.193  23.062  56.571  1.00  0.00    -0.084 N 
HETATM    6  N   UNL     1       8.488  23.183  57.884  1.00  0.00    -0.149 NA
HETATM    7  C   UNL     1       8.582  21.898  58.240  1.00  0.00     0.275 A 
HETATM    8  N   UNL     1       8.424  20.986  57.229  1.00  0.00    -0.054 NA
HETATM    9  C   UNL     1       8.019  24.187  55.643  1.00  0.00     0.203 A 
HETATM   10  C   UNL     1       7.738  23.687  54.220  1.00  0.00     0.062 A 
HETATM   11  H   UNL     1       8.095  20.453  54.620  1.00  0.00     0.184 HD
ENDROOT
BRANCH  10  12
HETATM   12  C   UNL     1       7.439  24.767  53.238  1.00  0.00     0.256 C 
HETATM   13  N   UNL     1       6.086  24.884  52.988  1.00  0.00    -0.323 N 
HETATM   14  H   UNL     1       5.480  24.178  53.382  1.00  0.00     0.169 HD
HETATM   15  O   UNL     1       8.348  25.455  52.803  1.00  0.00    -0.267 OA
BRANCH  13  16
HETATM   16  C   UNL     1       5.428  25.915  52.290  1.00  0.00     0.035 A 
HETATM   17  C   UNL     1       5.378  26.005  50.902  1.00  0.00     0.032 A 
HETATM   18  C   UNL     1       4.757  27.102  50.293  1.00  0.00     0.039 A 
HETATM   19  C   UNL     1       4.166  28.111  51.058  1.00  0.00     0.068 A 
HETATM   20  C   UNL     1       4.200  28.013  52.446  1.00  0.00     0.039 A 
HETATM   21  C   UNL     1       4.835  26.926  53.057  1.00  0.00     0.032 A 
BRANCH  19  22
HETATM   22  O   UNL     1       3.603  29.127  50.337  1.00  0.00    -0.356 OA
HETATM   23  C   UNL     1       3.443  28.913  48.940  1.00  0.00     0.210 C 
ENDBRANCH  19  22
ENDBRANCH  13  16
ENDBRANCH  10  12
BRANCH   9  24
HETATM   24  C   UNL     1       6.987  25.179  56.198  1.00  0.00    -0.017 A 
HETATM   25  C   UNL     1       7.364  26.496  56.623  1.00  0.00    -0.017 A 
HETATM   26  C   UNL     1       6.346  27.389  57.050  1.00  0.00    -0.025 A 
HETATM   27  C   UNL     1       8.696  26.982  56.664  1.00  0.00     0.013 A 
HETATM   28  C   UNL     1       6.671  28.695  57.457  1.00  0.00     0.012 A 
HETATM   29  C   UNL     1       5.010  26.971  57.077  1.00  0.00     0.012 A 
HETATM   30  C   UNL     1       7.990  29.140  57.472  1.00  0.00     0.001 A 
HETATM   31  C   UNL     1       9.004  28.280  57.081  1.00  0.00     0.001 A 
HETATM   32  C   UNL     1       4.657  25.676  56.716  1.00  0.00     0.002 A 
HETATM   33  C   UNL     1       5.636  24.784  56.294  1.00  0.00     0.010 A 
ENDBRANCH   9  24
TORSDOF 4
ENDMDL
MODEL 4
REMARK VINA RESULT:      -8.4      6.253      9.663
REMARK  4 active torsions:
REMARK  status: ('A' for Active; 'I' for Inactive)
REMARK    1  A    between atoms: C_9  and  C_10 
REMARK    2  A    between atoms: C_20  and  C_21 
REMARK       I    between atoms: C_21  and  N_22 
REMARK    3  A    between atoms: N_22  and  C_23 
REMARK    4  A    between atoms: C_26  and  O_27 
ROOT
HETATM    1  C   UNL     1       9.325  29.580  57.909  1.00  0.00     0.070 C 
HETATM    2  C   UNL     1       7.880  29.788  57.529  1.00  0.00     0.037 A 
HETATM    3  N   UNL     1       7.401  28.957  56.525  1.00  0.00    -0.192 N 
HETATM    4  C   UNL     1       6.121  28.952  56.113  1.00  0.00     0.725 A 
HETATM    5  N   UNL     1       5.214  29.788  56.710  1.00  0.00    -0.084 N 
HETATM    6  N   UNL     1       3.970  29.567  56.233  1.00  0.00    -0.149 NA
HETATM    7  C   UNL     1       4.219  28.645  55.298  1.00  0.00     0.275 A 
HETATM    8  N   UNL     1       5.521  28.233  55.199  1.00  0.00    -0.054 NA
HETATM    9  C   UNL     1       5.540  30.700  57.814  1.00  0.00     0.203 A 
HETATM   10  C   UNL     1       7.042  30.671  58.125  1.00  0.00     0.062 A 
HETATM   11  H   UNL     1       8.044  28.286  56.112  1.00  0.00     0.184 HD
ENDROOT
BRANCH  10  12
HETATM   12  C   UNL     1       7.474  31.651  59.161  1.00  0.00     0.256 C 
HETATM   13  N   UNL     1       6.724  31.553  60.316  1.00  0.00    -0.323 N 
HETATM   14  H   UNL     1       5.918  30.944  60.294  1.00  0.00     0.169 HD
HETATM   15  O   UNL     1       8.431  32.377  58.943  1.00  0.00    -0.267 OA
BRANCH  13  16
HETATM   16  C   UNL     1       6.978  32.163  61.560  1.00  0.00     0.035 A 
HETATM   17  C   UNL     1       7.907  31.691  62.482  1.00  0.00     0.032 A 
HETATM   18  C   UNL     1       8.047  32.324  63.723  1.00  0.00     0.039 A 
HETATM   19  C   UNL     1       7.275  33.442  64.051  1.00  0.00     0.068 A 
HETATM   20  C   UNL     1       6.358  33.926  63.123  1.00  0.00     0.039 A 
HETATM   21  C   UNL     1       6.205  33.284  61.888  1.00  0.00     0.032 A 
BRANCH  19  22
HETATM   22  O   UNL     1       7.506  33.956  65.297  1.00  0.00    -0.356 OA
HETATM   23  C   UNL     1       6.388  34.053  66.171  1.00  0.00     0.210 C 
ENDBRANCH  19  22
ENDBRANCH  13  16
ENDBRANCH  10  12
BRANCH   9  24
HETATM   24  C   UNL     1       4.961  32.095  57.540  1.00  0.00    -0.017 A 
HETATM   25  C   UNL     1       4.107  32.754  58.484  1.00  0.00    -0.017 A 
HETATM   26  C   UNL     1       3.674  34.076  58.203  1.00  0.00    -0.025 A 
HETATM   27  C   UNL     1       3.643  32.176  59.694  1.00  0.00     0.013 A 
HETATM   28  C   UNL     1       2.851  34.764  59.112  1.00  0.00     0.012 A 
HETATM   29  C   UNL     1       4.056  34.701  57.010  1.00  0.00     0.012 A 
HETATM   30  C   UNL     1       2.426  34.167  60.295  1.00  0.00     0.001 A 
HETATM   31  C   UNL     1       2.818  32.869  60.583  1.00  0.00     0.001 A 
HETATM   32  C   UNL     1       4.839  34.038  56.072  1.00  0.00     0.002 A 
HETATM   33  C   UNL     1       5.276  32.743  56.326  1.00  0.00     0.010 A 
ENDBRANCH   9  24
TORSDOF 4
ENDMDL
MODEL 5
REMARK VINA RESULT:      -8.2      2.538      3.493
REMARK  4 active torsions:
REMARK  status: ('A' for Active; 'I' for Inactive)
REMARK    1  A    between atoms: C_9  and  C_10 
REMARK    2  A    between atoms: C_20  and  C_21 
REMARK       I    between atoms: C_21  and  N_22 
REMARK    3  A    between atoms: N_22  and  C_23 
REMARK    4  A    between atoms: C_26  and  O_27 
ROOT
HETATM    1  C   UNL     1       3.608  27.863  53.419  1.00  0.00     0.070 C 
HETATM    2  C   UNL     1       4.228  28.962  54.246  1.00  0.00     0.037 A 
HETATM    3  N   UNL     1       3.987  30.254  53.800  1.00  0.00    -0.192 N 
HETATM    4  C   UNL     1       4.399  31.355  54.455  1.00  0.00     0.725 A 
HETATM    5  N   UNL     1       5.079  31.224  55.637  1.00  0.00    -0.084 N 
HETATM    6  N   UNL     1       5.318  32.433  56.190  1.00  0.00    -0.149 NA
HETATM    7  C   UNL     1       4.826  33.243  55.247  1.00  0.00     0.275 A 
HETATM    8  N   UNL     1       4.245  32.623  54.173  1.00  0.00    -0.054 NA
HETATM    9  C   UNL     1       5.382  29.936  56.274  1.00  0.00     0.203 A 
HETATM   10  C   UNL     1       4.938  28.767  55.385  1.00  0.00     0.062 A 
HETATM   11  H   UNL     1       3.431  30.373  52.958  1.00  0.00     0.184 HD
ENDROOT
BRANCH  10  12
HETATM   12  C   UNL     1       5.310  27.422  55.908  1.00  0.00     0.256 C 
HETATM   13  N   UNL     1       6.123  26.729  55.033  1.00  0.00    -0.323 N 
HETATM   14  H   UNL     1       6.270  27.134  54.119  1.00  0.00     0.169 HD
HETATM   15  O   UNL     1       4.939  27.084  57.021  1.00  0.00    -0.267 OA
BRANCH  13  16
HETATM   16  C   UNL     1       6.829  25.536  55.279  1.00  0.00     0.035 A 
HETATM   17  C   UNL     1       7.806  25.398  56.260  1.00  0.00     0.032 A 
HETATM   18  C   UNL     1       8.505  24.192  56.390  1.00  0.00     0.039 A 
HETATM   19  C   UNL     1       8.226  23.106  55.556  1.00  0.00     0.068 A 
HETATM   20  C   UNL     1       7.236  23.236  54.586  1.00  0.00     0.039 A 
HETATM   21  C   UNL     1       6.549  24.447  54.444  1.00  0.00     0.032 A 
BRANCH  19  22
HETATM   22  O   UNL     1       8.987  21.993  55.785  1.00  0.00    -0.356 OA
HETATM   23  C   UNL     1       8.439  21.005  56.649  1.00  0.00     0.210 C 
ENDBRANCH  19  22
ENDBRANCH  13  16
ENDBRANCH  10  12
BRANCH   9  24
HETATM   24  C   UNL     1       6.852  29.893  56.714  1.00  0.00    -0.017 A 
HETATM   25  C   UNL     1       7.272  30.417  57.981  1.00  0.00    -0.017 A 
HETATM   26  C   UNL     1       8.632  30.273  58.360  1.00  0.00    -0.025 A 
HETATM   27  C   UNL     1       6.424  31.092  58.898  1.00  0.00     0.013 A 
HETATM   28  C   UNL     1       9.081  30.756  59.602  1.00  0.00     0.012 A 
HETATM   29  C   UNL     1       9.541  29.654  57.493  1.00  0.00     0.012 A 
HETATM   30  C   UNL     1       8.215  31.401  60.480  1.00  0.00     0.001 A 
HETATM   31  C   UNL     1       6.888  31.575  60.125  1.00  0.00     0.001 A 
HETATM   32  C   UNL     1       9.141  29.197  56.243  1.00  0.00     0.002 A 
HETATM   33  C   UNL     1       7.814  29.327  55.850  1.00  0.00     0.010 A 
ENDBRANCH   9  24
TORSDOF 4
ENDMDL
MODEL 6
REMARK VINA RESULT:      -8.1      2.764      6.816
REMARK  4 active torsions:
REMARK  status: ('A' for Active; 'I' for Inactive)
REMARK    1  A    between atoms: C_9  and  C_10 
REMARK    2  A    between atoms: C_20  and  C_21 
REMARK       I    between atoms: C_21  and  N_22 
REMARK    3  A    between atoms: N_22  and  C_23 
REMARK    4  A    between atoms: C_26  and  O_27 
ROOT
HETATM    1  C   UNL     1       5.139  25.038  52.863  1.00  0.00     0.070 C 
HETATM    2  C   UNL     1       6.030  25.360  54.036  1.00  0.00     0.037 A 
HETATM    3  N   UNL     1       6.408  24.275  54.816  1.00  0.00    -0.192 N 
HETATM    4  C   UNL     1       7.258  24.366  55.854  1.00  0.00     0.725 A 
HETATM    5  N   UNL     1       7.811  25.580  56.172  1.00  0.00    -0.084 N 
HETATM    6  N   UNL     1       8.709  25.451  57.172  1.00  0.00    -0.149 NA
HETATM    7  C   UNL     1       8.583  24.152  57.459  1.00  0.00     0.275 A 
HETATM    8  N   UNL     1       7.713  23.449  56.668  1.00  0.00    -0.054 NA
HETATM    9  C   UNL     1       7.555  26.820  55.428  1.00  0.00     0.203 A 
HETATM   10  C   UNL     1       6.506  26.595  54.331  1.00  0.00     0.062 A 
HETATM   11  H   UNL     1       6.057  23.356  54.558  1.00  0.00     0.184 HD
ENDROOT
BRANCH  10  12
HETATM   12  C   UNL     1       6.107  27.831  53.601  1.00  0.00     0.256 C 
HETATM   13  N   UNL     1       4.776  28.144  53.794  1.00  0.00    -0.323 N 
HETATM   14  H   UNL     1       4.208  27.466  54.283  1.00  0.00     0.169 HD
HETATM   15  O   UNL     1       6.946  28.461  52.977  1.00  0.00    -0.267 OA
BRANCH  13  16
HETATM   16  C   UNL     1       4.113  29.334  53.439  1.00  0.00     0.035 A 
HETATM   17  C   UNL     1       3.675  29.626  52.151  1.00  0.00     0.032 A 
HETATM   18  C   UNL     1       3.083  30.864  51.875  1.00  0.00     0.039 A 
HETATM   19  C   UNL     1       2.907  31.818  52.881  1.00  0.00     0.068 A 
HETATM   20  C   UNL     1       3.328  31.520  54.174  1.00  0.00     0.039 A 
HETATM   21  C   UNL     1       3.935  30.289  54.448  1.00  0.00     0.032 A 
BRANCH  19  22
HETATM   22  O   UNL     1       2.325  32.985  52.474  1.00  0.00    -0.356 OA
HETATM   23  C   UNL     1       1.604  33.722  53.454  1.00  0.00     0.210 C 
ENDBRANCH  19  22
ENDBRANCH  13  16
ENDBRANCH  10  12
BRANCH   9  24
HETATM   24  C   UNL     1       7.242  27.967  56.399  1.00  0.00    -0.017 A 
HETATM   25  C   UNL     1       8.264  28.859  56.863  1.00  0.00    -0.017 A 
HETATM   26  C   UNL     1       7.892  29.947  57.695  1.00  0.00    -0.025 A 
HETATM   27  C   UNL     1       9.645  28.732  56.560  1.00  0.00     0.013 A 
HETATM   28  C   UNL     1       8.861  30.855  58.156  1.00  0.00     0.012 A 
HETATM   29  C   UNL     1       6.554  30.117  58.071  1.00  0.00     0.012 A 
HETATM   30  C   UNL     1      10.205  30.705  57.827  1.00  0.00     0.001 A 
HETATM   31  C   UNL     1      10.598  29.638  57.034  1.00  0.00     0.001 A 
HETATM   32  C   UNL     1       5.575  29.218  57.664  1.00  0.00     0.002 A 
HETATM   33  C   UNL     1       5.916  28.146  56.849  1.00  0.00     0.010 A 
ENDBRANCH   9  24
TORSDOF 4
ENDMDL
MODEL 7
REMARK VINA RESULT:      -8.0      4.583      7.490
REMARK  4 active torsions:
REMARK  status: ('A' for Active; 'I' for Inactive)
REMARK    1  A    between atoms: C_9  and  C_10 
REMARK    2  A    between atoms: C_20  and  C_21 
REMARK       I    between atoms: C_21  and  N_22 
REMARK    3  A    between atoms: N_22  and  C_23 
REMARK    4  A    between atoms: C_26  and  O_27 
ROOT
HETATM    1  C   UNL     1       2.966  25.098  47.368  1.00  0.00     0.070 C 
HETATM    2  C   UNL     1       2.470  26.522  47.349  1.00  0.00     0.037 A 
HETATM    3  N   UNL     1       1.326  26.746  46.594  1.00  0.00    -0.192 N 
HETATM    4  C   UNL     1       0.703  27.936  46.524  1.00  0.00     0.725 A 
HETATM    5  N   UNL     1       1.190  28.998  47.240  1.00  0.00    -0.084 N 
HETATM    6  N   UNL     1       0.377  30.071  47.121  1.00  0.00    -0.149 NA
HETATM    7  C   UNL     1      -0.530  29.605  46.257  1.00  0.00     0.275 A 
HETATM    8  N   UNL     1      -0.373  28.299  45.874  1.00  0.00    -0.054 NA
HETATM    9  C   UNL     1       2.362  28.927  48.122  1.00  0.00     0.203 A 
HETATM   10  C   UNL     1       3.027  27.546  48.041  1.00  0.00     0.062 A 
HETATM   11  H   UNL     1       0.914  25.956  46.104  1.00  0.00     0.184 HD
ENDROOT
BRANCH  10  12
HETATM   12  C   UNL     1       4.290  27.426  48.823  1.00  0.00     0.256 C 
HETATM   13  N   UNL     1       4.053  27.238  50.170  1.00  0.00    -0.323 N 
HETATM   14  H   UNL     1       3.097  27.324  50.488  1.00  0.00     0.169 HD
HETATM   15  O   UNL     1       5.363  27.444  48.241  1.00  0.00    -0.267 OA
BRANCH  13  16
HETATM   16  C   UNL     1       4.984  26.879  51.164  1.00  0.00     0.035 A 
HETATM   17  C   UNL     1       5.408  25.575  51.399  1.00  0.00     0.032 A 
HETATM   18  C   UNL     1       6.288  25.303  52.453  1.00  0.00     0.039 A 
HETATM   19  C   UNL     1       6.766  26.328  53.273  1.00  0.00     0.068 A 
HETATM   20  C   UNL     1       6.357  27.636  53.029  1.00  0.00     0.039 A 
HETATM   21  C   UNL     1       5.464  27.907  51.985  1.00  0.00     0.032 A 
BRANCH  19  22
HETATM   22  O   UNL     1       7.611  25.922  54.269  1.00  0.00    -0.356 OA
HETATM   23  C   UNL     1       7.839  24.523  54.390  1.00  0.00     0.210 C 
ENDBRANCH  19  22
ENDBRANCH  13  16
ENDBRANCH  10  12
BRANCH   9  24
HETATM   24  C   UNL     1       3.299  30.114  47.857  1.00  0.00    -0.017 A 
HETATM   25  C   UNL     1       3.828  30.907  48.927  1.00  0.00    -0.017 A 
HETATM   26  C   UNL     1       4.752  31.939  48.617  1.00  0.00    -0.025 A 
HETATM   27  C   UNL     1       3.486  30.749  50.296  1.00  0.00     0.013 A 
HETATM   28  C   UNL     1       5.309  32.728  49.640  1.00  0.00     0.012 A 
HETATM   29  C   UNL     1       5.110  32.184  47.286  1.00  0.00     0.012 A 
HETATM   30  C   UNL     1       4.958  32.533  50.972  1.00  0.00     0.001 A 
HETATM   31  C   UNL     1       4.041  31.548  51.300  1.00  0.00     0.001 A 
HETATM   32  C   UNL     1       4.553  31.448  46.247  1.00  0.00     0.002 A 
HETATM   33  C   UNL     1       3.646  30.433  46.526  1.00  0.00     0.010 A 
ENDBRANCH   9  24
TORSDOF 4
ENDMDL
MODEL 8
REMARK VINA RESULT:      -8.0      2.423      5.506
REMARK  4 active torsions:
REMARK  status: ('A' for Active; 'I' for Inactive)
REMARK    1  A    between atoms: C_9  and  C_10 
REMARK    2  A    between atoms: C_20  and  C_21 
REMARK       I    between atoms: C_21  and  N_22 
REMARK    3  A    between atoms: N_22  and  C_23 
REMARK    4  A    between atoms: C_26  and  O_27 
ROOT
HETATM    1  C   UNL     1       4.793  29.323  55.834  1.00  0.00     0.070 C 
HETATM    2  C   UNL     1       4.597  29.950  54.476  1.00  0.00     0.037 A 
HETATM    3  N   UNL     1       4.410  31.326  54.476  1.00  0.00    -0.192 N 
HETATM    4  C   UNL     1       4.295  32.060  53.354  1.00  0.00     0.725 A 
HETATM    5  N   UNL     1       4.380  31.446  52.132  1.00  0.00    -0.084 N 
HETATM    6  N   UNL     1       4.342  32.355  51.134  1.00  0.00    -0.149 NA
HETATM    7  C   UNL     1       4.151  33.482  51.827  1.00  0.00     0.275 A 
HETATM    8  N   UNL     1       4.127  33.347  53.189  1.00  0.00    -0.054 NA
HETATM    9  C   UNL     1       4.617  30.008  51.949  1.00  0.00     0.203 A 
HETATM   10  C   UNL     1       4.641  29.279  53.299  1.00  0.00     0.062 A 
HETATM   11  H   UNL     1       4.406  31.809  55.371  1.00  0.00     0.184 HD
ENDROOT
BRANCH  10  12
HETATM   12  C   UNL     1       4.766  27.798  53.196  1.00  0.00     0.256 C 
HETATM   13  N   UNL     1       6.084  27.390  53.123  1.00  0.00    -0.323 N 
HETATM   14  H   UNL     1       6.785  28.111  53.025  1.00  0.00     0.169 HD
HETATM   15  O   UNL     1       3.763  27.103  53.239  1.00  0.00    -0.267 OA
BRANCH  13  16
HETATM   16  C   UNL     1       6.583  26.078  53.228  1.00  0.00     0.035 A 
HETATM   17  C   UNL     1       6.471  25.292  54.370  1.00  0.00     0.032 A 
HETATM   18  C   UNL     1       7.057  24.020  54.406  1.00  0.00     0.039 A 
HETATM   19  C   UNL     1       7.746  23.514  53.301  1.00  0.00     0.068 A 
HETATM   20  C   UNL     1       7.843  24.292  52.151  1.00  0.00     0.039 A 
HETATM   21  C   UNL     1       7.273  25.571  52.119  1.00  0.00     0.032 A 
BRANCH  19  22
HETATM   22  O   UNL     1       8.275  22.265  53.474  1.00  0.00    -0.356 OA
HETATM   23  C   UNL     1       9.176  22.093  54.562  1.00  0.00     0.210 C 
ENDBRANCH  19  22
ENDBRANCH  13  16
ENDBRANCH  10  12
BRANCH   9  24
HETATM   24  C   UNL     1       3.633  29.434  50.920  1.00  0.00    -0.017 A 
HETATM   25  C   UNL     1       4.089  28.780  49.728  1.00  0.00    -0.017 A 
HETATM   26  C   UNL     1       3.127  28.201  48.859  1.00  0.00    -0.025 A 
HETATM   27  C   UNL     1       5.448  28.675  49.333  1.00  0.00     0.013 A 
HETATM   28  C   UNL     1       3.534  27.535  47.689  1.00  0.00     0.012 A 
HETATM   29  C   UNL     1       1.763  28.298  49.158  1.00  0.00     0.012 A 
HETATM   30  C   UNL     1       4.878  27.442  47.343  1.00  0.00     0.001 A 
HETATM   31  C   UNL     1       5.835  28.018  48.162  1.00  0.00     0.001 A 
HETATM   32  C   UNL     1       1.323  28.980  50.286  1.00  0.00     0.002 A 
HETATM   33  C   UNL     1       2.246  29.555  51.152  1.00  0.00     0.010 A 
ENDBRANCH   9  24
TORSDOF 4
ENDMDL
MODEL 9
REMARK VINA RESULT:      -7.9      1.904      4.423
REMARK  4 active torsions:
REMARK  status: ('A' for Active; 'I' for Inactive)
REMARK    1  A    between atoms: C_9  and  C_10 
REMARK    2  A    between atoms: C_20  and  C_21 
REMARK       I    between atoms: C_21  and  N_22 
REMARK    3  A    between atoms: N_22  and  C_23 
REMARK    4  A    between atoms: C_26  and  O_27 
ROOT
HETATM    1  C   UNL     1       6.462  28.211  57.390  1.00  0.00     0.070 C 
HETATM    2  C   UNL     1       5.810  28.695  56.119  1.00  0.00     0.037 A 
HETATM    3  N   UNL     1       4.753  29.579  56.287  1.00  0.00    -0.192 N 
HETATM    4  C   UNL     1       4.107  30.168  55.265  1.00  0.00     0.725 A 
HETATM    5  N   UNL     1       4.502  29.913  53.978  1.00  0.00    -0.084 N 
HETATM    6  N   UNL     1       3.803  30.668  53.103  1.00  0.00    -0.149 NA
HETATM    7  C   UNL     1       2.953  31.289  53.928  1.00  0.00     0.275 A 
HETATM    8  N   UNL     1       3.113  31.018  55.261  1.00  0.00    -0.054 NA
HETATM    9  C   UNL     1       5.626  29.038  53.621  1.00  0.00     0.203 A 
HETATM   10  C   UNL     1       6.216  28.366  54.867  1.00  0.00     0.062 A 
HETATM   11  H   UNL     1       4.486  29.828  57.236  1.00  0.00     0.184 HD
ENDROOT
BRANCH  10  12
HETATM   12  C   UNL     1       7.291  27.375  54.580  1.00  0.00     0.256 C 
HETATM   13  N   UNL     1       6.908  26.085  54.890  1.00  0.00    -0.323 N 
HETATM   14  H   UNL     1       6.029  25.968  55.374  1.00  0.00     0.169 HD
HETATM   15  O   UNL     1       8.336  27.749  54.071  1.00  0.00    -0.267 OA
BRANCH  13  16
HETATM   16  C   UNL     1       7.573  24.889  54.561  1.00  0.00     0.035 A 
HETATM   17  C   UNL     1       7.674  24.385  53.268  1.00  0.00     0.032 A 
HETATM   18  C   UNL     1       8.298  23.153  53.042  1.00  0.00     0.039 A 
HETATM   19  C   UNL     1       8.842  22.417  54.098  1.00  0.00     0.068 A 
HETATM   20  C   UNL     1       8.758  22.928  55.390  1.00  0.00     0.039 A 
HETATM   21  C   UNL     1       8.119  24.153  55.620  1.00  0.00     0.032 A 
BRANCH  19  22
HETATM   22  O   UNL     1       9.413  21.228  53.739  1.00  0.00    -0.356 OA
HETATM   23  C   UNL     1       8.593  20.308  53.030  1.00  0.00     0.210 C 
ENDBRANCH  19  22
ENDBRANCH  13  16
ENDBRANCH  10  12
BRANCH   9  24
HETATM   24  C   UNL     1       5.213  28.075  52.498  1.00  0.00    -0.017 A 
HETATM   25  C   UNL     1       5.279  28.458  51.118  1.00  0.00    -0.017 A 
HETATM   26  C   UNL     1       4.960  27.492  50.129  1.00  0.00    -0.025 A 
HETATM   27  C   UNL     1       5.630  29.752  50.654  1.00  0.00     0.013 A 
HETATM   28  C   UNL     1       5.029  27.822  48.763  1.00  0.00     0.012 A 
HETATM   29  C   UNL     1       4.564  26.203  50.507  1.00  0.00     0.012 A 
HETATM   30  C   UNL     1       5.391  29.099  48.347  1.00  0.00     0.001 A 
HETATM   31  C   UNL     1       5.685  30.067  49.294  1.00  0.00     0.001 A 
HETATM   32  C   UNL     1       4.450  25.853  51.847  1.00  0.00     0.002 A 
HETATM   33  C   UNL     1       4.757  26.782  52.834  1.00  0.00     0.010 A 
ENDBRANCH   9  24
TORSDOF 4
ENDMDL
MODEL 10
REMARK VINA RESULT:      -7.8      4.520      8.090
REMARK  4 active torsions:
REMARK  status: ('A' for Active; 'I' for Inactive)
REMARK    1  A    between atoms: C_9  and  C_10 
REMARK    2  A    between atoms: C_20  and  C_21 
REMARK       I    between atoms: C_21  and  N_22 
REMARK    3  A    between atoms: N_22  and  C_23 
REMARK    4  A    between atoms: C_26  and  O_27 
ROOT
HETATM    1  C   UNL     1       5.380  32.796  50.992  1.00  0.00     0.070 C 
HETATM    2  C   UNL     1       5.130  32.283  49.596  1.00  0.00     0.037 A 
HETATM    3  N   UNL     1       5.406  33.179  48.572  1.00  0.00    -0.192 N 
HETATM    4  C   UNL     1       5.313  32.867  47.266  1.00  0.00     0.725 A 
HETATM    5  N   UNL     1       4.946  31.600  46.898  1.00  0.00    -0.084 N 
HETATM    6  N   UNL     1       5.006  31.453  45.556  1.00  0.00    -0.149 NA
HETATM    7  C   UNL     1       5.337  32.693  45.182  1.00  0.00     0.275 A 
HETATM    8  N   UNL     1       5.545  33.587  46.199  1.00  0.00    -0.054 NA
HETATM    9  C   UNL     1       4.659  30.518  47.848  1.00  0.00     0.203 A 
HETATM   10  C   UNL     1       4.715  31.028  49.294  1.00  0.00     0.062 A 
HETATM   11  H   UNL     1       5.740  34.106  48.824  1.00  0.00     0.184 HD
ENDROOT
BRANCH  10  12
HETATM   12  C   UNL     1       4.327  30.017  50.318  1.00  0.00     0.256 C 
HETATM   13  N   UNL     1       5.316  29.073  50.518  1.00  0.00    -0.323 N 
HETATM   14  H   UNL     1       6.107  29.091  49.890  1.00  0.00     0.169 HD
HETATM   15  O   UNL     1       3.262  30.128  50.902  1.00  0.00    -0.267 OA
BRANCH  13  16
HETATM   16  C   UNL     1       5.386  28.107  51.540  1.00  0.00     0.035 A 
HETATM   17  C   UNL     1       5.727  28.393  52.859  1.00  0.00     0.032 A 
HETATM   18  C   UNL     1       5.836  27.359  53.795  1.00  0.00     0.039 A 
HETATM   19  C   UNL     1       5.592  26.031  53.433  1.00  0.00     0.068 A 
HETATM   20  C   UNL     1       5.233  25.745  52.119  1.00  0.00     0.039 A 
HETATM   21  C   UNL     1       5.140  26.777  51.177  1.00  0.00     0.032 A 
BRANCH  19  22
HETATM   22  O   UNL     1       5.742  25.121  54.442  1.00  0.00    -0.356 OA
HETATM   23  C   UNL     1       6.659  24.057  54.217  1.00  0.00     0.210 C 
ENDBRANCH  19  22
ENDBRANCH  13  16
ENDBRANCH  10  12
BRANCH   9  24
HETATM   24  C   UNL     1       3.356  29.803  47.463  1.00  0.00    -0.017 A 
HETATM   25  C   UNL     1       3.270  28.372  47.416  1.00  0.00    -0.017 A 
HETATM   26  C   UNL     1       2.013  27.776  47.131  1.00  0.00    -0.025 A 
HETATM   27  C   UNL     1       4.361  27.489  47.624  1.00  0.00     0.013 A 
HETATM   28  C   UNL     1       1.881  26.377  47.095  1.00  0.00     0.012 A 
HETATM   29  C   UNL     1       0.896  28.581  46.875  1.00  0.00     0.012 A 
HETATM   30  C   UNL     1       2.973  25.543  47.317  1.00  0.00     0.001 A 
HETATM   31  C   UNL     1       4.215  26.100  47.575  1.00  0.00     0.001 A 
HETATM   32  C   UNL     1       0.998  29.967  46.868  1.00  0.00     0.002 A 
HETATM   33  C   UNL     1       2.218  30.573  47.144  1.00  0.00     0.010 A 
ENDBRANCH   9  24
TORSDOF 4
ENDMDL
