MODEL 1
REMARK VINA RESULT:     -11.3      0.000      0.000
REMARK  7 active torsions:
REMARK  status: ('A' for Active; 'I' for Inactive)
REMARK    1  A    between atoms: C_6  and  N_7 
REMARK       I    between atoms: N_7  and  C_8 
REMARK    2  A    between atoms: C_8  and  C_9 
REMARK    3  A    between atoms: C_9  and  N_10 
REMARK    4  A    between atoms: N_13  and  C_14 
REMARK    5  A    between atoms: C_14  and  C_15 
REMARK    6  A    between atoms: C_30  and  C_31 
REMARK       I    between atoms: C_31  and  N_32 
REMARK    7  A    between atoms: N_32  and  C_33 
ROOT
HETATM    1  N   UNL     1       7.264  30.025  57.958  1.00  0.00    -0.290 N 
HETATM    2  C   UNL     1       7.777  28.760  57.718  1.00  0.00     0.332 C 
HETATM    3  O   UNL     1       8.993  28.554  57.797  1.00  0.00    -0.246 OA
HETATM    4  N   UNL     1       6.871  27.762  57.401  1.00  0.00    -0.261 N 
HETATM    5  C   UNL     1       5.527  27.976  57.137  1.00  0.00     0.264 C 
HETATM    6  O   UNL     1       4.727  27.083  56.865  1.00  0.00    -0.267 OA
HETATM    7  C   UNL     1       5.051  29.368  57.208  1.00  0.00     0.059 A 
HETATM    8  C   UNL     1       5.926  30.367  57.635  1.00  0.00     0.056 A 
HETATM    9  C   UNL     1       3.716  29.659  56.887  1.00  0.00     0.020 A 
HETATM   10  C   UNL     1       3.237  30.964  56.996  1.00  0.00     0.018 A 
HETATM   11  C   UNL     1       4.098  31.976  57.427  1.00  0.00     0.034 A 
HETATM   12  C   UNL     1       5.441  31.679  57.724  1.00  0.00     0.048 A 
ENDROOT
BRANCH   1  13
HETATM   13  C   UNL     1       8.126  30.966  58.678  1.00  0.00     0.237 C 
BRANCH  13  14
HETATM   14  C   UNL     1       8.025  30.914  60.203  1.00  0.00     0.240 C 
HETATM   15  N   UNL     1       7.069  31.772  60.715  1.00  0.00    -0.325 N 
HETATM   16  H   UNL     1       6.428  32.179  60.036  1.00  0.00     0.169 HD
HETATM   17  O   UNL     1       8.795  30.207  60.847  1.00  0.00    -0.271 OA
BRANCH  15  18
HETATM   18  C   UNL     1       6.933  32.213  62.052  1.00  0.00     0.040 A 
HETATM   19  C   UNL     1       5.643  32.461  62.563  1.00  0.00    -0.035 A 
HETATM   20  C   UNL     1       5.502  33.016  63.850  1.00  0.00     0.015 A 
HETATM   21  C   UNL     1       4.394  32.162  61.775  1.00  0.00     0.050 C 
HETATM   22  C   UNL     1       6.619  33.309  64.639  1.00  0.00    -0.061 A 
HETATM   23  C   UNL     1       6.471  33.942  65.991  1.00  0.00     0.048 C 
HETATM   24  C   UNL     1       7.890  33.029  64.136  1.00  0.00     0.009 A 
HETATM   25  C   UNL     1       8.043  32.483  62.859  1.00  0.00     0.030 A 
ENDBRANCH  15  18
ENDBRANCH  13  14
ENDBRANCH   1  13
BRANCH   4  26
HETATM   26  C   UNL     1       7.355  26.386  57.428  1.00  0.00     0.175 C 
BRANCH  26  27
HETATM   27  C   UNL     1       7.396  25.802  56.026  1.00  0.00    -0.037 A 
HETATM   28  C   UNL     1       7.364  24.410  55.835  1.00  0.00     0.048 A 
HETATM   29  C   UNL     1       7.515  23.927  54.552  1.00  0.00     0.105 A 
HETATM   30  C   UNL     1       7.682  24.766  53.475  1.00  0.00     0.105 A 
HETATM   31  O   UNL     1       7.544  22.615  54.196  1.00  0.00    -0.323 OA
HETATM   32  O   UNL     1       7.836  24.088  52.307  1.00  0.00    -0.323 OA
HETATM   33  C   UNL     1       7.700  26.135  53.618  1.00  0.00     0.040 A 
HETATM   34  C   UNL     1       7.769  22.725  52.775  1.00  0.00     0.352 A 
HETATM   35  C   UNL     1       7.558  26.655  54.908  1.00  0.00     0.012 A 
ENDBRANCH  26  27
ENDBRANCH   4  26
BRANCH  11  36
HETATM   36  C   UNL     1       3.648  33.387  57.572  1.00  0.00     0.252 C 
HETATM   37  N   UNL     1       3.227  33.758  58.828  1.00  0.00    -0.352 N 
HETATM   38  H   UNL     1       3.380  33.099  59.578  1.00  0.00     0.163 HD
HETATM   39  O   UNL     1       3.720  34.126  56.603  1.00  0.00    -0.268 OA
BRANCH  37  40
HETATM   40  C   UNL     1       2.894  35.118  59.259  1.00  0.00     0.084 C 
HETATM   41  C   UNL     1       1.672  35.167  60.186  1.00  0.00     0.025 C 
HETATM   42  C   UNL     1       2.002  35.081  61.672  1.00  0.00     0.002 C 
HETATM   43  C   UNL     1       3.060  36.101  62.068  1.00  0.00     0.000 C 
HETATM   44  C   UNL     1       4.337  35.943  61.254  1.00  0.00     0.002 C 
HETATM   45  C   UNL     1       4.085  35.955  59.748  1.00  0.00     0.025 C 
ENDBRANCH  37  40
ENDBRANCH  11  36
TORSDOF 7
ENDMDL
MODEL 2
REMARK VINA RESULT:     -11.3      2.130      9.016
REMARK  7 active torsions:
REMARK  status: ('A' for Active; 'I' for Inactive)
REMARK    1  A    between atoms: C_6  and  N_7 
REMARK       I    between atoms: N_7  and  C_8 
REMARK    2  A    between atoms: C_8  and  C_9 
REMARK    3  A    between atoms: C_9  and  N_10 
REMARK    4  A    between atoms: N_13  and  C_14 
REMARK    5  A    between atoms: C_14  and  C_15 
REMARK    6  A    between atoms: C_30  and  C_31 
REMARK       I    between atoms: C_31  and  N_32 
REMARK    7  A    between atoms: N_32  and  C_33 
ROOT
HETATM    1  N   UNL     1       7.063  29.801  57.426  1.00  0.00    -0.290 N 
HETATM    2  C   UNL     1       6.175  30.864  57.423  1.00  0.00     0.332 C 
HETATM    3  O   UNL     1       6.518  31.966  57.864  1.00  0.00    -0.246 OA
HETATM    4  N   UNL     1       4.913  30.630  56.903  1.00  0.00    -0.261 N 
HETATM    5  C   UNL     1       4.426  29.380  56.553  1.00  0.00     0.264 C 
HETATM    6  O   UNL     1       3.308  29.182  56.084  1.00  0.00    -0.267 OA
HETATM    7  C   UNL     1       5.333  28.236  56.754  1.00  0.00     0.059 A 
HETATM    8  C   UNL     1       6.643  28.470  57.171  1.00  0.00     0.056 A 
HETATM    9  C   UNL     1       4.876  26.937  56.482  1.00  0.00     0.020 A 
HETATM   10  C   UNL     1       5.737  25.848  56.621  1.00  0.00     0.018 A 
HETATM   11  C   UNL     1       7.054  26.065  57.033  1.00  0.00     0.034 A 
HETATM   12  C   UNL     1       7.495  27.368  57.326  1.00  0.00     0.048 A 
ENDROOT
BRANCH   1  13
HETATM   13  C   UNL     1       8.484  30.123  57.579  1.00  0.00     0.237 C 
BRANCH  13  14
HETATM   14  C   UNL     1       8.830  31.013  58.773  1.00  0.00     0.240 C 
HETATM   15  N   UNL     1       8.043  30.767  59.884  1.00  0.00    -0.325 N 
HETATM   16  H   UNL     1       7.480  29.918  59.849  1.00  0.00     0.169 HD
HETATM   17  O   UNL     1       9.687  31.885  58.662  1.00  0.00    -0.271 OA
BRANCH  15  18
HETATM   18  C   UNL     1       7.870  31.592  61.018  1.00  0.00     0.040 A 
HETATM   19  C   UNL     1       8.571  31.285  62.202  1.00  0.00    -0.035 A 
HETATM   20  C   UNL     1       8.312  32.026  63.372  1.00  0.00     0.015 A 
HETATM   21  C   UNL     1       9.589  30.178  62.270  1.00  0.00     0.050 C 
HETATM   22  C   UNL     1       7.385  33.074  63.377  1.00  0.00    -0.061 A 
HETATM   23  C   UNL     1       7.077  33.833  64.634  1.00  0.00     0.048 C 
HETATM   24  C   UNL     1       6.722  33.390  62.192  1.00  0.00     0.009 A 
HETATM   25  C   UNL     1       6.965  32.659  61.025  1.00  0.00     0.030 A 
ENDBRANCH  15  18
ENDBRANCH  13  14
ENDBRANCH   1  13
BRANCH   4  26
HETATM   26  C   UNL     1       4.075  31.793  56.632  1.00  0.00     0.175 C 
BRANCH  26  27
HETATM   27  C   UNL     1       3.670  32.479  57.926  1.00  0.00    -0.037 A 
HETATM   28  C   UNL     1       3.625  33.881  58.003  1.00  0.00     0.048 A 
HETATM   29  C   UNL     1       3.360  34.455  59.229  1.00  0.00     0.105 A 
HETATM   30  C   UNL     1       3.131  33.696  60.353  1.00  0.00     0.105 A 
HETATM   31  O   UNL     1       3.316  35.790  59.488  1.00  0.00    -0.323 OA
HETATM   32  O   UNL     1       2.913  34.456  61.458  1.00  0.00    -0.323 OA
HETATM   33  C   UNL     1       3.146  32.320  60.314  1.00  0.00     0.040 A 
HETATM   34  C   UNL     1       3.052  35.782  60.907  1.00  0.00     0.352 A 
HETATM   35  C   UNL     1       3.422  31.708  59.087  1.00  0.00     0.012 A 
ENDBRANCH  26  27
ENDBRANCH   4  26
BRANCH  11  36
HETATM   36  C   UNL     1       8.025  24.948  57.193  1.00  0.00     0.252 C 
HETATM   37  N   UNL     1       7.924  23.928  56.276  1.00  0.00    -0.352 N 
HETATM   38  H   UNL     1       7.302  24.072  55.492  1.00  0.00     0.163 HD
HETATM   39  O   UNL     1       8.861  25.023  58.079  1.00  0.00    -0.268 OA
BRANCH  37  40
HETATM   40  C   UNL     1       8.857  22.809  56.124  1.00  0.00     0.084 C 
HETATM   41  C   UNL     1       8.387  21.538  56.846  1.00  0.00     0.025 C 
HETATM   42  C   UNL     1       7.557  20.593  55.985  1.00  0.00     0.002 C 
HETATM   43  C   UNL     1       8.257  20.277  54.670  1.00  0.00     0.000 C 
HETATM   44  C   UNL     1       8.576  21.537  53.877  1.00  0.00     0.002 C 
HETATM   45  C   UNL     1       9.356  22.568  54.692  1.00  0.00     0.025 C 
ENDBRANCH  37  40
ENDBRANCH  11  36
TORSDOF 7
ENDMDL
MODEL 3
REMARK VINA RESULT:     -10.6      1.779      2.673
REMARK  7 active torsions:
REMARK  status: ('A' for Active; 'I' for Inactive)
REMARK    1  A    between atoms: C_6  and  N_7 
REMARK       I    between atoms: N_7  and  C_8 
REMARK    2  A    between atoms: C_8  and  C_9 
REMARK    3  A    between atoms: C_9  and  N_10 
REMARK    4  A    between atoms: N_13  and  C_14 
REMARK    5  A    between atoms: C_14  and  C_15 
REMARK    6  A    between atoms: C_30  and  C_31 
REMARK       I    between atoms: C_31  and  N_32 
REMARK    7  A    between atoms: N_32  and  C_33 
ROOT
HETATM    1  N   UNL     1       7.254  29.750  57.644  1.00  0.00    -0.290 N 
HETATM    2  C   UNL     1       7.711  28.449  57.512  1.00  0.00     0.332 C 
HETATM    3  O   UNL     1       8.916  28.198  57.614  1.00  0.00    -0.246 OA
HETATM    4  N   UNL     1       6.763  27.468  57.273  1.00  0.00    -0.261 N 
HETATM    5  C   UNL     1       5.430  27.718  56.986  1.00  0.00     0.264 C 
HETATM    6  O   UNL     1       4.592  26.841  56.784  1.00  0.00    -0.267 OA
HETATM    7  C   UNL     1       5.015  29.130  56.940  1.00  0.00     0.059 A 
HETATM    8  C   UNL     1       5.932  30.122  57.288  1.00  0.00     0.056 A 
HETATM    9  C   UNL     1       3.694  29.451  56.590  1.00  0.00     0.020 A 
HETATM   10  C   UNL     1       3.272  30.780  56.589  1.00  0.00     0.018 A 
HETATM   11  C   UNL     1       4.176  31.786  56.939  1.00  0.00     0.034 A 
HETATM   12  C   UNL     1       5.504  31.457  57.266  1.00  0.00     0.048 A 
ENDROOT
BRANCH   1  13
HETATM   13  C   UNL     1       8.154  30.709  58.289  1.00  0.00     0.237 C 
BRANCH  13  14
HETATM   14  C   UNL     1       8.129  30.707  59.818  1.00  0.00     0.240 C 
HETATM   15  N   UNL     1       7.147  31.524  60.348  1.00  0.00    -0.325 N 
HETATM   16  H   UNL     1       6.448  31.864  59.687  1.00  0.00     0.169 HD
HETATM   17  O   UNL     1       8.973  30.075  60.447  1.00  0.00    -0.271 OA
BRANCH  15  18
HETATM   18  C   UNL     1       7.047  32.004  61.673  1.00  0.00     0.040 A 
HETATM   19  C   UNL     1       5.795  32.450  62.148  1.00  0.00    -0.035 A 
HETATM   20  C   UNL     1       5.710  33.044  63.422  1.00  0.00     0.015 A 
HETATM   21  C   UNL     1       4.535  32.325  61.333  1.00  0.00     0.050 C 
HETATM   22  C   UNL     1       6.839  33.183  64.235  1.00  0.00    -0.061 A 
HETATM   23  C   UNL     1       6.756  33.856  65.573  1.00  0.00     0.048 C 
HETATM   24  C   UNL     1       8.065  32.709  63.769  1.00  0.00     0.009 A 
HETATM   25  C   UNL     1       8.166  32.123  62.504  1.00  0.00     0.030 A 
ENDBRANCH  15  18
ENDBRANCH  13  14
ENDBRANCH   1  13
BRANCH   4  26
HETATM   26  C   UNL     1       7.187  26.080  57.416  1.00  0.00     0.175 C 
BRANCH  26  27
HETATM   27  C   UNL     1       7.300  25.409  56.057  1.00  0.00    -0.037 A 
HETATM   28  C   UNL     1       7.279  24.008  55.953  1.00  0.00     0.048 A 
HETATM   29  C   UNL     1       7.497  23.446  54.712  1.00  0.00     0.105 A 
HETATM   30  C   UNL     1       7.717  24.216  53.594  1.00  0.00     0.105 A 
HETATM   31  O   UNL     1       7.546  22.114  54.441  1.00  0.00    -0.323 OA
HETATM   32  O   UNL     1       7.932  23.467  52.481  1.00  0.00    -0.323 OA
HETATM   33  C   UNL     1       7.726  25.592  53.651  1.00  0.00     0.040 A 
HETATM   34  C   UNL     1       7.842  22.136  53.029  1.00  0.00     0.352 A 
HETATM   35  C   UNL     1       7.518  26.191  54.898  1.00  0.00     0.012 A 
ENDBRANCH  26  27
ENDBRANCH   4  26
BRANCH  11  36
HETATM   36  C   UNL     1       3.787  33.222  56.966  1.00  0.00     0.252 C 
HETATM   37  N   UNL     1       4.535  34.062  56.174  1.00  0.00    -0.352 N 
HETATM   38  H   UNL     1       5.193  33.632  55.538  1.00  0.00     0.163 HD
HETATM   39  O   UNL     1       2.823  33.554  57.636  1.00  0.00    -0.268 OA
BRANCH  37  40
HETATM   40  C   UNL     1       4.251  35.474  55.905  1.00  0.00     0.084 C 
HETATM   41  C   UNL     1       5.523  36.315  55.728  1.00  0.00     0.025 C 
HETATM   42  C   UNL     1       6.008  36.432  54.287  1.00  0.00     0.002 C 
HETATM   43  C   UNL     1       4.890  36.884  53.357  1.00  0.00     0.000 C 
HETATM   44  C   UNL     1       3.688  35.951  53.415  1.00  0.00     0.002 C 
HETATM   45  C   UNL     1       3.177  35.729  54.838  1.00  0.00     0.025 C 
ENDBRANCH  37  40
ENDBRANCH  11  36
TORSDOF 7
ENDMDL
MODEL 4
REMARK VINA RESULT:     -10.6      4.251     10.268
REMARK  7 active torsions:
REMARK  status: ('A' for Active; 'I' for Inactive)
REMARK    1  A    between atoms: C_6  and  N_7 
REMARK       I    between atoms: N_7  and  C_8 
REMARK    2  A    between atoms: C_8  and  C_9 
REMARK    3  A    between atoms: C_9  and  N_10 
REMARK    4  A    between atoms: N_13  and  C_14 
REMARK    5  A    between atoms: C_14  and  C_15 
REMARK    6  A    between atoms: C_30  and  C_31 
REMARK       I    between atoms: C_31  and  N_32 
REMARK    7  A    between atoms: N_32  and  C_33 
ROOT
HETATM    1  N   UNL     1       5.377  28.519  54.328  1.00  0.00    -0.290 N 
HETATM    2  C   UNL     1       5.236  28.486  55.707  1.00  0.00     0.332 C 
HETATM    3  O   UNL     1       5.739  27.569  56.364  1.00  0.00    -0.246 OA
HETATM    4  N   UNL     1       4.523  29.519  56.292  1.00  0.00    -0.261 N 
HETATM    5  C   UNL     1       3.802  30.472  55.590  1.00  0.00     0.264 C 
HETATM    6  O   UNL     1       3.179  31.391  56.117  1.00  0.00    -0.267 OA
HETATM    7  C   UNL     1       3.812  30.362  54.121  1.00  0.00     0.059 A 
HETATM    8  C   UNL     1       4.615  29.397  53.515  1.00  0.00     0.056 A 
HETATM    9  C   UNL     1       3.048  31.258  53.356  1.00  0.00     0.020 A 
HETATM   10  C   UNL     1       3.085  31.198  51.963  1.00  0.00     0.018 A 
HETATM   11  C   UNL     1       3.888  30.240  51.340  1.00  0.00     0.034 A 
HETATM   12  C   UNL     1       4.632  29.332  52.115  1.00  0.00     0.048 A 
ENDROOT
BRANCH   1  13
HETATM   13  C   UNL     1       6.442  27.695  53.751  1.00  0.00     0.237 C 
BRANCH  13  14
HETATM   14  C   UNL     1       6.208  26.185  53.805  1.00  0.00     0.240 C 
HETATM   15  N   UNL     1       7.271  25.488  54.350  1.00  0.00    -0.325 N 
HETATM   16  H   UNL     1       7.978  26.052  54.819  1.00  0.00     0.169 HD
HETATM   17  O   UNL     1       5.183  25.704  53.331  1.00  0.00    -0.271 OA
BRANCH  15  18
HETATM   18  C   UNL     1       7.529  24.101  54.260  1.00  0.00     0.040 A 
HETATM   19  C   UNL     1       7.788  23.375  55.441  1.00  0.00    -0.035 A 
HETATM   20  C   UNL     1       8.168  22.022  55.352  1.00  0.00     0.015 A 
HETATM   21  C   UNL     1       7.685  23.999  56.808  1.00  0.00     0.050 C 
HETATM   22  C   UNL     1       8.275  21.377  54.116  1.00  0.00    -0.061 A 
HETATM   23  C   UNL     1       8.722  19.949  54.019  1.00  0.00     0.048 C 
HETATM   24  C   UNL     1       7.984  22.096  52.956  1.00  0.00     0.009 A 
HETATM   25  C   UNL     1       7.612  23.442  53.030  1.00  0.00     0.030 A 
ENDBRANCH  15  18
ENDBRANCH  13  14
ENDBRANCH   1  13
BRANCH   4  26
HETATM   26  C   UNL     1       4.608  29.652  57.742  1.00  0.00     0.175 C 
BRANCH  26  27
HETATM   27  C   UNL     1       5.801  30.507  58.135  1.00  0.00    -0.037 A 
HETATM   28  C   UNL     1       7.106  30.094  57.819  1.00  0.00     0.048 A 
HETATM   29  C   UNL     1       8.159  30.848  58.293  1.00  0.00     0.105 A 
HETATM   30  C   UNL     1       7.959  31.982  59.045  1.00  0.00     0.105 A 
HETATM   31  O   UNL     1       9.479  30.572  58.113  1.00  0.00    -0.323 OA
HETATM   32  O   UNL     1       9.127  32.562  59.431  1.00  0.00    -0.323 OA
HETATM   33  C   UNL     1       6.697  32.431  59.360  1.00  0.00     0.040 A 
HETATM   34  C   UNL     1      10.085  31.652  58.854  1.00  0.00     0.352 A 
HETATM   35  C   UNL     1       5.609  31.682  58.901  1.00  0.00     0.012 A 
ENDBRANCH  26  27
ENDBRANCH   4  26
BRANCH  11  36
HETATM   36  C   UNL     1       3.978  30.128  49.858  1.00  0.00     0.252 C 
HETATM   37  N   UNL     1       4.000  28.850  49.352  1.00  0.00    -0.352 N 
HETATM   38  H   UNL     1       3.820  28.095  49.999  1.00  0.00     0.163 HD
HETATM   39  O   UNL     1       3.979  31.153  49.195  1.00  0.00    -0.268 OA
BRANCH  37  40
HETATM   40  C   UNL     1       3.922  28.481  47.937  1.00  0.00     0.084 C 
HETATM   41  C   UNL     1       4.702  27.201  47.609  1.00  0.00     0.025 C 
HETATM   42  C   UNL     1       3.880  25.920  47.695  1.00  0.00     0.002 C 
HETATM   43  C   UNL     1       2.594  26.028  46.887  1.00  0.00     0.000 C 
HETATM   44  C   UNL     1       1.741  27.210  47.327  1.00  0.00     0.002 C 
HETATM   45  C   UNL     1       2.512  28.529  47.330  1.00  0.00     0.025 C 
ENDBRANCH  37  40
ENDBRANCH  11  36
TORSDOF 7
ENDMDL
MODEL 5
REMARK VINA RESULT:     -10.5      4.340     10.008
REMARK  7 active torsions:
REMARK  status: ('A' for Active; 'I' for Inactive)
REMARK    1  A    between atoms: C_6  and  N_7 
REMARK       I    between atoms: N_7  and  C_8 
REMARK    2  A    between atoms: C_8  and  C_9 
REMARK    3  A    between atoms: C_9  and  N_10 
REMARK    4  A    between atoms: N_13  and  C_14 
REMARK    5  A    between atoms: C_14  and  C_15 
REMARK    6  A    between atoms: C_30  and  C_31 
REMARK       I    between atoms: C_31  and  N_32 
REMARK    7  A    between atoms: N_32  and  C_33 
ROOT
HETATM    1  N   UNL     1       4.031  28.955  54.267  1.00  0.00    -0.290 N 
HETATM    2  C   UNL     1       4.009  29.139  55.640  1.00  0.00     0.332 C 
HETATM    3  O   UNL     1       3.749  28.193  56.392  1.00  0.00    -0.246 OA
HETATM    4  N   UNL     1       4.292  30.409  56.111  1.00  0.00    -0.261 N 
HETATM    5  C   UNL     1       4.423  31.533  55.311  1.00  0.00     0.264 C 
HETATM    6  O   UNL     1       4.684  32.657  55.736  1.00  0.00    -0.267 OA
HETATM    7  C   UNL     1       4.246  31.339  53.861  1.00  0.00     0.059 A 
HETATM    8  C   UNL     1       4.071  30.048  53.363  1.00  0.00     0.056 A 
HETATM    9  C   UNL     1       4.300  32.449  53.003  1.00  0.00     0.020 A 
HETATM   10  C   UNL     1       4.183  32.276  51.624  1.00  0.00     0.018 A 
HETATM   11  C   UNL     1       4.012  30.989  51.108  1.00  0.00     0.034 A 
HETATM   12  C   UNL     1       3.936  29.885  51.977  1.00  0.00     0.048 A 
ENDROOT
BRANCH   1  13
HETATM   13  C   UNL     1       4.142  27.577  53.783  1.00  0.00     0.237 C 
BRANCH  13  14
HETATM   14  C   UNL     1       5.529  26.946  53.909  1.00  0.00     0.240 C 
HETATM   15  N   UNL     1       5.511  25.566  53.820  1.00  0.00    -0.325 N 
HETATM   16  H   UNL     1       4.638  25.154  53.492  1.00  0.00     0.169 HD
HETATM   17  O   UNL     1       6.508  27.652  54.136  1.00  0.00    -0.271 OA
BRANCH  15  18
HETATM   18  C   UNL     1       6.527  24.663  54.206  1.00  0.00     0.040 A 
HETATM   19  C   UNL     1       7.464  24.234  53.244  1.00  0.00    -0.035 A 
HETATM   20  C   UNL     1       8.404  23.242  53.586  1.00  0.00     0.015 A 
HETATM   21  C   UNL     1       7.494  24.792  51.845  1.00  0.00     0.050 C 
HETATM   22  C   UNL     1       8.438  22.687  54.869  1.00  0.00    -0.061 A 
HETATM   23  C   UNL     1       9.409  21.599  55.220  1.00  0.00     0.048 C 
HETATM   24  C   UNL     1       7.528  23.142  55.823  1.00  0.00     0.009 A 
HETATM   25  C   UNL     1       6.586  24.122  55.495  1.00  0.00     0.030 A 
ENDBRANCH  15  18
ENDBRANCH  13  14
ENDBRANCH   1  13
BRANCH   4  26
HETATM   26  C   UNL     1       4.551  30.550  57.540  1.00  0.00     0.175 C 
BRANCH  26  27
HETATM   27  C   UNL     1       6.039  30.446  57.831  1.00  0.00    -0.037 A 
HETATM   28  C   UNL     1       6.713  31.500  58.471  1.00  0.00     0.048 A 
HETATM   29  C   UNL     1       8.081  31.405  58.613  1.00  0.00     0.105 A 
HETATM   30  C   UNL     1       8.784  30.314  58.159  1.00  0.00     0.105 A 
HETATM   31  O   UNL     1       8.889  32.345  59.172  1.00  0.00    -0.323 OA
HETATM   32  O   UNL     1      10.121  30.429  58.376  1.00  0.00    -0.323 OA
HETATM   33  C   UNL     1       8.159  29.252  57.544  1.00  0.00     0.040 A 
HETATM   34  C   UNL     1      10.183  31.728  58.999  1.00  0.00     0.352 A 
HETATM   35  C   UNL     1       6.772  29.324  57.377  1.00  0.00     0.012 A 
ENDBRANCH  26  27
ENDBRANCH   4  26
BRANCH  11  36
HETATM   36  C   UNL     1       3.889  30.735  49.647  1.00  0.00     0.252 C 
HETATM   37  N   UNL     1       4.121  29.442  49.239  1.00  0.00    -0.352 N 
HETATM   38  H   UNL     1       4.222  28.742  49.961  1.00  0.00     0.163 HD
HETATM   39  O   UNL     1       3.552  31.656  48.920  1.00  0.00    -0.268 OA
BRANCH  37  40
HETATM   40  C   UNL     1       3.905  28.911  47.891  1.00  0.00     0.084 C 
HETATM   41  C   UNL     1       4.932  27.839  47.501  1.00  0.00     0.025 C 
HETATM   42  C   UNL     1       4.508  26.410  47.825  1.00  0.00     0.002 C 
HETATM   43  C   UNL     1       3.123  26.101  47.274  1.00  0.00     0.000 C 
HETATM   44  C   UNL     1       2.073  27.073  47.795  1.00  0.00     0.002 C 
HETATM   45  C   UNL     1       2.452  28.535  47.566  1.00  0.00     0.025 C 
ENDBRANCH  37  40
ENDBRANCH  11  36
TORSDOF 7
ENDMDL
MODEL 6
REMARK VINA RESULT:     -10.3      2.924      8.344
REMARK  7 active torsions:
REMARK  status: ('A' for Active; 'I' for Inactive)
REMARK    1  A    between atoms: C_6  and  N_7 
REMARK       I    between atoms: N_7  and  C_8 
REMARK    2  A    between atoms: C_8  and  C_9 
REMARK    3  A    between atoms: C_9  and  N_10 
REMARK    4  A    between atoms: N_13  and  C_14 
REMARK    5  A    between atoms: C_14  and  C_15 
REMARK    6  A    between atoms: C_30  and  C_31 
REMARK       I    between atoms: C_31  and  N_32 
REMARK    7  A    between atoms: N_32  and  C_33 
ROOT
HETATM    1  N   UNL     1       6.543  30.249  57.042  1.00  0.00    -0.290 N 
HETATM    2  C   UNL     1       5.635  31.275  56.835  1.00  0.00     0.332 C 
HETATM    3  O   UNL     1       5.747  32.340  57.450  1.00  0.00    -0.246 OA
HETATM    4  N   UNL     1       4.624  31.047  55.917  1.00  0.00    -0.261 N 
HETATM    5  C   UNL     1       4.358  29.820  55.330  1.00  0.00     0.264 C 
HETATM    6  O   UNL     1       3.464  29.627  54.509  1.00  0.00    -0.267 OA
HETATM    7  C   UNL     1       5.225  28.695  55.723  1.00  0.00     0.059 A 
HETATM    8  C   UNL     1       6.315  28.934  56.559  1.00  0.00     0.056 A 
HETATM    9  C   UNL     1       4.965  27.412  55.214  1.00  0.00     0.020 A 
HETATM   10  C   UNL     1       5.805  26.347  55.537  1.00  0.00     0.018 A 
HETATM   11  C   UNL     1       6.904  26.570  56.370  1.00  0.00     0.034 A 
HETATM   12  C   UNL     1       7.143  27.854  56.894  1.00  0.00     0.048 A 
ENDROOT
BRANCH   1  13
HETATM   13  C   UNL     1       7.816  30.605  57.673  1.00  0.00     0.237 C 
BRANCH  13  14
HETATM   14  C   UNL     1       7.836  30.529  59.200  1.00  0.00     0.240 C 
HETATM   15  N   UNL     1       7.029  31.476  59.804  1.00  0.00    -0.325 N 
HETATM   16  H   UNL     1       6.382  31.966  59.187  1.00  0.00     0.169 HD
HETATM   17  O   UNL     1       8.573  29.727  59.767  1.00  0.00    -0.271 OA
BRANCH  15  18
HETATM   18  C   UNL     1       7.054  31.897  61.153  1.00  0.00     0.040 A 
HETATM   19  C   UNL     1       5.876  32.414  61.731  1.00  0.00    -0.035 A 
HETATM   20  C   UNL     1       5.921  32.949  63.033  1.00  0.00     0.015 A 
HETATM   21  C   UNL     1       4.559  32.426  61.000  1.00  0.00     0.050 C 
HETATM   22  C   UNL     1       7.108  32.961  63.772  1.00  0.00    -0.061 A 
HETATM   23  C   UNL     1       7.166  33.572  65.141  1.00  0.00     0.048 C 
HETATM   24  C   UNL     1       8.259  32.418  63.203  1.00  0.00     0.009 A 
HETATM   25  C   UNL     1       8.230  31.888  61.910  1.00  0.00     0.030 A 
ENDBRANCH  15  18
ENDBRANCH  13  14
ENDBRANCH   1  13
BRANCH   4  26
HETATM   26  C   UNL     1       3.843  32.200  55.482  1.00  0.00     0.175 C 
BRANCH  26  27
HETATM   27  C   UNL     1       4.520  32.899  54.315  1.00  0.00    -0.037 A 
HETATM   28  C   UNL     1       5.376  33.990  54.541  1.00  0.00     0.048 A 
HETATM   29  C   UNL     1       5.878  34.659  53.443  1.00  0.00     0.105 A 
HETATM   30  C   UNL     1       5.571  34.280  52.158  1.00  0.00     0.105 A 
HETATM   31  O   UNL     1       6.686  35.752  53.481  1.00  0.00    -0.323 OA
HETATM   32  O   UNL     1       6.148  35.084  51.226  1.00  0.00    -0.323 OA
HETATM   33  C   UNL     1       4.751  33.205  51.895  1.00  0.00     0.040 A 
HETATM   34  C   UNL     1       6.836  36.028  52.073  1.00  0.00     0.352 A 
HETATM   35  C   UNL     1       4.220  32.512  52.987  1.00  0.00     0.012 A 
ENDBRANCH  26  27
ENDBRANCH   4  26
BRANCH  11  36
HETATM   36  C   UNL     1       7.843  25.478  56.747  1.00  0.00     0.252 C 
HETATM   37  N   UNL     1       7.852  24.381  55.919  1.00  0.00    -0.352 N 
HETATM   38  H   UNL     1       7.331  24.450  55.056  1.00  0.00     0.163 HD
HETATM   39  O   UNL     1       8.565  25.638  57.719  1.00  0.00    -0.268 OA
BRANCH  37  40
HETATM   40  C   UNL     1       8.792  23.259  55.984  1.00  0.00     0.084 C 
HETATM   41  C   UNL     1       8.290  22.110  56.868  1.00  0.00     0.025 C 
HETATM   42  C   UNL     1       7.502  21.037  56.125  1.00  0.00     0.002 C 
HETATM   43  C   UNL     1       8.262  20.530  54.907  1.00  0.00     0.000 C 
HETATM   44  C   UNL     1       8.617  21.657  53.947  1.00  0.00     0.002 C 
HETATM   45  C   UNL     1       9.357  22.806  54.629  1.00  0.00     0.025 C 
ENDBRANCH  37  40
ENDBRANCH  11  36
TORSDOF 7
ENDMDL
MODEL 7
REMARK VINA RESULT:     -10.2      3.871      8.471
REMARK  7 active torsions:
REMARK  status: ('A' for Active; 'I' for Inactive)
REMARK    1  A    between atoms: C_6  and  N_7 
REMARK       I    between atoms: N_7  and  C_8 
REMARK    2  A    between atoms: C_8  and  C_9 
REMARK    3  A    between atoms: C_9  and  N_10 
REMARK    4  A    between atoms: N_13  and  C_14 
REMARK    5  A    between atoms: C_14  and  C_15 
REMARK    6  A    between atoms: C_30  and  C_31 
REMARK       I    between atoms: C_31  and  N_32 
REMARK    7  A    between atoms: N_32  and  C_33 
ROOT
HETATM    1  N   UNL     1       5.089  28.026  55.357  1.00  0.00    -0.290 N 
HETATM    2  C   UNL     1       4.420  27.819  54.162  1.00  0.00     0.332 C 
HETATM    3  O   UNL     1       4.425  26.704  53.629  1.00  0.00    -0.246 OA
HETATM    4  N   UNL     1       3.755  28.903  53.615  1.00  0.00    -0.261 N 
HETATM    5  C   UNL     1       3.857  30.204  54.082  1.00  0.00     0.264 C 
HETATM    6  O   UNL     1       3.257  31.161  53.597  1.00  0.00    -0.267 OA
HETATM    7  C   UNL     1       4.737  30.425  55.243  1.00  0.00     0.059 A 
HETATM    8  C   UNL     1       5.324  29.327  55.872  1.00  0.00     0.056 A 
HETATM    9  C   UNL     1       4.935  31.730  55.722  1.00  0.00     0.020 A 
HETATM   10  C   UNL     1       5.726  31.950  56.849  1.00  0.00     0.018 A 
HETATM   11  C   UNL     1       6.317  30.861  57.494  1.00  0.00     0.034 A 
HETATM   12  C   UNL     1       6.132  29.560  56.993  1.00  0.00     0.048 A 
ENDROOT
BRANCH   1  13
HETATM   13  C   UNL     1       5.435  26.837  56.139  1.00  0.00     0.237 C 
BRANCH  13  14
HETATM   14  C   UNL     1       6.610  26.018  55.603  1.00  0.00     0.240 C 
HETATM   15  N   UNL     1       6.216  24.933  54.840  1.00  0.00    -0.325 N 
HETATM   16  H   UNL     1       5.235  24.918  54.565  1.00  0.00     0.169 HD
HETATM   17  O   UNL     1       7.760  26.312  55.917  1.00  0.00    -0.271 OA
BRANCH  15  18
HETATM   18  C   UNL     1       6.992  23.811  54.471  1.00  0.00     0.040 A 
HETATM   19  C   UNL     1       7.474  23.717  53.148  1.00  0.00    -0.035 A 
HETATM   20  C   UNL     1       8.142  22.548  52.736  1.00  0.00     0.015 A 
HETATM   21  C   UNL     1       7.292  24.826  52.145  1.00  0.00     0.050 C 
HETATM   22  C   UNL     1       8.353  21.484  53.619  1.00  0.00    -0.061 A 
HETATM   23  C   UNL     1       9.025  20.221  53.168  1.00  0.00     0.048 C 
HETATM   24  C   UNL     1       7.901  21.601  54.933  1.00  0.00     0.009 A 
HETATM   25  C   UNL     1       7.232  22.754  55.354  1.00  0.00     0.030 A 
ENDBRANCH  15  18
ENDBRANCH  13  14
ENDBRANCH   1  13
BRANCH   4  26
HETATM   26  C   UNL     1       2.822  28.636  52.525  1.00  0.00     0.175 C 
BRANCH  26  27
HETATM   27  C   UNL     1       3.441  28.999  51.186  1.00  0.00    -0.037 A 
HETATM   28  C   UNL     1       2.665  29.613  50.188  1.00  0.00     0.048 A 
HETATM   29  C   UNL     1       3.243  29.822  48.953  1.00  0.00     0.105 A 
HETATM   30  C   UNL     1       4.542  29.458  48.688  1.00  0.00     0.105 A 
HETATM   31  O   UNL     1       2.627  30.367  47.870  1.00  0.00    -0.323 OA
HETATM   32  O   UNL     1       4.907  29.729  47.407  1.00  0.00    -0.323 OA
HETATM   33  C   UNL     1       5.341  28.872  49.644  1.00  0.00     0.040 A 
HETATM   34  C   UNL     1       3.682  30.286  46.888  1.00  0.00     0.352 A 
HETATM   35  C   UNL     1       4.781  28.639  50.904  1.00  0.00     0.012 A 
ENDBRANCH  26  27
ENDBRANCH   4  26
BRANCH  11  36
HETATM   36  C   UNL     1       7.166  31.027  58.706  1.00  0.00     0.252 C 
HETATM   37  N   UNL     1       7.305  32.313  59.170  1.00  0.00    -0.352 N 
HETATM   38  H   UNL     1       6.723  33.022  58.746  1.00  0.00     0.163 HD
HETATM   39  O   UNL     1       7.639  30.030  59.229  1.00  0.00    -0.268 OA
BRANCH  37  40
HETATM   40  C   UNL     1       7.949  32.713  60.424  1.00  0.00     0.084 C 
HETATM   41  C   UNL     1       7.017  32.595  61.637  1.00  0.00     0.025 C 
HETATM   42  C   UNL     1       7.086  31.254  62.359  1.00  0.00     0.002 C 
HETATM   43  C   UNL     1       8.521  30.880  62.703  1.00  0.00     0.000 C 
HETATM   44  C   UNL     1       9.412  30.839  61.469  1.00  0.00     0.002 C 
HETATM   45  C   UNL     1       9.350  32.127  60.651  1.00  0.00     0.025 C 
ENDBRANCH  37  40
ENDBRANCH  11  36
TORSDOF 7
ENDMDL
MODEL 8
REMARK VINA RESULT:     -10.2      1.957      5.145
REMARK  7 active torsions:
REMARK  status: ('A' for Active; 'I' for Inactive)
REMARK    1  A    between atoms: C_6  and  N_7 
REMARK       I    between atoms: N_7  and  C_8 
REMARK    2  A    between atoms: C_8  and  C_9 
REMARK    3  A    between atoms: C_9  and  N_10 
REMARK    4  A    between atoms: N_13  and  C_14 
REMARK    5  A    between atoms: C_14  and  C_15 
REMARK    6  A    between atoms: C_30  and  C_31 
REMARK       I    between atoms: C_31  and  N_32 
REMARK    7  A    between atoms: N_32  and  C_33 
ROOT
HETATM    1  N   UNL     1       5.603  29.164  56.669  1.00  0.00    -0.290 N 
HETATM    2  C   UNL     1       5.492  28.457  55.482  1.00  0.00     0.332 C 
HETATM    3  O   UNL     1       4.401  27.997  55.130  1.00  0.00    -0.246 OA
HETATM    4  N   UNL     1       6.643  28.304  54.728  1.00  0.00    -0.261 N 
HETATM    5  C   UNL     1       7.914  28.652  55.157  1.00  0.00     0.264 C 
HETATM    6  O   UNL     1       8.931  28.523  54.478  1.00  0.00    -0.267 OA
HETATM    7  C   UNL     1       8.025  29.225  56.510  1.00  0.00     0.059 A 
HETATM    8  C   UNL     1       6.863  29.487  57.236  1.00  0.00     0.056 A 
HETATM    9  C   UNL     1       9.292  29.536  57.028  1.00  0.00     0.020 A 
HETATM   10  C   UNL     1       9.410  30.123  58.287  1.00  0.00     0.018 A 
HETATM   11  C   UNL     1       8.256  30.397  59.025  1.00  0.00     0.034 A 
HETATM   12  C   UNL     1       6.992  30.060  58.508  1.00  0.00     0.048 A 
ENDROOT
BRANCH   1  13
HETATM   13  C   UNL     1       4.363  29.678  57.254  1.00  0.00     0.237 C 
BRANCH  13  14
HETATM   14  C   UNL     1       3.906  31.041  56.732  1.00  0.00     0.240 C 
HETATM   15  N   UNL     1       4.930  31.969  56.662  1.00  0.00    -0.325 N 
HETATM   16  H   UNL     1       5.873  31.598  56.770  1.00  0.00     0.169 HD
HETATM   17  O   UNL     1       2.720  31.240  56.486  1.00  0.00    -0.271 OA
BRANCH  15  18
HETATM   18  C   UNL     1       4.815  33.373  56.541  1.00  0.00     0.040 A 
HETATM   19  C   UNL     1       4.673  34.151  57.709  1.00  0.00    -0.035 A 
HETATM   20  C   UNL     1       4.435  35.534  57.594  1.00  0.00     0.015 A 
HETATM   21  C   UNL     1       4.757  33.554  59.089  1.00  0.00     0.050 C 
HETATM   22  C   UNL     1       4.354  36.155  56.343  1.00  0.00    -0.061 A 
HETATM   23  C   UNL     1       4.055  37.620  56.220  1.00  0.00     0.048 C 
HETATM   24  C   UNL     1       4.528  35.381  55.196  1.00  0.00     0.009 A 
HETATM   25  C   UNL     1       4.760  34.006  55.296  1.00  0.00     0.030 A 
ENDBRANCH  15  18
ENDBRANCH  13  14
ENDBRANCH   1  13
BRANCH   4  26
HETATM   26  C   UNL     1       6.488  27.820  53.361  1.00  0.00     0.175 C 
BRANCH  26  27
HETATM   27  C   UNL     1       6.838  26.344  53.269  1.00  0.00    -0.037 A 
HETATM   28  C   UNL     1       6.692  25.509  54.390  1.00  0.00     0.048 A 
HETATM   29  C   UNL     1       7.127  24.204  54.288  1.00  0.00     0.105 A 
HETATM   30  C   UNL     1       7.680  23.711  53.129  1.00  0.00     0.105 A 
HETATM   31  O   UNL     1       7.094  23.276  55.282  1.00  0.00    -0.323 OA
HETATM   32  O   UNL     1       8.064  22.412  53.248  1.00  0.00    -0.323 OA
HETATM   33  C   UNL     1       7.824  24.492  52.005  1.00  0.00     0.040 A 
HETATM   34  C   UNL     1       7.708  22.149  54.621  1.00  0.00     0.352 A 
HETATM   35  C   UNL     1       7.400  25.822  52.080  1.00  0.00     0.012 A 
ENDBRANCH  26  27
ENDBRANCH   4  26
BRANCH  11  36
HETATM   36  C   UNL     1       8.312  31.030  60.372  1.00  0.00     0.252 C 
HETATM   37  N   UNL     1       7.100  31.262  60.978  1.00  0.00    -0.352 N 
HETATM   38  H   UNL     1       6.280  30.870  60.535  1.00  0.00     0.163 HD
HETATM   39  O   UNL     1       9.405  31.257  60.865  1.00  0.00    -0.268 OA
BRANCH  37  40
HETATM   40  C   UNL     1       6.898  31.719  62.355  1.00  0.00     0.084 C 
HETATM   41  C   UNL     1       7.459  33.125  62.606  1.00  0.00     0.025 C 
HETATM   42  C   UNL     1       6.458  34.254  62.385  1.00  0.00     0.002 C 
HETATM   43  C   UNL     1       5.165  34.010  63.151  1.00  0.00     0.000 C 
HETATM   44  C   UNL     1       4.523  32.682  62.777  1.00  0.00     0.002 C 
HETATM   45  C   UNL     1       5.483  31.501  62.910  1.00  0.00     0.025 C 
ENDBRANCH  37  40
ENDBRANCH  11  36
TORSDOF 7
ENDMDL
MODEL 9
REMARK VINA RESULT:     -10.0      2.945     10.778
REMARK  7 active torsions:
REMARK  status: ('A' for Active; 'I' for Inactive)
REMARK    1  A    between atoms: C_6  and  N_7 
REMARK       I    between atoms: N_7  and  C_8 
REMARK    2  A    between atoms: C_8  and  C_9 
REMARK    3  A    between atoms: C_9  and  N_10 
REMARK    4  A    between atoms: N_13  and  C_14 
REMARK    5  A    between atoms: C_14  and  C_15 
REMARK    6  A    between atoms: C_30  and  C_31 
REMARK       I    between atoms: C_31  and  N_32 
REMARK    7  A    between atoms: N_32  and  C_33 
ROOT
HETATM    1  N   UNL     1       5.601  29.877  57.107  1.00  0.00    -0.290 N 
HETATM    2  C   UNL     1       6.026  31.086  57.634  1.00  0.00     0.332 C 
HETATM    3  O   UNL     1       5.363  32.113  57.454  1.00  0.00    -0.246 OA
HETATM    4  N   UNL     1       7.205  31.077  58.361  1.00  0.00    -0.261 N 
HETATM    5  C   UNL     1       8.066  29.995  58.448  1.00  0.00     0.264 C 
HETATM    6  O   UNL     1       9.106  29.991  59.104  1.00  0.00    -0.267 OA
HETATM    7  C   UNL     1       7.680  28.779  57.711  1.00  0.00     0.059 A 
HETATM    8  C   UNL     1       6.443  28.736  57.068  1.00  0.00     0.056 A 
HETATM    9  C   UNL     1       8.541  27.671  57.706  1.00  0.00     0.020 A 
HETATM   10  C   UNL     1       8.169  26.496  57.054  1.00  0.00     0.018 A 
HETATM   11  C   UNL     1       6.931  26.434  56.408  1.00  0.00     0.034 A 
HETATM   12  C   UNL     1       6.085  27.557  56.399  1.00  0.00     0.048 A 
ENDROOT
BRANCH   1  13
HETATM   13  C   UNL     1       4.195  29.786  56.705  1.00  0.00     0.237 C 
BRANCH  13  14
HETATM   14  C   UNL     1       3.911  30.095  55.235  1.00  0.00     0.240 C 
HETATM   15  N   UNL     1       3.959  28.975  54.423  1.00  0.00    -0.325 N 
HETATM   16  H   UNL     1       3.978  28.078  54.906  1.00  0.00     0.169 HD
HETATM   17  O   UNL     1       3.735  31.254  54.872  1.00  0.00    -0.271 OA
BRANCH  15  18
HETATM   18  C   UNL     1       4.066  28.936  53.015  1.00  0.00     0.040 A 
HETATM   19  C   UNL     1       5.318  28.648  52.431  1.00  0.00    -0.035 A 
HETATM   20  C   UNL     1       5.464  28.727  51.033  1.00  0.00     0.015 A 
HETATM   21  C   UNL     1       6.520  28.266  53.254  1.00  0.00     0.050 C 
HETATM   22  C   UNL     1       4.387  29.067  50.208  1.00  0.00    -0.061 A 
HETATM   23  C   UNL     1       4.554  29.195  48.723  1.00  0.00     0.048 C 
HETATM   24  C   UNL     1       3.146  29.318  50.793  1.00  0.00     0.009 A 
HETATM   25  C   UNL     1       2.988  29.248  52.181  1.00  0.00     0.030 A 
ENDBRANCH  15  18
ENDBRANCH  13  14
ENDBRANCH   1  13
BRANCH   4  26
HETATM   26  C   UNL     1       7.512  32.264  59.151  1.00  0.00     0.175 C 
BRANCH  26  27
HETATM   27  C   UNL     1       6.772  32.234  60.478  1.00  0.00    -0.037 A 
HETATM   28  C   UNL     1       5.630  33.029  60.674  1.00  0.00     0.048 A 
HETATM   29  C   UNL     1       5.061  33.050  61.930  1.00  0.00     0.105 A 
HETATM   30  C   UNL     1       5.572  32.312  62.971  1.00  0.00     0.105 A 
HETATM   31  O   UNL     1       3.981  33.789  62.300  1.00  0.00    -0.323 OA
HETATM   32  O   UNL     1       4.878  32.492  64.126  1.00  0.00    -0.323 OA
HETATM   33  C   UNL     1       6.677  31.505  62.816  1.00  0.00     0.040 A 
HETATM   34  C   UNL     1       3.884  33.446  63.699  1.00  0.00     0.352 A 
HETATM   35  C   UNL     1       7.282  31.471  61.555  1.00  0.00     0.012 A 
ENDBRANCH  26  27
ENDBRANCH   4  26
BRANCH  11  36
HETATM   36  C   UNL     1       6.470  25.208  55.701  1.00  0.00     0.252 C 
HETATM   37  N   UNL     1       7.382  24.182  55.622  1.00  0.00    -0.352 N 
HETATM   38  H   UNL     1       8.233  24.279  56.158  1.00  0.00     0.163 HD
HETATM   39  O   UNL     1       5.324  25.170  55.284  1.00  0.00    -0.268 OA
BRANCH  37  40
HETATM   40  C   UNL     1       7.117  22.829  55.125  1.00  0.00     0.084 C 
HETATM   41  C   UNL     1       7.196  22.729  53.596  1.00  0.00     0.025 C 
HETATM   42  C   UNL     1       8.571  22.351  53.057  1.00  0.00     0.002 C 
HETATM   43  C   UNL     1       9.114  21.103  53.740  1.00  0.00     0.000 C 
HETATM   44  C   UNL     1       9.187  21.266  55.252  1.00  0.00     0.002 C 
HETATM   45  C   UNL     1       7.860  21.708  55.866  1.00  0.00     0.025 C 
ENDBRANCH  37  40
ENDBRANCH  11  36
TORSDOF 7
ENDMDL
MODEL 10
REMARK VINA RESULT:      -9.9      2.896     10.217
REMARK  7 active torsions:
REMARK  status: ('A' for Active; 'I' for Inactive)
REMARK    1  A    between atoms: C_6  and  N_7 
REMARK       I    between atoms: N_7  and  C_8 
REMARK    2  A    between atoms: C_8  and  C_9 
REMARK    3  A    between atoms: C_9  and  N_10 
REMARK    4  A    between atoms: N_13  and  C_14 
REMARK    5  A    between atoms: C_14  and  C_15 
REMARK    6  A    between atoms: C_30  and  C_31 
REMARK       I    between atoms: C_31  and  N_32 
REMARK    7  A    between atoms: N_32  and  C_33 
ROOT
HETATM    1  N   UNL     1       5.621  30.917  58.055  1.00  0.00    -0.290 N 
HETATM    2  C   UNL     1       6.132  31.985  58.775  1.00  0.00     0.332 C 
HETATM    3  O   UNL     1       5.478  33.026  58.895  1.00  0.00    -0.246 OA
HETATM    4  N   UNL     1       7.383  31.821  59.344  1.00  0.00    -0.261 N 
HETATM    5  C   UNL     1       8.222  30.745  59.100  1.00  0.00     0.264 C 
HETATM    6  O   UNL     1       9.329  30.602  59.616  1.00  0.00    -0.267 OA
HETATM    7  C   UNL     1       7.727  29.715  58.171  1.00  0.00     0.059 A 
HETATM    8  C   UNL     1       6.425  29.811  57.678  1.00  0.00     0.056 A 
HETATM    9  C   UNL     1       8.556  28.634  57.831  1.00  0.00     0.020 A 
HETATM   10  C   UNL     1       8.084  27.626  56.991  1.00  0.00     0.018 A 
HETATM   11  C   UNL     1       6.781  27.704  56.493  1.00  0.00     0.034 A 
HETATM   12  C   UNL     1       5.966  28.802  56.820  1.00  0.00     0.048 A 
ENDROOT
BRANCH   1  13
HETATM   13  C   UNL     1       4.177  30.913  57.807  1.00  0.00     0.237 C 
BRANCH  13  14
HETATM   14  C   UNL     1       3.706  31.809  56.661  1.00  0.00     0.240 C 
HETATM   15  N   UNL     1       4.494  31.706  55.529  1.00  0.00    -0.325 N 
HETATM   16  H   UNL     1       5.153  30.929  55.516  1.00  0.00     0.169 HD
HETATM   17  O   UNL     1       2.756  32.569  56.824  1.00  0.00    -0.271 OA
BRANCH  15  18
HETATM   18  C   UNL     1       4.549  32.596  54.432  1.00  0.00     0.040 A 
HETATM   19  C   UNL     1       4.064  32.168  53.178  1.00  0.00    -0.035 A 
HETATM   20  C   UNL     1       4.226  33.000  52.053  1.00  0.00     0.015 A 
HETATM   21  C   UNL     1       3.383  30.838  52.990  1.00  0.00     0.050 C 
HETATM   22  C   UNL     1       4.842  34.251  52.158  1.00  0.00    -0.061 A 
HETATM   23  C   UNL     1       5.054  35.117  50.952  1.00  0.00     0.048 C 
HETATM   24  C   UNL     1       5.287  34.678  53.409  1.00  0.00     0.009 A 
HETATM   25  C   UNL     1       5.138  33.860  54.533  1.00  0.00     0.030 A 
ENDBRANCH  15  18
ENDBRANCH  13  14
ENDBRANCH   1  13
BRANCH   4  26
HETATM   26  C   UNL     1       7.805  32.812  60.328  1.00  0.00     0.175 C 
BRANCH  26  27
HETATM   27  C   UNL     1       6.853  32.834  61.512  1.00  0.00    -0.037 A 
HETATM   28  C   UNL     1       6.452  34.056  62.078  1.00  0.00     0.048 A 
HETATM   29  C   UNL     1       5.676  34.020  63.218  1.00  0.00     0.105 A 
HETATM   30  C   UNL     1       5.285  32.834  63.793  1.00  0.00     0.105 A 
HETATM   31  O   UNL     1       5.234  35.103  63.913  1.00  0.00    -0.323 OA
HETATM   32  O   UNL     1       4.547  33.020  64.919  1.00  0.00    -0.323 OA
HETATM   33  C   UNL     1       5.640  31.616  63.258  1.00  0.00     0.040 A 
HETATM   34  C   UNL     1       4.536  34.461  65.001  1.00  0.00     0.352 A 
HETATM   35  C   UNL     1       6.434  31.620  62.107  1.00  0.00     0.012 A 
ENDBRANCH  26  27
ENDBRANCH   4  26
BRANCH  11  36
HETATM   36  C   UNL     1       6.215  26.657  55.599  1.00  0.00     0.252 C 
HETATM   37  N   UNL     1       6.978  25.524  55.442  1.00  0.00    -0.352 N 
HETATM   38  H   UNL     1       7.786  25.426  56.040  1.00  0.00     0.163 HD
HETATM   39  O   UNL     1       5.113  26.843  55.106  1.00  0.00    -0.268 OA
BRANCH  37  40
HETATM   40  C   UNL     1       6.569  24.298  54.751  1.00  0.00     0.084 C 
HETATM   41  C   UNL     1       6.617  24.430  53.223  1.00  0.00     0.025 C 
HETATM   42  C   UNL     1       7.938  24.007  52.592  1.00  0.00     0.002 C 
HETATM   43  C   UNL     1       8.360  22.620  53.059  1.00  0.00     0.000 C 
HETATM   44  C   UNL     1       8.471  22.538  54.575  1.00  0.00     0.002 C 
HETATM   45  C   UNL     1       7.204  23.007  55.288  1.00  0.00     0.025 C 
ENDBRANCH  37  40
ENDBRANCH  11  36
TORSDOF 7
ENDMDL
