MODEL 1
REMARK VINA RESULT:      -9.3      0.000      0.000
REMARK  7 active torsions:
REMARK  status: ('A' for Active; 'I' for Inactive)
REMARK    1  A    between atoms: O_2  and  C_3 
REMARK    2  A    between atoms: C_7  and  C_8 
REMARK    3  A    between atoms: C_8  and  C_9 
REMARK       I    between atoms: C_9  and  N_10 
REMARK    4  A    between atoms: N_10  and  C_11 
REMARK    5  A    between atoms: C_11  and  C_12 
REMARK    6  A    between atoms: C_12  and  N_13 
REMARK    7  A    between atoms: C_12  and  C_19 
ROOT
HETATM    1  C   UNL     1       7.622  28.182  57.462  1.00  0.00     0.222 C 
HETATM    2  N   UNL     1       8.428  27.108  57.125  1.00  0.00    -0.358 N 
HETATM    3  O   UNL     1       6.409  28.046  57.579  1.00  0.00    -0.273 OA
HETATM    4  H   UNL     1       9.405  27.294  56.912  1.00  0.00     0.162 HD
ENDROOT
BRANCH   2   5
HETATM    5  C   UNL     1       7.872  25.819  56.728  1.00  0.00     0.160 C 
BRANCH   5   6
HETATM    6  C   UNL     1       7.462  25.705  55.224  1.00  0.00     0.240 C 
BRANCH   6   7
HETATM    7  N   UNL     1       6.078  26.295  54.953  1.00  0.00    -0.061 N 
HETATM    8  H   UNL     1       5.732  26.599  55.874  1.00  0.00     0.280 HD
HETATM    9  C   UNL     1       5.068  25.318  54.370  1.00  0.00     0.236 C 
HETATM   10  C   UNL     1       4.844  25.800  52.954  1.00  0.00     0.029 C 
HETATM   11  C   UNL     1       4.901  27.301  53.101  1.00  0.00     0.029 C 
HETATM   12  C   UNL     1       6.071  27.518  54.042  1.00  0.00     0.236 C 
ENDBRANCH   6   7
BRANCH   6  13
HETATM   13  C   UNL     1       7.657  24.272  54.733  1.00  0.00    -0.004 A 
HETATM   14  C   UNL     1       7.952  23.904  53.407  1.00  0.00     0.042 A 
HETATM   15 CL   UNL     1       8.183  25.064  52.147  1.00  0.00    -0.084 Cl
HETATM   16  C   UNL     1       8.094  22.558  53.051  1.00  0.00     0.024 A 
HETATM   17  C   UNL     1       7.943  21.557  54.007  1.00  0.00     0.002 A 
HETATM   18  C   UNL     1       7.651  21.897  55.323  1.00  0.00     0.001 A 
HETATM   19  C   UNL     1       7.505  23.238  55.682  1.00  0.00     0.011 A 
ENDBRANCH   6  13
ENDBRANCH   5   6
ENDBRANCH   2   5
BRANCH   1  20
HETATM   20  C   UNL     1       8.400  29.466  57.723  1.00  0.00     0.144 C 
BRANCH  20  21
HETATM   21  C   UNL     1       7.711  30.454  58.600  1.00  0.00    -0.014 A 
HETATM   22  C   UNL     1       8.059  30.870  59.926  1.00  0.00     0.006 A 
HETATM   23  C   UNL     1       7.148  31.859  60.274  1.00  0.00     0.088 A 
HETATM   24  C   UNL     1       9.045  30.522  60.868  1.00  0.00     0.017 A 
HETATM   25  C   UNL     1       7.147  32.550  61.486  1.00  0.00     0.074 A 
HETATM   26  O   UNL     1       6.265  32.061  59.259  1.00  0.00    -0.321 OA
HETATM   27  C   UNL     1       8.141  32.197  62.403  1.00  0.00     0.070 A 
HETATM   28  C   UNL     1       9.060  31.186  62.104  1.00  0.00     0.038 A 
HETATM   29  C   UNL     1       6.608  31.214  58.259  1.00  0.00     0.151 A 
BRANCH  27  30
HETATM   30  O   UNL     1       8.304  32.759  63.643  1.00  0.00    -0.356 OA
HETATM   31  C   UNL     1       7.141  33.340  64.224  1.00  0.00     0.210 C 
ENDBRANCH  27  30
ENDBRANCH  20  21
ENDBRANCH   1  20
TORSDOF 7
ENDMDL
MODEL 2
REMARK VINA RESULT:      -9.1      2.441      5.051
REMARK  7 active torsions:
REMARK  status: ('A' for Active; 'I' for Inactive)
REMARK    1  A    between atoms: O_2  and  C_3 
REMARK    2  A    between atoms: C_7  and  C_8 
REMARK    3  A    between atoms: C_8  and  C_9 
REMARK       I    between atoms: C_9  and  N_10 
REMARK    4  A    between atoms: N_10  and  C_11 
REMARK    5  A    between atoms: C_11  and  C_12 
REMARK    6  A    between atoms: C_12  and  N_13 
REMARK    7  A    between atoms: C_12  and  C_19 
ROOT
HETATM    1  C   UNL     1       6.488  26.636  52.622  1.00  0.00     0.222 C 
HETATM    2  N   UNL     1       7.575  26.032  53.231  1.00  0.00    -0.358 N 
HETATM    3  O   UNL     1       5.666  25.972  52.001  1.00  0.00    -0.273 OA
HETATM    4  H   UNL     1       8.297  26.633  53.622  1.00  0.00     0.162 HD
ENDROOT
BRANCH   2   5
HETATM    5  C   UNL     1       7.892  24.623  53.024  1.00  0.00     0.160 C 
BRANCH   5   6
HETATM    6  C   UNL     1       7.973  23.760  54.325  1.00  0.00     0.240 C 
BRANCH   6   7
HETATM    7  N   UNL     1       7.494  22.327  54.101  1.00  0.00    -0.061 N 
HETATM    8  H   UNL     1       6.472  22.400  53.989  1.00  0.00     0.280 HD
HETATM    9  C   UNL     1       7.774  21.370  55.250  1.00  0.00     0.236 C 
HETATM   10  C   UNL     1       8.822  20.422  54.712  1.00  0.00     0.029 C 
HETATM   11  C   UNL     1       8.407  20.252  53.270  1.00  0.00     0.029 C 
HETATM   12  C   UNL     1       8.038  21.660  52.842  1.00  0.00     0.236 C 
ENDBRANCH   6   7
BRANCH   6  13
HETATM   13  C   UNL     1       7.296  24.491  55.482  1.00  0.00    -0.004 A 
HETATM   14  C   UNL     1       7.933  24.882  56.676  1.00  0.00     0.042 A 
HETATM   15 CL   UNL     1       9.617  24.620  56.963  1.00  0.00    -0.084 Cl
HETATM   16  C   UNL     1       7.220  25.532  57.689  1.00  0.00     0.024 A 
HETATM   17  C   UNL     1       5.863  25.802  57.534  1.00  0.00     0.002 A 
HETATM   18  C   UNL     1       5.212  25.423  56.366  1.00  0.00     0.001 A 
HETATM   19  C   UNL     1       5.918  24.772  55.352  1.00  0.00     0.011 A 
ENDBRANCH   6  13
ENDBRANCH   5   6
ENDBRANCH   2   5
BRANCH   1  20
HETATM   20  C   UNL     1       6.410  28.137  52.871  1.00  0.00     0.144 C 
BRANCH  20  21
HETATM   21  C   UNL     1       6.015  28.528  54.254  1.00  0.00    -0.014 A 
HETATM   22  C   UNL     1       6.847  28.712  55.405  1.00  0.00     0.006 A 
HETATM   23  C   UNL     1       6.008  29.145  56.425  1.00  0.00     0.088 A 
HETATM   24  C   UNL     1       8.215  28.564  55.696  1.00  0.00     0.017 A 
HETATM   25  C   UNL     1       6.426  29.462  57.718  1.00  0.00     0.074 A 
HETATM   26  O   UNL     1       4.727  29.222  55.976  1.00  0.00    -0.321 OA
HETATM   27  C   UNL     1       7.790  29.319  57.983  1.00  0.00     0.070 A 
HETATM   28  C   UNL     1       8.664  28.857  56.993  1.00  0.00     0.038 A 
HETATM   29  C   UNL     1       4.737  28.849  54.673  1.00  0.00     0.151 A 
BRANCH  27  30
HETATM   30  O   UNL     1       8.390  29.580  59.188  1.00  0.00    -0.356 OA
HETATM   31  C   UNL     1       8.064  30.828  59.792  1.00  0.00     0.210 C 
ENDBRANCH  27  30
ENDBRANCH  20  21
ENDBRANCH   1  20
TORSDOF 7
ENDMDL
MODEL 3
REMARK VINA RESULT:      -9.0      3.638      6.179
REMARK  7 active torsions:
REMARK  status: ('A' for Active; 'I' for Inactive)
REMARK    1  A    between atoms: O_2  and  C_3 
REMARK    2  A    between atoms: C_7  and  C_8 
REMARK    3  A    between atoms: C_8  and  C_9 
REMARK       I    between atoms: C_9  and  N_10 
REMARK    4  A    between atoms: N_10  and  C_11 
REMARK    5  A    between atoms: C_11  and  C_12 
REMARK    6  A    between atoms: C_12  and  N_13 
REMARK    7  A    between atoms: C_12  and  C_19 
ROOT
HETATM    1  C   UNL     1       4.754  29.097  55.657  1.00  0.00     0.222 C 
HETATM    2  N   UNL     1       4.101  28.105  54.946  1.00  0.00    -0.358 N 
HETATM    3  O   UNL     1       4.980  30.190  55.150  1.00  0.00    -0.273 OA
HETATM    4  H   UNL     1       4.051  27.176  55.358  1.00  0.00     0.162 HD
ENDROOT
BRANCH   2   5
HETATM    5  C   UNL     1       3.806  28.242  53.523  1.00  0.00     0.160 C 
BRANCH   5   6
HETATM    6  C   UNL     1       5.050  28.202  52.578  1.00  0.00     0.240 C 
BRANCH   6   7
HETATM    7  N   UNL     1       4.687  28.519  51.128  1.00  0.00    -0.061 N 
HETATM    8  H   UNL     1       4.825  27.636  50.617  1.00  0.00     0.280 HD
HETATM    9  C   UNL     1       5.552  29.583  50.469  1.00  0.00     0.236 C 
HETATM   10  C   UNL     1       4.629  30.768  50.285  1.00  0.00     0.029 C 
HETATM   11  C   UNL     1       3.313  30.112  49.942  1.00  0.00     0.029 C 
HETATM   12  C   UNL     1       3.239  28.945  50.909  1.00  0.00     0.236 C 
ENDBRANCH   6   7
BRANCH   6  13
HETATM   13  C   UNL     1       5.820  26.898  52.777  1.00  0.00    -0.004 A 
HETATM   14  C   UNL     1       7.100  26.793  53.354  1.00  0.00     0.042 A 
HETATM   15 CL   UNL     1       7.959  28.160  53.969  1.00  0.00    -0.084 Cl
HETATM   16  C   UNL     1       7.732  25.551  53.475  1.00  0.00     0.024 A 
HETATM   17  C   UNL     1       7.103  24.393  53.024  1.00  0.00     0.002 A 
HETATM   18  C   UNL     1       5.841  24.472  52.449  1.00  0.00     0.001 A 
HETATM   19  C   UNL     1       5.206  25.710  52.323  1.00  0.00     0.011 A 
ENDBRANCH   6  13
ENDBRANCH   5   6
ENDBRANCH   2   5
BRANCH   1  20
HETATM   20  C   UNL     1       5.074  28.702  57.093  1.00  0.00     0.144 C 
BRANCH  20  21
HETATM   21  C   UNL     1       6.361  27.973  57.276  1.00  0.00    -0.014 A 
HETATM   22  C   UNL     1       6.639  26.582  57.076  1.00  0.00     0.006 A 
HETATM   23  C   UNL     1       7.999  26.421  57.308  1.00  0.00     0.088 A 
HETATM   24  C   UNL     1       5.892  25.444  56.722  1.00  0.00     0.017 A 
HETATM   25  C   UNL     1       8.688  25.213  57.198  1.00  0.00     0.074 A 
HETATM   26  O   UNL     1       8.561  27.613  57.647  1.00  0.00    -0.321 OA
HETATM   27  C   UNL     1       7.929  24.097  56.835  1.00  0.00     0.070 A 
HETATM   28  C   UNL     1       6.551  24.210  56.621  1.00  0.00     0.038 A 
HETATM   29  C   UNL     1       7.573  28.539  57.627  1.00  0.00     0.151 A 
BRANCH  27  30
HETATM   30  O   UNL     1       8.423  22.827  56.677  1.00  0.00    -0.356 OA
HETATM   31  C   UNL     1       7.742  22.003  55.735  1.00  0.00     0.210 C 
ENDBRANCH  27  30
ENDBRANCH  20  21
ENDBRANCH   1  20
TORSDOF 7
ENDMDL
MODEL 4
REMARK VINA RESULT:      -8.9      1.850      2.609
REMARK  7 active torsions:
REMARK  status: ('A' for Active; 'I' for Inactive)
REMARK    1  A    between atoms: O_2  and  C_3 
REMARK    2  A    between atoms: C_7  and  C_8 
REMARK    3  A    between atoms: C_8  and  C_9 
REMARK       I    between atoms: C_9  and  N_10 
REMARK    4  A    between atoms: N_10  and  C_11 
REMARK    5  A    between atoms: C_11  and  C_12 
REMARK    6  A    between atoms: C_12  and  N_13 
REMARK    7  A    between atoms: C_12  and  C_19 
ROOT
HETATM    1  C   UNL     1       7.981  27.437  56.447  1.00  0.00     0.222 C 
HETATM    2  N   UNL     1       7.684  26.563  55.415  1.00  0.00    -0.358 N 
HETATM    3  O   UNL     1       8.113  27.032  57.596  1.00  0.00    -0.273 OA
HETATM    4  H   UNL     1       7.456  26.958  54.506  1.00  0.00     0.162 HD
ENDROOT
BRANCH   2   5
HETATM    5  C   UNL     1       7.347  25.164  55.660  1.00  0.00     0.160 C 
BRANCH   5   6
HETATM    6  C   UNL     1       7.773  24.169  54.533  1.00  0.00     0.240 C 
BRANCH   6   7
HETATM    7  N   UNL     1       6.818  24.198  53.341  1.00  0.00    -0.061 N 
HETATM    8  H   UNL     1       6.699  23.212  53.069  1.00  0.00     0.280 HD
HETATM    9  C   UNL     1       7.328  24.962  52.129  1.00  0.00     0.236 C 
HETATM   10  C   UNL     1       6.443  26.187  52.048  1.00  0.00     0.029 C 
HETATM   11  C   UNL     1       5.097  25.651  52.472  1.00  0.00     0.029 C 
HETATM   12  C   UNL     1       5.430  24.752  53.647  1.00  0.00     0.236 C 
ENDBRANCH   6   7
BRANCH   6  13
HETATM   13  C   UNL     1       8.023  22.782  55.124  1.00  0.00    -0.004 A 
HETATM   14  C   UNL     1       8.091  21.587  54.383  1.00  0.00     0.042 A 
HETATM   15 CL   UNL     1       7.946  21.548  52.661  1.00  0.00    -0.084 Cl
HETATM   16  C   UNL     1       8.305  20.360  55.020  1.00  0.00     0.024 A 
HETATM   17  C   UNL     1       8.453  20.301  56.403  1.00  0.00     0.002 A 
HETATM   18  C   UNL     1       8.387  21.467  57.156  1.00  0.00     0.001 A 
HETATM   19  C   UNL     1       8.171  22.694  56.525  1.00  0.00     0.011 A 
ENDBRANCH   6  13
ENDBRANCH   5   6
ENDBRANCH   2   5
BRANCH   1  20
HETATM   20  C   UNL     1       8.182  28.874  55.985  1.00  0.00     0.144 C 
BRANCH  20  21
HETATM   21  C   UNL     1       8.956  29.737  56.922  1.00  0.00    -0.014 A 
HETATM   22  C   UNL     1       8.472  30.541  58.004  1.00  0.00     0.006 A 
HETATM   23  C   UNL     1       9.595  31.088  58.612  1.00  0.00     0.088 A 
HETATM   24  C   UNL     1       7.212  30.863  58.539  1.00  0.00     0.017 A 
HETATM   25  C   UNL     1       9.568  31.924  59.729  1.00  0.00     0.074 A 
HETATM   26  O   UNL     1      10.722  30.684  57.966  1.00  0.00    -0.321 OA
HETATM   27  C   UNL     1       8.307  32.223  60.251  1.00  0.00     0.070 A 
HETATM   28  C   UNL     1       7.149  31.716  59.651  1.00  0.00     0.038 A 
HETATM   29  C   UNL     1      10.331  29.874  56.953  1.00  0.00     0.151 A 
BRANCH  27  30
HETATM   30  O   UNL     1       8.075  33.023  61.339  1.00  0.00    -0.356 OA
HETATM   31  C   UNL     1       6.716  33.146  61.748  1.00  0.00     0.210 C 
ENDBRANCH  27  30
ENDBRANCH  20  21
ENDBRANCH   1  20
TORSDOF 7
ENDMDL
MODEL 5
REMARK VINA RESULT:      -8.7      2.973      4.523
REMARK  7 active torsions:
REMARK  status: ('A' for Active; 'I' for Inactive)
REMARK    1  A    between atoms: O_2  and  C_3 
REMARK    2  A    between atoms: C_7  and  C_8 
REMARK    3  A    between atoms: C_8  and  C_9 
REMARK       I    between atoms: C_9  and  N_10 
REMARK    4  A    between atoms: N_10  and  C_11 
REMARK    5  A    between atoms: C_11  and  C_12 
REMARK    6  A    between atoms: C_12  and  N_13 
REMARK    7  A    between atoms: C_12  and  C_19 
ROOT
HETATM    1  C   UNL     1       5.212  26.966  53.135  1.00  0.00     0.222 C 
HETATM    2  N   UNL     1       5.060  25.983  54.099  1.00  0.00    -0.358 N 
HETATM    3  O   UNL     1       5.637  26.691  52.019  1.00  0.00    -0.273 OA
HETATM    4  H   UNL     1       4.830  26.276  55.046  1.00  0.00     0.162 HD
ENDROOT
BRANCH   2   5
HETATM    5  C   UNL     1       5.551  24.624  53.900  1.00  0.00     0.160 C 
BRANCH   5   6
HETATM    6  C   UNL     1       6.457  24.069  55.047  1.00  0.00     0.240 C 
BRANCH   6   7
HETATM    7  N   UNL     1       7.272  25.168  55.727  1.00  0.00    -0.061 N 
HETATM    8  H   UNL     1       7.277  25.951  55.057  1.00  0.00     0.280 HD
HETATM    9  C   UNL     1       8.716  24.801  56.031  1.00  0.00     0.236 C 
HETATM   10  C   UNL     1       8.778  24.711  57.540  1.00  0.00     0.029 C 
HETATM   11  C   UNL     1       7.854  25.822  57.977  1.00  0.00     0.029 C 
HETATM   12  C   UNL     1       6.676  25.693  57.029  1.00  0.00     0.236 C 
ENDBRANCH   6   7
BRANCH   6  13
HETATM   13  C   UNL     1       7.274  22.881  54.543  1.00  0.00    -0.004 A 
HETATM   14  C   UNL     1       7.937  22.823  53.302  1.00  0.00     0.042 A 
HETATM   15 CL   UNL     1       7.947  24.144  52.188  1.00  0.00    -0.084 Cl
HETATM   16  C   UNL     1       8.646  21.679  52.922  1.00  0.00     0.024 A 
HETATM   17  C   UNL     1       8.708  20.574  53.767  1.00  0.00     0.002 A 
HETATM   18  C   UNL     1       8.060  20.607  54.995  1.00  0.00     0.001 A 
HETATM   19  C   UNL     1       7.348  21.745  55.379  1.00  0.00     0.011 A 
ENDBRANCH   6  13
ENDBRANCH   5   6
ENDBRANCH   2   5
BRANCH   1  20
HETATM   20  C   UNL     1       4.743  28.341  53.592  1.00  0.00     0.144 C 
BRANCH  20  21
HETATM   21  C   UNL     1       5.103  28.697  54.994  1.00  0.00    -0.014 A 
HETATM   22  C   UNL     1       6.404  28.885  55.564  1.00  0.00     0.006 A 
HETATM   23  C   UNL     1       6.197  29.277  56.881  1.00  0.00     0.088 A 
HETATM   24  C   UNL     1       7.731  28.770  55.112  1.00  0.00     0.017 A 
HETATM   25  C   UNL     1       7.211  29.585  57.788  1.00  0.00     0.074 A 
HETATM   26  O   UNL     1       4.865  29.327  57.151  1.00  0.00    -0.321 OA
HETATM   27  C   UNL     1       8.522  29.475  57.315  1.00  0.00     0.070 A 
HETATM   28  C   UNL     1       8.774  29.055  56.005  1.00  0.00     0.038 A 
HETATM   29  C   UNL     1       4.214  28.976  56.015  1.00  0.00     0.151 A 
BRANCH  27  30
HETATM   30  O   UNL     1       9.648  29.732  58.053  1.00  0.00    -0.356 OA
HETATM   31  C   UNL     1      10.784  30.187  57.323  1.00  0.00     0.210 C 
ENDBRANCH  27  30
ENDBRANCH  20  21
ENDBRANCH   1  20
TORSDOF 7
ENDMDL
MODEL 6
REMARK VINA RESULT:      -8.7      4.712      8.753
REMARK  7 active torsions:
REMARK  status: ('A' for Active; 'I' for Inactive)
REMARK    1  A    between atoms: O_2  and  C_3 
REMARK    2  A    between atoms: C_7  and  C_8 
REMARK    3  A    between atoms: C_8  and  C_9 
REMARK       I    between atoms: C_9  and  N_10 
REMARK    4  A    between atoms: N_10  and  C_11 
REMARK    5  A    between atoms: C_11  and  C_12 
REMARK    6  A    between atoms: C_12  and  N_13 
REMARK    7  A    between atoms: C_12  and  C_19 
ROOT
HETATM    1  C   UNL     1       6.759  27.404  53.503  1.00  0.00     0.222 C 
HETATM    2  N   UNL     1       6.511  26.045  53.417  1.00  0.00    -0.358 N 
HETATM    3  O   UNL     1       7.872  27.822  53.802  1.00  0.00    -0.273 OA
HETATM    4  H   UNL     1       5.547  25.743  53.295  1.00  0.00     0.162 HD
ENDROOT
BRANCH   2   5
HETATM    5  C   UNL     1       7.493  25.052  53.838  1.00  0.00     0.160 C 
BRANCH   5   6
HETATM    6  C   UNL     1       6.979  24.007  54.881  1.00  0.00     0.240 C 
BRANCH   6   7
HETATM    7  N   UNL     1       7.123  24.504  56.319  1.00  0.00    -0.061 N 
HETATM    8  H   UNL     1       7.357  23.666  56.870  1.00  0.00     0.280 HD
HETATM    9  C   UNL     1       5.866  25.121  56.914  1.00  0.00     0.236 C 
HETATM   10  C   UNL     1       6.191  26.592  57.053  1.00  0.00     0.029 C 
HETATM   11  C   UNL     1       7.648  26.574  57.445  1.00  0.00     0.029 C 
HETATM   12  C   UNL     1       8.244  25.515  56.537  1.00  0.00     0.236 C 
ENDBRANCH   6   7
BRANCH   6  13
HETATM   13  C   UNL     1       7.602  22.640  54.607  1.00  0.00    -0.004 A 
HETATM   14  C   UNL     1       8.156  21.792  55.585  1.00  0.00     0.042 A 
HETATM   15 CL   UNL     1       8.153  22.184  57.269  1.00  0.00    -0.084 Cl
HETATM   16  C   UNL     1       8.723  20.564  55.231  1.00  0.00     0.024 A 
HETATM   17  C   UNL     1       8.751  20.158  53.899  1.00  0.00     0.002 A 
HETATM   18  C   UNL     1       8.213  20.979  52.916  1.00  0.00     0.001 A 
HETATM   19  C   UNL     1       7.648  22.208  53.264  1.00  0.00     0.011 A 
ENDBRANCH   6  13
ENDBRANCH   5   6
ENDBRANCH   2   5
BRANCH   1  20
HETATM   20  C   UNL     1       5.559  28.265  53.130  1.00  0.00     0.144 C 
BRANCH  20  21
HETATM   21  C   UNL     1       5.451  28.604  51.683  1.00  0.00    -0.014 A 
HETATM   22  C   UNL     1       5.038  27.768  50.596  1.00  0.00     0.006 A 
HETATM   23  C   UNL     1       5.039  28.575  49.465  1.00  0.00     0.088 A 
HETATM   24  C   UNL     1       4.660  26.422  50.444  1.00  0.00     0.017 A 
HETATM   25  C   UNL     1       4.675  28.153  48.186  1.00  0.00     0.074 A 
HETATM   26  O   UNL     1       5.437  29.835  49.788  1.00  0.00    -0.321 OA
HETATM   27  C   UNL     1       4.292  26.815  48.059  1.00  0.00     0.070 A 
HETATM   28  C   UNL     1       4.306  25.961  49.167  1.00  0.00     0.038 A 
HETATM   29  C   UNL     1       5.684  29.845  51.120  1.00  0.00     0.151 A 
BRANCH  27  30
HETATM   30  O   UNL     1       3.903  26.215  46.889  1.00  0.00    -0.356 OA
HETATM   31  C   UNL     1       2.627  25.583  46.904  1.00  0.00     0.210 C 
ENDBRANCH  27  30
ENDBRANCH  20  21
ENDBRANCH   1  20
TORSDOF 7
ENDMDL
MODEL 7
REMARK VINA RESULT:      -8.7      1.304      2.293
REMARK  7 active torsions:
REMARK  status: ('A' for Active; 'I' for Inactive)
REMARK    1  A    between atoms: O_2  and  C_3 
REMARK    2  A    between atoms: C_7  and  C_8 
REMARK    3  A    between atoms: C_8  and  C_9 
REMARK       I    between atoms: C_9  and  N_10 
REMARK    4  A    between atoms: N_10  and  C_11 
REMARK    5  A    between atoms: C_11  and  C_12 
REMARK    6  A    between atoms: C_12  and  N_13 
REMARK    7  A    between atoms: C_12  and  C_19 
ROOT
HETATM    1  C   UNL     1       7.774  28.221  57.501  1.00  0.00     0.222 C 
HETATM    2  N   UNL     1       8.513  27.107  57.140  1.00  0.00    -0.358 N 
HETATM    3  O   UNL     1       6.563  28.145  57.668  1.00  0.00    -0.273 OA
HETATM    4  H   UNL     1       9.489  27.243  56.886  1.00  0.00     0.162 HD
ENDROOT
BRANCH   2   5
HETATM    5  C   UNL     1       7.879  25.844  56.777  1.00  0.00     0.160 C 
BRANCH   5   6
HETATM    6  C   UNL     1       7.449  25.722  55.279  1.00  0.00     0.240 C 
BRANCH   6   7
HETATM    7  N   UNL     1       6.054  26.295  55.028  1.00  0.00    -0.061 N 
HETATM    8  H   UNL     1       5.687  26.527  55.962  1.00  0.00     0.280 HD
HETATM    9  C   UNL     1       5.078  25.337  54.363  1.00  0.00     0.236 C 
HETATM   10  C   UNL     1       4.861  25.909  52.980  1.00  0.00     0.029 C 
HETATM   11  C   UNL     1       4.878  27.398  53.230  1.00  0.00     0.029 C 
HETATM   12  C   UNL     1       6.029  27.578  54.202  1.00  0.00     0.236 C 
ENDBRANCH   6   7
BRANCH   6  13
HETATM   13  C   UNL     1       7.653  24.290  54.788  1.00  0.00    -0.004 A 
HETATM   14  C   UNL     1       7.943  23.923  53.460  1.00  0.00     0.042 A 
HETATM   15 CL   UNL     1       8.159  25.084  52.199  1.00  0.00    -0.084 Cl
HETATM   16  C   UNL     1       8.094  22.578  53.105  1.00  0.00     0.024 A 
HETATM   17  C   UNL     1       7.957  21.577  54.063  1.00  0.00     0.002 A 
HETATM   18  C   UNL     1       7.668  21.915  55.379  1.00  0.00     0.001 A 
HETATM   19  C   UNL     1       7.514  23.255  55.739  1.00  0.00     0.011 A 
ENDBRANCH   6  13
ENDBRANCH   5   6
ENDBRANCH   2   5
BRANCH   1  20
HETATM   20  C   UNL     1       8.624  29.466  57.720  1.00  0.00     0.144 C 
BRANCH  20  21
HETATM   21  C   UNL     1       8.165  30.357  58.824  1.00  0.00    -0.014 A 
HETATM   22  C   UNL     1       7.061  31.269  58.838  1.00  0.00     0.006 A 
HETATM   23  C   UNL     1       7.014  31.801  60.120  1.00  0.00     0.088 A 
HETATM   24  C   UNL     1       6.095  31.700  57.910  1.00  0.00     0.017 A 
HETATM   25  C   UNL     1       6.066  32.723  60.565  1.00  0.00     0.074 A 
HETATM   26  O   UNL     1       8.019  31.286  60.878  1.00  0.00    -0.321 OA
HETATM   27  C   UNL     1       5.109  33.129  59.632  1.00  0.00     0.070 A 
HETATM   28  C   UNL     1       5.138  32.640  58.322  1.00  0.00     0.038 A 
HETATM   29  C   UNL     1       8.707  30.421  60.094  1.00  0.00     0.151 A 
BRANCH  27  30
HETATM   30  O   UNL     1       4.100  34.025  59.878  1.00  0.00    -0.356 OA
HETATM   31  C   UNL     1       2.956  33.509  60.551  1.00  0.00     0.210 C 
ENDBRANCH  27  30
ENDBRANCH  20  21
ENDBRANCH   1  20
TORSDOF 7
ENDMDL
MODEL 8
REMARK VINA RESULT:      -8.5      6.173      9.694
REMARK  7 active torsions:
REMARK  status: ('A' for Active; 'I' for Inactive)
REMARK    1  A    between atoms: O_2  and  C_3 
REMARK    2  A    between atoms: C_7  and  C_8 
REMARK    3  A    between atoms: C_8  and  C_9 
REMARK       I    between atoms: C_9  and  N_10 
REMARK    4  A    between atoms: N_10  and  C_11 
REMARK    5  A    between atoms: C_11  and  C_12 
REMARK    6  A    between atoms: C_12  and  N_13 
REMARK    7  A    between atoms: C_12  and  C_19 
ROOT
HETATM    1  C   UNL     1       5.638  26.175  51.454  1.00  0.00     0.222 C 
HETATM    2  N   UNL     1       5.732  27.029  50.368  1.00  0.00    -0.358 N 
HETATM    3  O   UNL     1       4.846  25.241  51.453  1.00  0.00    -0.273 OA
HETATM    4  H   UNL     1       6.306  27.863  50.464  1.00  0.00     0.162 HD
ENDROOT
BRANCH   2   5
HETATM    5  C   UNL     1       4.789  26.970  49.256  1.00  0.00     0.160 C 
BRANCH   5   6
HETATM    6  C   UNL     1       3.530  27.886  49.400  1.00  0.00     0.240 C 
BRANCH   6   7
HETATM    7  N   UNL     1       2.246  27.177  48.973  1.00  0.00    -0.061 N 
HETATM    8  H   UNL     1       1.870  26.760  49.836  1.00  0.00     0.280 HD
HETATM    9  C   UNL     1       2.436  26.063  47.955  1.00  0.00     0.236 C 
HETATM   10  C   UNL     1       1.806  26.592  46.686  1.00  0.00     0.029 C 
HETATM   11  C   UNL     1       0.614  27.361  47.203  1.00  0.00     0.029 C 
HETATM   12  C   UNL     1       1.166  28.096  48.410  1.00  0.00     0.236 C 
ENDBRANCH   6   7
BRANCH   6  13
HETATM   13  C   UNL     1       3.779  29.231  48.722  1.00  0.00    -0.004 A 
HETATM   14  C   UNL     1       3.459  30.487  49.272  1.00  0.00     0.042 A 
HETATM   15 CL   UNL     1       2.773  30.666  50.849  1.00  0.00    -0.084 Cl
HETATM   16  C   UNL     1       3.709  31.666  48.562  1.00  0.00     0.024 A 
HETATM   17  C   UNL     1       4.279  31.616  47.292  1.00  0.00     0.002 A 
HETATM   18  C   UNL     1       4.601  30.388  46.727  1.00  0.00     0.001 A 
HETATM   19  C   UNL     1       4.351  29.208  47.431  1.00  0.00     0.011 A 
ENDBRANCH   6  13
ENDBRANCH   5   6
ENDBRANCH   2   5
BRANCH   1  20
HETATM   20  C   UNL     1       6.641  26.487  52.558  1.00  0.00     0.144 C 
BRANCH  20  21
HETATM   21  C   UNL     1       6.659  25.515  53.687  1.00  0.00    -0.014 A 
HETATM   22  C   UNL     1       7.228  24.201  53.729  1.00  0.00     0.006 A 
HETATM   23  C   UNL     1       7.044  23.740  55.026  1.00  0.00     0.088 A 
HETATM   24  C   UNL     1       7.881  23.354  52.815  1.00  0.00     0.017 A 
HETATM   25  C   UNL     1       7.475  22.500  55.499  1.00  0.00     0.074 A 
HETATM   26  O   UNL     1       6.391  24.675  55.768  1.00  0.00    -0.321 OA
HETATM   27  C   UNL     1       8.132  21.678  54.579  1.00  0.00     0.070 A 
HETATM   28  C   UNL     1       8.312  22.093  53.255  1.00  0.00     0.038 A 
HETATM   29  C   UNL     1       6.162  25.737  54.958  1.00  0.00     0.151 A 
BRANCH  27  30
HETATM   30  O   UNL     1       8.627  20.429  54.851  1.00  0.00    -0.356 OA
HETATM   31  C   UNL     1       9.163  20.240  56.157  1.00  0.00     0.210 C 
ENDBRANCH  27  30
ENDBRANCH  20  21
ENDBRANCH   1  20
TORSDOF 7
ENDMDL
MODEL 9
REMARK VINA RESULT:      -8.3      3.526      9.258
REMARK  7 active torsions:
REMARK  status: ('A' for Active; 'I' for Inactive)
REMARK    1  A    between atoms: O_2  and  C_3 
REMARK    2  A    between atoms: C_7  and  C_8 
REMARK    3  A    between atoms: C_8  and  C_9 
REMARK       I    between atoms: C_9  and  N_10 
REMARK    4  A    between atoms: N_10  and  C_11 
REMARK    5  A    between atoms: C_11  and  C_12 
REMARK    6  A    between atoms: C_12  and  N_13 
REMARK    7  A    between atoms: C_12  and  C_19 
ROOT
HETATM    1  C   UNL     1       6.301  27.322  56.990  1.00  0.00     0.222 C 
HETATM    2  N   UNL     1       5.776  28.582  56.756  1.00  0.00    -0.358 N 
HETATM    3  O   UNL     1       7.384  27.185  57.547  1.00  0.00    -0.273 OA
HETATM    4  H   UNL     1       4.942  28.651  56.179  1.00  0.00     0.162 HD
ENDROOT
BRANCH   2   5
HETATM    5  C   UNL     1       6.548  29.797  56.997  1.00  0.00     0.160 C 
BRANCH   5   6
HETATM    6  C   UNL     1       6.021  30.701  58.158  1.00  0.00     0.240 C 
BRANCH   6   7
HETATM    7  N   UNL     1       5.017  31.745  57.670  1.00  0.00    -0.061 N 
HETATM    8  H   UNL     1       5.203  32.583  58.239  1.00  0.00     0.280 HD
HETATM    9  C   UNL     1       3.556  31.366  57.857  1.00  0.00     0.236 C 
HETATM   10  C   UNL     1       3.035  31.146  56.453  1.00  0.00     0.029 C 
HETATM   11  C   UNL     1       3.760  32.206  55.661  1.00  0.00     0.029 C 
HETATM   12  C   UNL     1       5.174  32.149  56.207  1.00  0.00     0.236 C 
ENDBRANCH   6   7
BRANCH   6  13
HETATM   13  C   UNL     1       7.193  31.263  58.960  1.00  0.00    -0.004 A 
HETATM   14  C   UNL     1       7.077  32.019  60.142  1.00  0.00     0.042 A 
HETATM   15 CL   UNL     1       5.552  32.372  60.876  1.00  0.00    -0.084 Cl
HETATM   16  C   UNL     1       8.213  32.506  60.796  1.00  0.00     0.024 A 
HETATM   17  C   UNL     1       9.483  32.252  60.285  1.00  0.00     0.002 A 
HETATM   18  C   UNL     1       9.623  31.510  59.119  1.00  0.00     0.001 A 
HETATM   19  C   UNL     1       8.492  31.023  58.461  1.00  0.00     0.011 A 
ENDBRANCH   6  13
ENDBRANCH   5   6
ENDBRANCH   2   5
BRANCH   1  20
HETATM   20  C   UNL     1       5.377  26.191  56.556  1.00  0.00     0.144 C 
BRANCH  20  21
HETATM   21  C   UNL     1       5.764  25.512  55.287  1.00  0.00    -0.014 A 
HETATM   22  C   UNL     1       6.714  24.458  55.090  1.00  0.00     0.006 A 
HETATM   23  C   UNL     1       6.653  24.129  53.741  1.00  0.00     0.088 A 
HETATM   24  C   UNL     1       7.615  23.745  55.901  1.00  0.00     0.017 A 
HETATM   25  C   UNL     1       7.409  23.128  53.131  1.00  0.00     0.074 A 
HETATM   26  O   UNL     1       5.744  24.918  53.107  1.00  0.00    -0.321 OA
HETATM   27  C   UNL     1       8.290  22.424  53.957  1.00  0.00     0.070 A 
HETATM   28  C   UNL     1       8.403  22.744  55.314  1.00  0.00     0.038 A 
HETATM   29  C   UNL     1       5.216  25.746  54.040  1.00  0.00     0.151 A 
BRANCH  27  30
HETATM   30  O   UNL     1       9.114  21.409  53.545  1.00  0.00    -0.356 OA
HETATM   31  C   UNL     1       8.483  20.326  52.868  1.00  0.00     0.210 C 
ENDBRANCH  27  30
ENDBRANCH  20  21
ENDBRANCH   1  20
TORSDOF 7
ENDMDL
MODEL 10
REMARK VINA RESULT:      -8.3      1.486      1.973
REMARK  7 active torsions:
REMARK  status: ('A' for Active; 'I' for Inactive)
REMARK    1  A    between atoms: O_2  and  C_3 
REMARK    2  A    between atoms: C_7  and  C_8 
REMARK    3  A    between atoms: C_8  and  C_9 
REMARK       I    between atoms: C_9  and  N_10 
REMARK    4  A    between atoms: N_10  and  C_11 
REMARK    5  A    between atoms: C_11  and  C_12 
REMARK    6  A    between atoms: C_12  and  N_13 
REMARK    7  A    between atoms: C_12  and  C_19 
ROOT
HETATM    1  C   UNL     1       7.999  29.211  57.605  1.00  0.00     0.222 C 
HETATM    2  N   UNL     1       7.881  28.796  56.290  1.00  0.00    -0.358 N 
HETATM    3  O   UNL     1       7.991  28.400  58.524  1.00  0.00    -0.273 OA
HETATM    4  H   UNL     1       7.762  29.509  55.574  1.00  0.00     0.162 HD
ENDROOT
BRANCH   2   5
HETATM    5  C   UNL     1       7.571  27.414  55.941  1.00  0.00     0.160 C 
BRANCH   5   6
HETATM    6  C   UNL     1       6.848  27.219  54.568  1.00  0.00     0.240 C 
BRANCH   6   7
HETATM    7  N   UNL     1       5.361  27.564  54.642  1.00  0.00    -0.061 N 
HETATM    8  H   UNL     1       5.030  27.136  55.518  1.00  0.00     0.280 HD
HETATM    9  C   UNL     1       4.519  27.012  53.502  1.00  0.00     0.236 C 
HETATM   10  C   UNL     1       4.105  28.232  52.708  1.00  0.00     0.029 C 
HETATM   11  C   UNL     1       3.882  29.268  53.783  1.00  0.00     0.029 C 
HETATM   12  C   UNL     1       5.054  29.055  54.723  1.00  0.00     0.236 C 
ENDBRANCH   6   7
BRANCH   6  13
HETATM   13  C   UNL     1       7.161  25.836  54.002  1.00  0.00    -0.004 A 
HETATM   14  C   UNL     1       6.943  24.618  54.673  1.00  0.00     0.042 A 
HETATM   15 CL   UNL     1       6.230  24.535  56.246  1.00  0.00    -0.084 Cl
HETATM   16  C   UNL     1       7.281  23.399  54.075  1.00  0.00     0.024 A 
HETATM   17  C   UNL     1       7.842  23.371  52.801  1.00  0.00     0.002 A 
HETATM   18  C   UNL     1       8.068  24.561  52.120  1.00  0.00     0.001 A 
HETATM   19  C   UNL     1       7.736  25.780  52.713  1.00  0.00     0.011 A 
ENDBRANCH   6  13
ENDBRANCH   5   6
ENDBRANCH   2   5
BRANCH   1  20
HETATM   20  C   UNL     1       8.201  30.714  57.751  1.00  0.00     0.144 C 
BRANCH  20  21
HETATM   21  C   UNL     1       7.401  31.357  58.832  1.00  0.00    -0.014 A 
HETATM   22  C   UNL     1       7.787  31.643  60.181  1.00  0.00     0.006 A 
HETATM   23  C   UNL     1       6.714  32.311  60.758  1.00  0.00     0.088 A 
HETATM   24  C   UNL     1       8.924  31.415  60.977  1.00  0.00     0.017 A 
HETATM   25  C   UNL     1       6.685  32.790  62.068  1.00  0.00     0.074 A 
HETATM   26  O   UNL     1       5.702  32.436  59.858  1.00  0.00    -0.321 OA
HETATM   27  C   UNL     1       7.830  32.563  62.837  1.00  0.00     0.070 A 
HETATM   28  C   UNL     1       8.921  31.869  62.305  1.00  0.00     0.038 A 
HETATM   29  C   UNL     1       6.121  31.861  58.705  1.00  0.00     0.151 A 
BRANCH  27  30
HETATM   30  O   UNL     1       7.992  32.956  64.141  1.00  0.00    -0.356 OA
HETATM   31  C   UNL     1       6.891  33.640  64.731  1.00  0.00     0.210 C 
ENDBRANCH  27  30
ENDBRANCH  20  21
ENDBRANCH   1  20
TORSDOF 7
ENDMDL
