MODEL 1
REMARK VINA RESULT:      -8.7      0.000      0.000
REMARK  7 active torsions:
REMARK  status: ('A' for Active; 'I' for Inactive)
REMARK    1  A    between atoms: C_2  and  O_3 
REMARK    2  A    between atoms: O_3  and  C_4 
REMARK    3  A    between atoms: C_4  and  C_5 
REMARK    4  A    between atoms: C_10  and  N_11 
REMARK       I    between atoms: N_11  and  C_12 
REMARK       I    between atoms: C_12  and  N_13 
REMARK    5  A    between atoms: N_13  and  N_14 
REMARK       I    between atoms: N_14  and  C_15 
REMARK    6  A    between atoms: C_15  and  C_16 
REMARK    7  A    between atoms: C_19  and  O_20 
ROOT
HETATM    1  N   UNL     1       7.160  30.369  57.743  1.00  0.00    -0.293 N 
HETATM    2  C   UNL     1       7.499  29.062  57.456  1.00  0.00     0.340 C 
HETATM    3  N   UNL     1       7.262  28.755  56.127  1.00  0.00    -0.249 N 
HETATM    4  O   UNL     1       7.920  28.231  58.261  1.00  0.00    -0.245 OA
HETATM    5  H   UNL     1       6.751  30.928  57.009  1.00  0.00     0.172 HD
HETATM    6  H   UNL     1       7.338  29.488  55.426  1.00  0.00     0.192 HD
ENDROOT
BRANCH   1   7
HETATM    7  C   UNL     1       7.234  30.914  59.009  1.00  0.00     0.116 A 
HETATM    8  N   UNL     1       8.085  30.438  59.969  1.00  0.00    -0.345 N 
HETATM    9  C   UNL     1       7.923  31.137  61.136  1.00  0.00     0.024 A 
HETATM   10  H   UNL     1       8.718  29.659  59.817  1.00  0.00     0.167 HD
HETATM   11  C   UNL     1       6.934  32.098  60.932  1.00  0.00     0.071 A 
HETATM   12  C   UNL     1       8.723  30.800  62.344  1.00  0.00     0.069 C 
HETATM   13  C   UNL     1       6.518  31.967  59.551  1.00  0.00     0.000 A 
HETATM   14  C   UNL     1       5.494  32.797  58.853  1.00  0.00     0.053 C 
BRANCH  11  15
HETATM   15  C   UNL     1       6.452  33.023  61.966  1.00  0.00     0.295 C 
HETATM   16  O   UNL     1       6.538  34.243  61.880  1.00  0.00    -0.259 OA
BRANCH  15  17
HETATM   17  O   UNL     1       5.911  32.377  63.041  1.00  0.00    -0.318 OA
BRANCH  17  18
HETATM   18  C   UNL     1       5.908  33.103  64.278  1.00  0.00     0.174 C 
HETATM   19  C   UNL     1       7.322  33.237  64.813  1.00  0.00     0.034 C 
ENDBRANCH  17  18
ENDBRANCH  15  17
ENDBRANCH  11  15
ENDBRANCH   1   7
BRANCH   3  20
HETATM   20  N   UNL     1       7.654  27.487  55.666  1.00  0.00    -0.262 N 
HETATM   21  C   UNL     1       6.673  26.690  55.110  1.00  0.00     0.270 C 
HETATM   22  O   UNL     1       5.498  27.051  55.056  1.00  0.00    -0.266 OA
HETATM   23  H   UNL     1       8.652  27.356  55.510  1.00  0.00     0.190 HD
BRANCH  21  24
HETATM   24  C   UNL     1       7.093  25.373  54.556  1.00  0.00     0.033 A 
HETATM   25  C   UNL     1       6.975  24.178  55.273  1.00  0.00     0.020 A 
HETATM   26  C   UNL     1       7.355  22.969  54.680  1.00  0.00     0.038 A 
HETATM   27  C   UNL     1       7.843  22.934  53.370  1.00  0.00     0.068 A 
HETATM   28  C   UNL     1       7.960  24.125  52.654  1.00  0.00     0.038 A 
HETATM   29  C   UNL     1       7.583  25.337  53.244  1.00  0.00     0.020 A 
BRANCH  27  30
HETATM   30  O   UNL     1       8.164  21.686  52.912  1.00  0.00    -0.356 OA
HETATM   31  C   UNL     1       7.978  20.603  53.815  1.00  0.00     0.210 C 
ENDBRANCH  27  30
ENDBRANCH  21  24
ENDBRANCH   3  20
TORSDOF 7
ENDMDL
MODEL 2
REMARK VINA RESULT:      -8.7      1.812     10.840
REMARK  7 active torsions:
REMARK  status: ('A' for Active; 'I' for Inactive)
REMARK    1  A    between atoms: C_2  and  O_3 
REMARK    2  A    between atoms: O_3  and  C_4 
REMARK    3  A    between atoms: C_4  and  C_5 
REMARK    4  A    between atoms: C_10  and  N_11 
REMARK       I    between atoms: N_11  and  C_12 
REMARK       I    between atoms: C_12  and  N_13 
REMARK    5  A    between atoms: N_13  and  N_14 
REMARK       I    between atoms: N_14  and  C_15 
REMARK    6  A    between atoms: C_15  and  C_16 
REMARK    7  A    between atoms: C_19  and  O_20 
ROOT
HETATM    1  N   UNL     1       8.405  28.614  57.684  1.00  0.00    -0.293 N 
HETATM    2  C   UNL     1       7.632  29.525  58.375  1.00  0.00     0.340 C 
HETATM    3  N   UNL     1       8.287  30.000  59.498  1.00  0.00    -0.249 N 
HETATM    4  O   UNL     1       6.485  29.866  58.086  1.00  0.00    -0.245 OA
HETATM    5  H   UNL     1       9.304  28.361  58.069  1.00  0.00     0.172 HD
HETATM    6  H   UNL     1       9.303  30.064  59.492  1.00  0.00     0.192 HD
ENDROOT
BRANCH   1   7
HETATM    7  C   UNL     1       7.966  27.937  56.565  1.00  0.00     0.116 A 
HETATM    8  N   UNL     1       7.540  28.579  55.433  1.00  0.00    -0.345 N 
HETATM    9  C   UNL     1       7.126  27.667  54.497  1.00  0.00     0.024 A 
HETATM   10  H   UNL     1       7.523  29.589  55.338  1.00  0.00     0.167 HD
HETATM   11  C   UNL     1       7.284  26.392  55.036  1.00  0.00     0.071 A 
HETATM   12  C   UNL     1       6.600  28.113  53.180  1.00  0.00     0.069 C 
HETATM   13  C   UNL     1       7.852  26.573  56.356  1.00  0.00     0.000 A 
HETATM   14  C   UNL     1       8.225  25.494  57.315  1.00  0.00     0.053 C 
BRANCH  11  15
HETATM   15  C   UNL     1       6.913  25.149  54.345  1.00  0.00     0.295 C 
HETATM   16  O   UNL     1       5.765  24.723  54.283  1.00  0.00    -0.259 OA
BRANCH  15  17
HETATM   17  O   UNL     1       7.987  24.511  53.794  1.00  0.00    -0.318 OA
BRANCH  17  18
HETATM   18  C   UNL     1       8.233  23.176  54.254  1.00  0.00     0.174 C 
HETATM   19  C   UNL     1       7.994  22.180  53.134  1.00  0.00     0.034 C 
ENDBRANCH  17  18
ENDBRANCH  15  17
ENDBRANCH  11  15
ENDBRANCH   1   7
BRANCH   3  20
HETATM   20  N   UNL     1       7.661  31.013  60.244  1.00  0.00    -0.262 N 
HETATM   21  C   UNL     1       8.160  31.259  61.509  1.00  0.00     0.270 C 
HETATM   22  O   UNL     1       9.083  30.599  61.982  1.00  0.00    -0.266 OA
HETATM   23  H   UNL     1       7.091  31.672  59.716  1.00  0.00     0.190 HD
BRANCH  21  24
HETATM   24  C   UNL     1       7.547  32.377  62.280  1.00  0.00     0.033 A 
HETATM   25  C   UNL     1       6.622  33.264  61.721  1.00  0.00     0.020 A 
HETATM   26  C   UNL     1       6.057  34.270  62.512  1.00  0.00     0.038 A 
HETATM   27  C   UNL     1       6.395  34.398  63.863  1.00  0.00     0.068 A 
HETATM   28  C   UNL     1       7.317  33.513  64.421  1.00  0.00     0.038 A 
HETATM   29  C   UNL     1       7.887  32.506  63.633  1.00  0.00     0.020 A 
BRANCH  27  30
HETATM   30  O   UNL     1       5.759  35.415  64.519  1.00  0.00    -0.356 OA
HETATM   31  C   UNL     1       4.363  35.556  64.284  1.00  0.00     0.210 C 
ENDBRANCH  27  30
ENDBRANCH  21  24
ENDBRANCH   3  20
TORSDOF 7
ENDMDL
MODEL 3
REMARK VINA RESULT:      -8.4      6.340     10.221
REMARK  7 active torsions:
REMARK  status: ('A' for Active; 'I' for Inactive)
REMARK    1  A    between atoms: C_2  and  O_3 
REMARK    2  A    between atoms: O_3  and  C_4 
REMARK    3  A    between atoms: C_4  and  C_5 
REMARK    4  A    between atoms: C_10  and  N_11 
REMARK       I    between atoms: N_11  and  C_12 
REMARK       I    between atoms: C_12  and  N_13 
REMARK    5  A    between atoms: N_13  and  N_14 
REMARK       I    between atoms: N_14  and  C_15 
REMARK    6  A    between atoms: C_15  and  C_16 
REMARK    7  A    between atoms: C_19  and  O_20 
ROOT
HETATM    1  N   UNL     1       5.471  24.706  52.263  1.00  0.00    -0.293 N 
HETATM    2  C   UNL     1       4.864  25.823  51.725  1.00  0.00     0.340 C 
HETATM    3  N   UNL     1       4.589  25.653  50.378  1.00  0.00    -0.249 N 
HETATM    4  O   UNL     1       4.621  26.872  52.320  1.00  0.00    -0.245 OA
HETATM    5  H   UNL     1       5.686  23.935  51.648  1.00  0.00     0.172 HD
HETATM    6  H   UNL     1       4.390  24.719  50.025  1.00  0.00     0.192 HD
ENDROOT
BRANCH   1   7
HETATM    7  C   UNL     1       5.911  24.635  53.569  1.00  0.00     0.116 A 
HETATM    8  N   UNL     1       5.239  25.220  54.608  1.00  0.00    -0.345 N 
HETATM    9  C   UNL     1       5.917  25.025  55.783  1.00  0.00     0.024 A 
HETATM   10  H   UNL     1       4.374  25.739  54.492  1.00  0.00     0.167 HD
HETATM   11  C   UNL     1       7.069  24.293  55.501  1.00  0.00     0.071 A 
HETATM   12  C   UNL     1       5.400  25.580  57.062  1.00  0.00     0.069 C 
HETATM   13  C   UNL     1       7.042  24.020  54.079  1.00  0.00     0.000 A 
HETATM   14  C   UNL     1       8.053  23.243  53.307  1.00  0.00     0.053 C 
BRANCH  11  15
HETATM   15  C   UNL     1       8.076  23.916  56.502  1.00  0.00     0.295 C 
HETATM   16  O   UNL     1       9.028  24.624  56.807  1.00  0.00    -0.259 OA
BRANCH  15  17
HETATM   17  O   UNL     1       7.847  22.683  57.043  1.00  0.00    -0.318 OA
BRANCH  17  18
HETATM   18  C   UNL     1       8.616  21.602  56.501  1.00  0.00     0.174 C 
HETATM   19  C   UNL     1       7.699  20.507  55.988  1.00  0.00     0.034 C 
ENDBRANCH  17  18
ENDBRANCH  15  17
ENDBRANCH  11  15
ENDBRANCH   1   7
BRANCH   3  20
HETATM   20  N   UNL     1       3.879  26.670  49.719  1.00  0.00    -0.262 N 
HETATM   21  C   UNL     1       3.308  26.350  48.503  1.00  0.00     0.270 C 
HETATM   22  O   UNL     1       3.446  25.239  47.994  1.00  0.00    -0.266 OA
HETATM   23  H   UNL     1       3.594  27.462  50.293  1.00  0.00     0.190 HD
BRANCH  21  24
HETATM   24  C   UNL     1       2.496  27.402  47.830  1.00  0.00     0.033 A 
HETATM   25  C   UNL     1       3.020  28.647  47.469  1.00  0.00     0.020 A 
HETATM   26  C   UNL     1       2.211  29.577  46.806  1.00  0.00     0.038 A 
HETATM   27  C   UNL     1       0.884  29.276  46.487  1.00  0.00     0.068 A 
HETATM   28  C   UNL     1       0.361  28.034  46.845  1.00  0.00     0.038 A 
HETATM   29  C   UNL     1       1.165  27.101  47.511  1.00  0.00     0.020 A 
BRANCH  27  30
HETATM   30  O   UNL     1       0.215  30.270  45.829  1.00  0.00    -0.356 OA
HETATM   31  C   UNL     1      -1.112  29.979  45.404  1.00  0.00     0.210 C 
ENDBRANCH  27  30
ENDBRANCH  21  24
ENDBRANCH   3  20
TORSDOF 7
ENDMDL
MODEL 4
REMARK VINA RESULT:      -8.1      1.574      2.379
REMARK  7 active torsions:
REMARK  status: ('A' for Active; 'I' for Inactive)
REMARK    1  A    between atoms: C_2  and  O_3 
REMARK    2  A    between atoms: O_3  and  C_4 
REMARK    3  A    between atoms: C_4  and  C_5 
REMARK    4  A    between atoms: C_10  and  N_11 
REMARK       I    between atoms: N_11  and  C_12 
REMARK       I    between atoms: C_12  and  N_13 
REMARK    5  A    between atoms: N_13  and  N_14 
REMARK       I    between atoms: N_14  and  C_15 
REMARK    6  A    between atoms: C_15  and  C_16 
REMARK    7  A    between atoms: C_19  and  O_20 
ROOT
HETATM    1  N   UNL     1       6.251  29.884  56.473  1.00  0.00    -0.293 N 
HETATM    2  C   UNL     1       6.308  28.505  56.482  1.00  0.00     0.340 C 
HETATM    3  N   UNL     1       6.090  27.979  55.219  1.00  0.00    -0.249 N 
HETATM    4  O   UNL     1       6.484  27.794  57.471  1.00  0.00    -0.245 OA
HETATM    5  H   UNL     1       6.022  30.347  55.606  1.00  0.00     0.172 HD
HETATM    6  H   UNL     1       6.370  28.517  54.401  1.00  0.00     0.192 HD
ENDROOT
BRANCH   1   7
HETATM    7  C   UNL     1       6.366  30.657  57.611  1.00  0.00     0.116 A 
HETATM    8  N   UNL     1       5.341  31.427  58.089  1.00  0.00    -0.345 N 
HETATM    9  C   UNL     1       5.743  32.114  59.204  1.00  0.00     0.024 A 
HETATM   10  H   UNL     1       4.430  31.480  57.645  1.00  0.00     0.167 HD
HETATM   11  C   UNL     1       7.073  31.785  59.459  1.00  0.00     0.071 A 
HETATM   12  C   UNL     1       4.813  33.039  59.906  1.00  0.00     0.069 C 
HETATM   13  C   UNL     1       7.457  30.823  58.447  1.00  0.00     0.000 A 
HETATM   14  C   UNL     1       8.784  30.156  58.319  1.00  0.00     0.053 C 
BRANCH  11  15
HETATM   15  C   UNL     1       7.871  32.351  60.556  1.00  0.00     0.295 C 
HETATM   16  O   UNL     1       8.901  32.992  60.385  1.00  0.00    -0.259 OA
BRANCH  15  17
HETATM   17  O   UNL     1       7.349  32.071  61.787  1.00  0.00    -0.318 OA
BRANCH  17  18
HETATM   18  C   UNL     1       7.170  33.190  62.666  1.00  0.00     0.174 C 
HETATM   19  C   UNL     1       7.842  32.925  64.000  1.00  0.00     0.034 C 
ENDBRANCH  17  18
ENDBRANCH  15  17
ENDBRANCH  11  15
ENDBRANCH   1   7
BRANCH   3  20
HETATM   20  N   UNL     1       6.219  26.590  55.055  1.00  0.00    -0.262 N 
HETATM   21  C   UNL     1       7.209  26.149  54.199  1.00  0.00     0.270 C 
HETATM   22  O   UNL     1       7.921  26.932  53.573  1.00  0.00    -0.266 OA
HETATM   23  H   UNL     1       5.785  26.011  55.773  1.00  0.00     0.190 HD
BRANCH  21  24
HETATM   24  C   UNL     1       7.398  24.676  54.072  1.00  0.00     0.033 A 
HETATM   25  C   UNL     1       7.676  24.052  52.852  1.00  0.00     0.020 A 
HETATM   26  C   UNL     1       7.879  22.668  52.808  1.00  0.00     0.038 A 
HETATM   27  C   UNL     1       7.819  21.897  53.972  1.00  0.00     0.068 A 
HETATM   28  C   UNL     1       7.543  22.519  55.190  1.00  0.00     0.038 A 
HETATM   29  C   UNL     1       7.337  23.902  55.238  1.00  0.00     0.020 A 
BRANCH  27  30
HETATM   30  O   UNL     1       8.049  20.562  53.787  1.00  0.00    -0.356 OA
HETATM   31  C   UNL     1       8.764  19.884  54.813  1.00  0.00     0.210 C 
ENDBRANCH  27  30
ENDBRANCH  21  24
ENDBRANCH   3  20
TORSDOF 7
ENDMDL
MODEL 5
REMARK VINA RESULT:      -8.0      6.537     10.153
REMARK  7 active torsions:
REMARK  status: ('A' for Active; 'I' for Inactive)
REMARK    1  A    between atoms: C_2  and  O_3 
REMARK    2  A    between atoms: O_3  and  C_4 
REMARK    3  A    between atoms: C_4  and  C_5 
REMARK    4  A    between atoms: C_10  and  N_11 
REMARK       I    between atoms: N_11  and  C_12 
REMARK       I    between atoms: C_12  and  N_13 
REMARK    5  A    between atoms: N_13  and  N_14 
REMARK       I    between atoms: N_14  and  C_15 
REMARK    6  A    between atoms: C_15  and  C_16 
REMARK    7  A    between atoms: C_19  and  O_20 
ROOT
HETATM    1  N   UNL     1       6.686  26.801  52.908  1.00  0.00    -0.293 N 
HETATM    2  C   UNL     1       5.442  26.760  52.311  1.00  0.00     0.340 C 
HETATM    3  N   UNL     1       5.225  27.868  51.510  1.00  0.00    -0.249 N 
HETATM    4  O   UNL     1       4.588  25.889  52.476  1.00  0.00    -0.245 OA
HETATM    5  H   UNL     1       7.265  27.613  52.750  1.00  0.00     0.172 HD
HETATM    6  H   UNL     1       6.018  28.316  51.054  1.00  0.00     0.192 HD
ENDROOT
BRANCH   1   7
HETATM    7  C   UNL     1       7.129  25.853  53.808  1.00  0.00     0.116 A 
HETATM    8  N   UNL     1       7.182  26.082  55.156  1.00  0.00    -0.345 N 
HETATM    9  C   UNL     1       7.694  24.988  55.804  1.00  0.00     0.024 A 
HETATM   10  H   UNL     1       6.899  26.957  55.585  1.00  0.00     0.167 HD
HETATM   11  C   UNL     1       7.986  24.017  54.849  1.00  0.00     0.071 A 
HETATM   12  C   UNL     1       7.872  24.991  57.281  1.00  0.00     0.069 C 
HETATM   13  C   UNL     1       7.591  24.570  53.570  1.00  0.00     0.000 A 
HETATM   14  C   UNL     1       7.686  23.893  52.245  1.00  0.00     0.053 C 
BRANCH  11  15
HETATM   15  C   UNL     1       8.588  22.711  55.152  1.00  0.00     0.295 C 
HETATM   16  O   UNL     1       9.784  22.546  55.359  1.00  0.00    -0.259 OA
BRANCH  15  17
HETATM   17  O   UNL     1       7.671  21.697  55.161  1.00  0.00    -0.318 OA
BRANCH  17  18
HETATM   18  C   UNL     1       8.109  20.446  54.616  1.00  0.00     0.174 C 
HETATM   19  C   UNL     1       8.007  20.465  53.103  1.00  0.00     0.034 C 
ENDBRANCH  17  18
ENDBRANCH  15  17
ENDBRANCH  11  15
ENDBRANCH   1   7
BRANCH   3  20
HETATM   20  N   UNL     1       4.040  27.913  50.757  1.00  0.00    -0.262 N 
HETATM   21  C   UNL     1       4.172  27.959  49.382  1.00  0.00     0.270 C 
HETATM   22  O   UNL     1       5.274  28.001  48.838  1.00  0.00    -0.266 OA
HETATM   23  H   UNL     1       3.191  27.625  51.240  1.00  0.00     0.190 HD
BRANCH  21  24
HETATM   24  C   UNL     1       2.921  27.937  48.574  1.00  0.00     0.033 A 
HETATM   25  C   UNL     1       2.437  26.777  47.961  1.00  0.00     0.020 A 
HETATM   26  C   UNL     1       1.236  26.817  47.245  1.00  0.00     0.038 A 
HETATM   27  C   UNL     1       0.501  28.002  47.141  1.00  0.00     0.068 A 
HETATM   28  C   UNL     1       0.982  29.159  47.753  1.00  0.00     0.038 A 
HETATM   29  C   UNL     1       2.185  29.125  48.468  1.00  0.00     0.020 A 
BRANCH  27  30
HETATM   30  O   UNL     1      -0.659  27.895  46.424  1.00  0.00    -0.356 OA
HETATM   31  C   UNL     1      -0.535  27.550  45.050  1.00  0.00     0.210 C 
ENDBRANCH  27  30
ENDBRANCH  21  24
ENDBRANCH   3  20
TORSDOF 7
ENDMDL
MODEL 6
REMARK VINA RESULT:      -7.9      2.690     10.660
REMARK  7 active torsions:
REMARK  status: ('A' for Active; 'I' for Inactive)
REMARK    1  A    between atoms: C_2  and  O_3 
REMARK    2  A    between atoms: O_3  and  C_4 
REMARK    3  A    between atoms: C_4  and  C_5 
REMARK    4  A    between atoms: C_10  and  N_11 
REMARK       I    between atoms: N_11  and  C_12 
REMARK       I    between atoms: C_12  and  N_13 
REMARK    5  A    between atoms: N_13  and  N_14 
REMARK       I    between atoms: N_14  and  C_15 
REMARK    6  A    between atoms: C_15  and  C_16 
REMARK    7  A    between atoms: C_19  and  O_20 
ROOT
HETATM    1  N   UNL     1       4.922  26.905  56.351  1.00  0.00    -0.293 N 
HETATM    2  C   UNL     1       5.302  28.020  57.071  1.00  0.00     0.340 C 
HETATM    3  N   UNL     1       4.250  28.905  57.231  1.00  0.00    -0.249 N 
HETATM    4  O   UNL     1       6.433  28.255  57.497  1.00  0.00    -0.245 OA
HETATM    5  H   UNL     1       3.980  26.867  55.991  1.00  0.00     0.172 HD
HETATM    6  H   UNL     1       3.299  28.545  57.274  1.00  0.00     0.192 HD
ENDROOT
BRANCH   1   7
HETATM    7  C   UNL     1       5.794  25.897  55.992  1.00  0.00     0.116 A 
HETATM    8  N   UNL     1       6.722  25.381  56.856  1.00  0.00    -0.345 N 
HETATM    9  C   UNL     1       7.476  24.425  56.227  1.00  0.00     0.024 A 
HETATM   10  H   UNL     1       6.829  25.698  57.814  1.00  0.00     0.167 HD
HETATM   11  C   UNL     1       7.028  24.316  54.912  1.00  0.00     0.071 A 
HETATM   12  C   UNL     1       8.570  23.721  56.948  1.00  0.00     0.069 C 
HETATM   13  C   UNL     1       5.926  25.246  54.778  1.00  0.00     0.000 A 
HETATM   14  C   UNL     1       5.103  25.473  53.555  1.00  0.00     0.053 C 
BRANCH  11  15
HETATM   15  C   UNL     1       7.615  23.418  53.908  1.00  0.00     0.295 C 
HETATM   16  O   UNL     1       8.170  23.810  52.888  1.00  0.00    -0.259 OA
BRANCH  15  17
HETATM   17  O   UNL     1       7.461  22.099  54.226  1.00  0.00    -0.318 OA
BRANCH  17  18
HETATM   18  C   UNL     1       8.601  21.259  54.003  1.00  0.00     0.174 C 
HETATM   19  C   UNL     1       8.359  20.345  52.816  1.00  0.00     0.034 C 
ENDBRANCH  17  18
ENDBRANCH  15  17
ENDBRANCH  11  15
ENDBRANCH   1   7
BRANCH   3  20
HETATM   20  N   UNL     1       4.463  30.040  58.030  1.00  0.00    -0.262 N 
HETATM   21  C   UNL     1       3.680  31.148  57.768  1.00  0.00     0.270 C 
HETATM   22  O   UNL     1       2.862  31.161  56.850  1.00  0.00    -0.266 OA
HETATM   23  H   UNL     1       4.956  29.884  58.908  1.00  0.00     0.190 HD
BRANCH  21  24
HETATM   24  C   UNL     1       3.851  32.333  58.655  1.00  0.00     0.033 A 
HETATM   25  C   UNL     1       4.374  32.240  59.949  1.00  0.00     0.020 A 
HETATM   26  C   UNL     1       4.542  33.397  60.717  1.00  0.00     0.038 A 
HETATM   27  C   UNL     1       4.202  34.653  60.206  1.00  0.00     0.068 A 
HETATM   28  C   UNL     1       3.681  34.747  58.916  1.00  0.00     0.038 A 
HETATM   29  C   UNL     1       3.510  33.592  58.144  1.00  0.00     0.020 A 
BRANCH  27  30
HETATM   30  O   UNL     1       4.430  35.698  61.059  1.00  0.00    -0.356 OA
HETATM   31  C   UNL     1       5.068  35.392  62.293  1.00  0.00     0.210 C 
ENDBRANCH  27  30
ENDBRANCH  21  24
ENDBRANCH   3  20
TORSDOF 7
ENDMDL
MODEL 7
REMARK VINA RESULT:      -7.7      6.723     10.391
REMARK  7 active torsions:
REMARK  status: ('A' for Active; 'I' for Inactive)
REMARK    1  A    between atoms: C_2  and  O_3 
REMARK    2  A    between atoms: O_3  and  C_4 
REMARK    3  A    between atoms: C_4  and  C_5 
REMARK    4  A    between atoms: C_10  and  N_11 
REMARK       I    between atoms: N_11  and  C_12 
REMARK       I    between atoms: C_12  and  N_13 
REMARK    5  A    between atoms: N_13  and  N_14 
REMARK       I    between atoms: N_14  and  C_15 
REMARK    6  A    between atoms: C_15  and  C_16 
REMARK    7  A    between atoms: C_19  and  O_20 
ROOT
HETATM    1  N   UNL     1       6.669  26.276  52.116  1.00  0.00    -0.293 N 
HETATM    2  C   UNL     1       5.446  26.185  51.482  1.00  0.00     0.340 C 
HETATM    3  N   UNL     1       5.104  27.376  50.864  1.00  0.00    -0.249 N 
HETATM    4  O   UNL     1       4.704  25.203  51.479  1.00  0.00    -0.245 OA
HETATM    5  H   UNL     1       7.146  27.166  52.109  1.00  0.00     0.172 HD
HETATM    6  H   UNL     1       5.841  27.983  50.511  1.00  0.00     0.192 HD
ENDROOT
BRANCH   1   7
HETATM    7  C   UNL     1       7.215  25.253  52.865  1.00  0.00     0.116 A 
HETATM    8  N   UNL     1       7.546  24.040  52.327  1.00  0.00    -0.345 N 
HETATM    9  C   UNL     1       8.030  23.205  53.300  1.00  0.00     0.024 A 
HETATM   10  H   UNL     1       7.418  23.810  51.347  1.00  0.00     0.167 HD
HETATM   11  C   UNL     1       8.012  23.895  54.510  1.00  0.00     0.071 A 
HETATM   12  C   UNL     1       8.447  21.814  52.974  1.00  0.00     0.069 C 
HETATM   13  C   UNL     1       7.514  25.222  54.216  1.00  0.00     0.000 A 
HETATM   14  C   UNL     1       7.338  26.337  55.191  1.00  0.00     0.053 C 
BRANCH  11  15
HETATM   15  C   UNL     1       8.424  23.319  55.799  1.00  0.00     0.295 C 
HETATM   16  O   UNL     1       9.318  23.784  56.495  1.00  0.00    -0.259 OA
BRANCH  15  17
HETATM   17  O   UNL     1       7.712  22.200  56.128  1.00  0.00    -0.318 OA
BRANCH  17  18
HETATM   18  C   UNL     1       8.379  21.255  56.975  1.00  0.00     0.174 C 
HETATM   19  C   UNL     1       9.181  20.273  56.140  1.00  0.00     0.034 C 
ENDBRANCH  17  18
ENDBRANCH  15  17
ENDBRANCH  11  15
ENDBRANCH   1   7
BRANCH   3  20
HETATM   20  N   UNL     1       3.930  27.401  50.092  1.00  0.00    -0.262 N 
HETATM   21  C   UNL     1       4.004  28.021  48.860  1.00  0.00     0.270 C 
HETATM   22  O   UNL     1       5.035  28.565  48.468  1.00  0.00    -0.266 OA
HETATM   23  H   UNL     1       3.208  26.733  50.353  1.00  0.00     0.190 HD
BRANCH  21  24
HETATM   24  C   UNL     1       2.784  27.993  48.006  1.00  0.00     0.033 A 
HETATM   25  C   UNL     1       2.129  29.154  47.582  1.00  0.00     0.020 A 
HETATM   26  C   UNL     1       1.009  29.057  46.751  1.00  0.00     0.038 A 
HETATM   27  C   UNL     1       0.536  27.813  46.324  1.00  0.00     0.068 A 
HETATM   28  C   UNL     1       1.189  26.655  46.744  1.00  0.00     0.038 A 
HETATM   29  C   UNL     1       2.309  26.746  47.578  1.00  0.00     0.020 A 
BRANCH  27  30
HETATM   30  O   UNL     1      -0.558  27.867  45.504  1.00  0.00    -0.356 OA
HETATM   31  C   UNL     1      -0.910  29.144  44.987  1.00  0.00     0.210 C 
ENDBRANCH  27  30
ENDBRANCH  21  24
ENDBRANCH   3  20
TORSDOF 7
ENDMDL
MODEL 8
REMARK VINA RESULT:      -7.7      1.563      2.668
REMARK  7 active torsions:
REMARK  status: ('A' for Active; 'I' for Inactive)
REMARK    1  A    between atoms: C_2  and  O_3 
REMARK    2  A    between atoms: O_3  and  C_4 
REMARK    3  A    between atoms: C_4  and  C_5 
REMARK    4  A    between atoms: C_10  and  N_11 
REMARK       I    between atoms: N_11  and  C_12 
REMARK       I    between atoms: C_12  and  N_13 
REMARK    5  A    between atoms: N_13  and  N_14 
REMARK       I    between atoms: N_14  and  C_15 
REMARK    6  A    between atoms: C_15  and  C_16 
REMARK    7  A    between atoms: C_19  and  O_20 
ROOT
HETATM    1  N   UNL     1       7.571  31.296  59.165  1.00  0.00    -0.293 N 
HETATM    2  C   UNL     1       7.215  30.425  58.155  1.00  0.00     0.340 C 
HETATM    3  N   UNL     1       8.328  29.879  57.538  1.00  0.00    -0.249 N 
HETATM    4  O   UNL     1       6.067  30.173  57.788  1.00  0.00    -0.245 OA
HETATM    5  H   UNL     1       8.552  31.476  59.317  1.00  0.00     0.172 HD
HETATM    6  H   UNL     1       9.180  29.745  58.079  1.00  0.00     0.192 HD
ENDROOT
BRANCH   1   7
HETATM    7  C   UNL     1       6.657  32.028  59.896  1.00  0.00     0.116 A 
HETATM    8  N   UNL     1       5.686  32.794  59.310  1.00  0.00    -0.345 N 
HETATM    9  C   UNL     1       4.946  33.437  60.267  1.00  0.00     0.024 A 
HETATM   10  H   UNL     1       5.570  32.874  58.305  1.00  0.00     0.167 HD
HETATM   11  C   UNL     1       5.451  33.082  61.516  1.00  0.00     0.071 A 
HETATM   12  C   UNL     1       3.835  34.349  59.886  1.00  0.00     0.069 C 
HETATM   13  C   UNL     1       6.533  32.151  61.269  1.00  0.00     0.000 A 
HETATM   14  C   UNL     1       7.368  31.471  62.300  1.00  0.00     0.053 C 
BRANCH  11  15
HETATM   15  C   UNL     1       4.942  33.600  62.793  1.00  0.00     0.295 C 
HETATM   16  O   UNL     1       3.879  33.251  63.292  1.00  0.00    -0.259 OA
BRANCH  15  17
HETATM   17  O   UNL     1       5.775  34.525  63.358  1.00  0.00    -0.318 OA
BRANCH  17  18
HETATM   18  C   UNL     1       5.905  34.469  64.784  1.00  0.00     0.174 C 
HETATM   19  C   UNL     1       7.202  33.783  65.169  1.00  0.00     0.034 C 
ENDBRANCH  17  18
ENDBRANCH  15  17
ENDBRANCH  11  15
ENDBRANCH   1   7
BRANCH   3  20
HETATM   20  N   UNL     1       8.119  28.897  56.557  1.00  0.00    -0.262 N 
HETATM   21  C   UNL     1       7.982  27.593  56.993  1.00  0.00     0.270 C 
HETATM   22  O   UNL     1       8.078  27.294  58.182  1.00  0.00    -0.266 OA
HETATM   23  H   UNL     1       7.803  29.231  55.648  1.00  0.00     0.190 HD
BRANCH  21  24
HETATM   24  C   UNL     1       7.691  26.554  55.966  1.00  0.00     0.033 A 
HETATM   25  C   UNL     1       7.668  25.187  56.258  1.00  0.00     0.020 A 
HETATM   26  C   UNL     1       7.352  24.266  55.254  1.00  0.00     0.038 A 
HETATM   27  C   UNL     1       7.047  24.692  53.958  1.00  0.00     0.068 A 
HETATM   28  C   UNL     1       7.068  26.055  53.666  1.00  0.00     0.038 A 
HETATM   29  C   UNL     1       7.386  26.981  54.666  1.00  0.00     0.020 A 
BRANCH  27  30
HETATM   30  O   UNL     1       6.744  23.687  53.081  1.00  0.00    -0.356 OA
HETATM   31  C   UNL     1       7.672  22.612  52.992  1.00  0.00     0.210 C 
ENDBRANCH  27  30
ENDBRANCH  21  24
ENDBRANCH   3  20
TORSDOF 7
ENDMDL
MODEL 9
REMARK VINA RESULT:      -7.7      6.471     10.219
REMARK  7 active torsions:
REMARK  status: ('A' for Active; 'I' for Inactive)
REMARK    1  A    between atoms: C_2  and  O_3 
REMARK    2  A    between atoms: O_3  and  C_4 
REMARK    3  A    between atoms: C_4  and  C_5 
REMARK    4  A    between atoms: C_10  and  N_11 
REMARK       I    between atoms: N_11  and  C_12 
REMARK       I    between atoms: C_12  and  N_13 
REMARK    5  A    between atoms: N_13  and  N_14 
REMARK       I    between atoms: N_14  and  C_15 
REMARK    6  A    between atoms: C_15  and  C_16 
REMARK    7  A    between atoms: C_19  and  O_20 
ROOT
HETATM    1  N   UNL     1       4.978  25.233  52.211  1.00  0.00    -0.293 N 
HETATM    2  C   UNL     1       5.400  26.301  51.444  1.00  0.00     0.340 C 
HETATM    3  N   UNL     1       4.727  26.355  50.235  1.00  0.00    -0.249 N 
HETATM    4  O   UNL     1       6.287  27.100  51.741  1.00  0.00    -0.245 OA
HETATM    5  H   UNL     1       4.293  24.604  51.819  1.00  0.00     0.172 HD
HETATM    6  H   UNL     1       3.771  26.007  50.181  1.00  0.00     0.192 HD
ENDROOT
BRANCH   1   7
HETATM    7  C   UNL     1       5.532  24.909  53.433  1.00  0.00     0.116 A 
HETATM    8  N   UNL     1       5.024  25.365  54.618  1.00  0.00    -0.345 N 
HETATM    9  C   UNL     1       5.790  24.921  55.665  1.00  0.00     0.024 A 
HETATM   10  H   UNL     1       4.209  25.965  54.682  1.00  0.00     0.167 HD
HETATM   11  C   UNL     1       6.831  24.155  55.145  1.00  0.00     0.071 A 
HETATM   12  C   UNL     1       5.456  25.295  57.066  1.00  0.00     0.069 C 
HETATM   13  C   UNL     1       6.641  24.127  53.710  1.00  0.00     0.000 A 
HETATM   14  C   UNL     1       7.492  23.409  52.718  1.00  0.00     0.053 C 
BRANCH  11  15
HETATM   15  C   UNL     1       7.888  23.534  55.956  1.00  0.00     0.295 C 
HETATM   16  O   UNL     1       8.850  24.148  56.403  1.00  0.00    -0.259 OA
BRANCH  15  17
HETATM   17  O   UNL     1       7.691  22.196  56.144  1.00  0.00    -0.318 OA
BRANCH  17  18
HETATM   18  C   UNL     1       8.760  21.336  55.728  1.00  0.00     0.174 C 
HETATM   19  C   UNL     1       8.279  20.379  54.653  1.00  0.00     0.034 C 
ENDBRANCH  17  18
ENDBRANCH  15  17
ENDBRANCH  11  15
ENDBRANCH   1   7
BRANCH   3  20
HETATM   20  N   UNL     1       4.979  27.449  49.391  1.00  0.00    -0.262 N 
HETATM   21  C   UNL     1       4.070  28.489  49.423  1.00  0.00     0.270 C 
HETATM   22  O   UNL     1       3.061  28.446  50.124  1.00  0.00    -0.266 OA
HETATM   23  H   UNL     1       5.932  27.535  49.040  1.00  0.00     0.190 HD
BRANCH  21  24
HETATM   24  C   UNL     1       4.366  29.683  48.583  1.00  0.00     0.033 A 
HETATM   25  C   UNL     1       5.010  30.819  49.084  1.00  0.00     0.020 A 
HETATM   26  C   UNL     1       5.291  31.893  48.232  1.00  0.00     0.038 A 
HETATM   27  C   UNL     1       4.946  31.845  46.879  1.00  0.00     0.068 A 
HETATM   28  C   UNL     1       4.304  30.712  46.378  1.00  0.00     0.038 A 
HETATM   29  C   UNL     1       4.019  29.636  47.227  1.00  0.00     0.020 A 
BRANCH  27  30
HETATM   30  O   UNL     1       5.290  32.956  46.160  1.00  0.00    -0.356 OA
HETATM   31  C   UNL     1       5.254  34.202  46.847  1.00  0.00     0.210 C 
ENDBRANCH  27  30
ENDBRANCH  21  24
ENDBRANCH   3  20
TORSDOF 7
ENDMDL
MODEL 10
REMARK VINA RESULT:      -7.6      1.614     10.383
REMARK  7 active torsions:
REMARK  status: ('A' for Active; 'I' for Inactive)
REMARK    1  A    between atoms: C_2  and  O_3 
REMARK    2  A    between atoms: O_3  and  C_4 
REMARK    3  A    between atoms: C_4  and  C_5 
REMARK    4  A    between atoms: C_10  and  N_11 
REMARK       I    between atoms: N_11  and  C_12 
REMARK       I    between atoms: C_12  and  N_13 
REMARK    5  A    between atoms: N_13  and  N_14 
REMARK       I    between atoms: N_14  and  C_15 
REMARK    6  A    between atoms: C_15  and  C_16 
REMARK    7  A    between atoms: C_19  and  O_20 
ROOT
HETATM    1  N   UNL     1       6.543  28.612  56.009  1.00  0.00    -0.293 N 
HETATM    2  C   UNL     1       7.022  28.893  57.273  1.00  0.00     0.340 C 
HETATM    3  N   UNL     1       6.675  30.172  57.676  1.00  0.00    -0.249 N 
HETATM    4  O   UNL     1       7.711  28.147  57.968  1.00  0.00    -0.245 OA
HETATM    5  H   UNL     1       6.054  29.341  55.511  1.00  0.00     0.172 HD
HETATM    6  H   UNL     1       5.810  30.584  57.333  1.00  0.00     0.192 HD
ENDROOT
BRANCH   1   7
HETATM    7  C   UNL     1       6.803  27.432  55.342  1.00  0.00     0.116 A 
HETATM    8  N   UNL     1       7.514  27.385  54.174  1.00  0.00    -0.345 N 
HETATM    9  C   UNL     1       7.588  26.096  53.714  1.00  0.00     0.024 A 
HETATM   10  H   UNL     1       7.899  28.208  53.722  1.00  0.00     0.167 HD
HETATM   11  C   UNL     1       6.901  25.278  54.609  1.00  0.00     0.071 A 
HETATM   12  C   UNL     1       8.296  25.778  52.446  1.00  0.00     0.069 C 
HETATM   13  C   UNL     1       6.425  26.141  55.670  1.00  0.00     0.000 A 
HETATM   14  C   UNL     1       5.655  25.721  56.875  1.00  0.00     0.053 C 
BRANCH  11  15
HETATM   15  C   UNL     1       6.726  23.828  54.440  1.00  0.00     0.295 C 
HETATM   16  O   UNL     1       6.264  23.314  53.429  1.00  0.00    -0.259 OA
BRANCH  15  17
HETATM   17  O   UNL     1       7.119  23.118  55.539  1.00  0.00    -0.318 OA
BRANCH  17  18
HETATM   18  C   UNL     1       8.524  23.120  55.823  1.00  0.00     0.174 C 
HETATM   19  C   UNL     1       9.279  22.352  54.754  1.00  0.00     0.034 C 
ENDBRANCH  17  18
ENDBRANCH  15  17
ENDBRANCH  11  15
ENDBRANCH   1   7
BRANCH   3  20
HETATM   20  N   UNL     1       7.009  30.561  58.983  1.00  0.00    -0.262 N 
HETATM   21  C   UNL     1       6.694  31.855  59.352  1.00  0.00     0.270 C 
HETATM   22  O   UNL     1       6.182  32.647  58.564  1.00  0.00    -0.266 OA
HETATM   23  H   UNL     1       7.189  29.807  59.644  1.00  0.00     0.190 HD
BRANCH  21  24
HETATM   24  C   UNL     1       6.981  32.255  60.758  1.00  0.00     0.033 A 
HETATM   25  C   UNL     1       8.018  31.691  61.509  1.00  0.00     0.020 A 
HETATM   26  C   UNL     1       8.256  32.139  62.812  1.00  0.00     0.038 A 
HETATM   27  C   UNL     1       7.479  33.154  63.377  1.00  0.00     0.068 A 
HETATM   28  C   UNL     1       6.446  33.718  62.629  1.00  0.00     0.038 A 
HETATM   29  C   UNL     1       6.201  33.272  61.325  1.00  0.00     0.020 A 
BRANCH  27  30
HETATM   30  O   UNL     1       7.830  33.502  64.652  1.00  0.00    -0.356 OA
HETATM   31  C   UNL     1       6.771  33.659  65.590  1.00  0.00     0.210 C 
ENDBRANCH  27  30
ENDBRANCH  21  24
ENDBRANCH   3  20
TORSDOF 7
ENDMDL
