MODEL 1
REMARK VINA RESULT:     -10.1      0.000      0.000
REMARK  8 active torsions:
REMARK  status: ('A' for Active; 'I' for Inactive)
REMARK    1  A    between atoms: C_3  and  S_4 
REMARK    2  A    between atoms: S_4  and  C_5 
REMARK    3  A    between atoms: C_5  and  C_6 
REMARK       I    between atoms: C_6  and  N_7 
REMARK    4  A    between atoms: N_7  and  C_8 
REMARK    5  A    between atoms: C_8  and  C_9 
REMARK    6  A    between atoms: C_9  and  C_10 
REMARK    7  A    between atoms: C_19  and  C_20 
REMARK    8  A    between atoms: C_25  and  O_26 
ROOT
HETATM    1  C   UNL     1       7.800  29.598  58.927  1.00  0.00     0.160 C 
HETATM    2  N   UNL     1       8.888  30.500  58.652  1.00  0.00    -0.310 N 
HETATM    3  C   UNL     1       9.802  30.453  57.636  1.00  0.00     0.191 A 
HETATM    4  N   UNL     1      10.621  31.476  57.727  1.00  0.00    -0.122 NA
HETATM    5  N   UNL     1      10.272  32.196  58.838  1.00  0.00    -0.126 NA
HETATM    6  C   UNL     1       9.223  31.614  59.389  1.00  0.00     0.188 A 
ENDROOT
BRANCH   3   7
HETATM    7  S   UNL     1       9.882  29.213  56.435  1.00  0.00    -0.081 SA
BRANCH   7   8
HETATM    8  C   UNL     1       8.200  29.262  55.752  1.00  0.00     0.185 C 
BRANCH   8   9
HETATM    9  C   UNL     1       7.907  28.070  54.856  1.00  0.00     0.227 C 
HETATM   10  N   UNL     1       7.550  26.919  55.518  1.00  0.00    -0.360 N 
HETATM   11  H   UNL     1       7.435  26.952  56.531  1.00  0.00     0.162 HD
HETATM   12  O   UNL     1       8.039  28.125  53.635  1.00  0.00    -0.273 OA
BRANCH  10  13
HETATM   13  C   UNL     1       7.356  25.647  54.850  1.00  0.00     0.127 C 
BRANCH  13  14
HETATM   14  C   UNL     1       7.685  24.479  55.780  1.00  0.00     0.058 C 
BRANCH  14  15
HETATM   15  C   UNL     1       7.771  23.168  55.041  1.00  0.00    -0.057 A 
HETATM   16  C   UNL     1       7.824  23.145  53.641  1.00  0.00     0.007 A 
HETATM   17  C   UNL     1       7.895  21.930  52.958  1.00  0.00     0.001 A 
HETATM   18  C   UNL     1       7.906  20.730  53.666  1.00  0.00     0.000 A 
HETATM   19  C   UNL     1       7.845  20.742  55.059  1.00  0.00     0.001 A 
HETATM   20  C   UNL     1       7.776  21.956  55.743  1.00  0.00     0.007 A 
ENDBRANCH  14  15
ENDBRANCH  13  14
ENDBRANCH  10  13
ENDBRANCH   8   9
ENDBRANCH   7   8
ENDBRANCH   3   7
BRANCH   6  21
HETATM   21  C   UNL     1       8.569  32.093  60.566  1.00  0.00     0.125 A 
HETATM   22  O   UNL     1       7.338  32.695  60.559  1.00  0.00    -0.303 OA
HETATM   23  C   UNL     1       7.027  33.041  61.842  1.00  0.00     0.119 A 
HETATM   24  C   UNL     1       8.051  32.652  62.695  1.00  0.00     0.003 A 
HETATM   25  C   UNL     1       5.857  33.695  62.249  1.00  0.00     0.102 A 
HETATM   26  C   UNL     1       9.035  32.052  61.870  1.00  0.00     0.055 A 
HETATM   27  C   UNL     1       7.921  32.910  64.069  1.00  0.00     0.014 A 
HETATM   28  C   UNL     1       6.762  33.553  64.520  1.00  0.00     0.004 A 
HETATM   29  C   UNL     1       5.752  33.938  63.628  1.00  0.00     0.040 A 
BRANCH  25  30
HETATM   30  O   UNL     1       4.934  34.028  61.300  1.00  0.00    -0.353 OA
HETATM   31  C   UNL     1       3.595  34.201  61.744  1.00  0.00     0.210 C 
ENDBRANCH  25  30
ENDBRANCH   6  21
TORSDOF 8
ENDMDL
MODEL 2
REMARK VINA RESULT:     -10.1      1.517      1.683
REMARK  8 active torsions:
REMARK  status: ('A' for Active; 'I' for Inactive)
REMARK    1  A    between atoms: C_3  and  S_4 
REMARK    2  A    between atoms: S_4  and  C_5 
REMARK    3  A    between atoms: C_5  and  C_6 
REMARK       I    between atoms: C_6  and  N_7 
REMARK    4  A    between atoms: N_7  and  C_8 
REMARK    5  A    between atoms: C_8  and  C_9 
REMARK    6  A    between atoms: C_9  and  C_10 
REMARK    7  A    between atoms: C_19  and  C_20 
REMARK    8  A    between atoms: C_25  and  O_26 
ROOT
HETATM    1  C   UNL     1       6.137  31.738  58.729  1.00  0.00     0.160 C 
HETATM    2  N   UNL     1       7.328  30.998  59.058  1.00  0.00    -0.310 N 
HETATM    3  C   UNL     1       8.083  30.190  58.254  1.00  0.00     0.191 A 
HETATM    4  N   UNL     1       9.104  29.716  58.932  1.00  0.00    -0.122 NA
HETATM    5  N   UNL     1       9.009  30.184  60.215  1.00  0.00    -0.126 NA
HETATM    6  C   UNL     1       7.945  30.964  60.288  1.00  0.00     0.188 A 
ENDROOT
BRANCH   3   7
HETATM    7  S   UNL     1       7.726  29.828  56.603  1.00  0.00    -0.081 SA
BRANCH   7   8
HETATM    8  C   UNL     1       8.209  28.080  56.503  1.00  0.00     0.185 C 
BRANCH   8   9
HETATM    9  C   UNL     1       7.084  27.201  55.982  1.00  0.00     0.227 C 
HETATM   10  N   UNL     1       7.384  25.862  55.891  1.00  0.00    -0.360 N 
HETATM   11  H   UNL     1       8.288  25.539  56.237  1.00  0.00     0.162 HD
HETATM   12  O   UNL     1       6.008  27.670  55.616  1.00  0.00    -0.273 OA
BRANCH  10  13
HETATM   13  C   UNL     1       6.491  24.886  55.301  1.00  0.00     0.127 C 
BRANCH  13  14
HETATM   14  C   UNL     1       7.063  24.333  53.995  1.00  0.00     0.058 C 
BRANCH  14  15
HETATM   15  C   UNL     1       7.510  22.900  54.130  1.00  0.00    -0.057 A 
HETATM   16  C   UNL     1       7.856  22.153  52.997  1.00  0.00     0.007 A 
HETATM   17  C   UNL     1       8.261  20.824  53.124  1.00  0.00     0.001 A 
HETATM   18  C   UNL     1       8.318  20.228  54.383  1.00  0.00     0.000 A 
HETATM   19  C   UNL     1       7.968  20.960  55.517  1.00  0.00     0.001 A 
HETATM   20  C   UNL     1       7.564  22.290  55.391  1.00  0.00     0.007 A 
ENDBRANCH  14  15
ENDBRANCH  13  14
ENDBRANCH  10  13
ENDBRANCH   8   9
ENDBRANCH   7   8
ENDBRANCH   3   7
BRANCH   6  21
HETATM   21  C   UNL     1       7.532  31.643  61.476  1.00  0.00     0.125 A 
HETATM   22  O   UNL     1       6.221  31.852  61.814  1.00  0.00    -0.303 OA
HETATM   23  C   UNL     1       6.190  32.541  62.992  1.00  0.00     0.119 A 
HETATM   24  C   UNL     1       7.486  32.772  63.435  1.00  0.00     0.003 A 
HETATM   25  C   UNL     1       5.034  32.963  63.660  1.00  0.00     0.102 A 
HETATM   26  C   UNL     1       8.337  32.199  62.457  1.00  0.00     0.055 A 
HETATM   27  C   UNL     1       7.674  33.463  64.643  1.00  0.00     0.014 A 
HETATM   28  C   UNL     1       6.543  33.893  65.348  1.00  0.00     0.004 A 
HETATM   29  C   UNL     1       5.250  33.648  64.865  1.00  0.00     0.040 A 
BRANCH  25  30
HETATM   30  O   UNL     1       3.820  32.674  63.104  1.00  0.00    -0.353 OA
HETATM   31  C   UNL     1       2.953  33.773  62.857  1.00  0.00     0.210 C 
ENDBRANCH  25  30
ENDBRANCH   6  21
TORSDOF 8
ENDMDL
MODEL 3
REMARK VINA RESULT:      -9.9      1.732      2.239
REMARK  8 active torsions:
REMARK  status: ('A' for Active; 'I' for Inactive)
REMARK    1  A    between atoms: C_3  and  S_4 
REMARK    2  A    between atoms: S_4  and  C_5 
REMARK    3  A    between atoms: C_5  and  C_6 
REMARK       I    between atoms: C_6  and  N_7 
REMARK    4  A    between atoms: N_7  and  C_8 
REMARK    5  A    between atoms: C_8  and  C_9 
REMARK    6  A    between atoms: C_9  and  C_10 
REMARK    7  A    between atoms: C_19  and  C_20 
REMARK    8  A    between atoms: C_25  and  O_26 
ROOT
HETATM    1  C   UNL     1       9.404  30.611  61.134  1.00  0.00     0.160 C 
HETATM    2  N   UNL     1       8.454  31.173  60.209  1.00  0.00    -0.310 N 
HETATM    3  C   UNL     1       8.393  31.027  58.851  1.00  0.00     0.191 A 
HETATM    4  N   UNL     1       7.360  31.686  58.378  1.00  0.00    -0.122 NA
HETATM    5  N   UNL     1       6.744  32.311  59.429  1.00  0.00    -0.126 NA
HETATM    6  C   UNL     1       7.397  31.995  60.532  1.00  0.00     0.188 A 
ENDROOT
BRANCH   3   7
HETATM    7  S   UNL     1       9.525  30.131  57.901  1.00  0.00    -0.081 SA
BRANCH   7   8
HETATM    8  C   UNL     1       8.442  29.395  56.643  1.00  0.00     0.185 C 
BRANCH   8   9
HETATM    9  C   UNL     1       7.958  28.010  57.039  1.00  0.00     0.227 C 
HETATM   10  N   UNL     1       7.605  27.194  55.990  1.00  0.00    -0.360 N 
HETATM   11  H   UNL     1       7.752  27.530  55.038  1.00  0.00     0.162 HD
HETATM   12  O   UNL     1       7.841  27.674  58.216  1.00  0.00    -0.273 OA
BRANCH  10  13
HETATM   13  C   UNL     1       7.002  25.889  56.169  1.00  0.00     0.127 C 
BRANCH  13  14
HETATM   14  C   UNL     1       8.069  24.813  56.381  1.00  0.00     0.058 C 
BRANCH  14  15
HETATM   15  C   UNL     1       8.127  23.835  55.236  1.00  0.00    -0.057 A 
HETATM   16  C   UNL     1       9.021  22.757  55.267  1.00  0.00     0.007 A 
HETATM   17  C   UNL     1       9.080  21.858  54.201  1.00  0.00     0.001 A 
HETATM   18  C   UNL     1       8.252  22.032  53.093  1.00  0.00     0.000 A 
HETATM   19  C   UNL     1       7.365  23.106  53.049  1.00  0.00     0.001 A 
HETATM   20  C   UNL     1       7.304  24.005  54.115  1.00  0.00     0.007 A 
ENDBRANCH  14  15
ENDBRANCH  13  14
ENDBRANCH  10  13
ENDBRANCH   8   9
ENDBRANCH   7   8
ENDBRANCH   3   7
BRANCH   6  21
HETATM   21  C   UNL     1       7.035  32.455  61.836  1.00  0.00     0.125 A 
HETATM   22  O   UNL     1       5.739  32.649  62.240  1.00  0.00    -0.303 OA
HETATM   23  C   UNL     1       5.759  33.105  63.525  1.00  0.00     0.119 A 
HETATM   24  C   UNL     1       7.071  33.197  63.972  1.00  0.00     0.003 A 
HETATM   25  C   UNL     1       4.634  33.440  64.289  1.00  0.00     0.102 A 
HETATM   26  C   UNL     1       7.880  32.784  62.883  1.00  0.00     0.055 A 
HETATM   27  C   UNL     1       7.310  33.640  65.282  1.00  0.00     0.014 A 
HETATM   28  C   UNL     1       6.211  33.976  66.083  1.00  0.00     0.004 A 
HETATM   29  C   UNL     1       4.901  33.878  65.596  1.00  0.00     0.040 A 
BRANCH  25  30
HETATM   30  O   UNL     1       3.400  33.310  63.720  1.00  0.00    -0.353 OA
HETATM   31  C   UNL     1       2.834  34.481  63.145  1.00  0.00     0.210 C 
ENDBRANCH  25  30
ENDBRANCH   6  21
TORSDOF 8
ENDMDL
MODEL 4
REMARK VINA RESULT:      -9.8      2.017     11.126
REMARK  8 active torsions:
REMARK  status: ('A' for Active; 'I' for Inactive)
REMARK    1  A    between atoms: C_3  and  S_4 
REMARK    2  A    between atoms: S_4  and  C_5 
REMARK    3  A    between atoms: C_5  and  C_6 
REMARK       I    between atoms: C_6  and  N_7 
REMARK    4  A    between atoms: N_7  and  C_8 
REMARK    5  A    between atoms: C_8  and  C_9 
REMARK    6  A    between atoms: C_9  and  C_10 
REMARK    7  A    between atoms: C_19  and  C_20 
REMARK    8  A    between atoms: C_25  and  O_26 
ROOT
HETATM    1  C   UNL     1       8.442  27.260  57.384  1.00  0.00     0.160 C 
HETATM    2  N   UNL     1       7.467  27.845  56.501  1.00  0.00    -0.310 N 
HETATM    3  C   UNL     1       6.878  29.077  56.573  1.00  0.00     0.191 A 
HETATM    4  N   UNL     1       6.055  29.237  55.562  1.00  0.00    -0.122 NA
HETATM    5  N   UNL     1       6.066  28.083  54.825  1.00  0.00    -0.126 NA
HETATM    6  C   UNL     1       6.923  27.249  55.385  1.00  0.00     0.188 A 
ENDROOT
BRANCH   3   7
HETATM    7  S   UNL     1       7.157  30.234  57.826  1.00  0.00    -0.081 SA
BRANCH   7   8
HETATM    8  C   UNL     1       8.964  30.404  57.767  1.00  0.00     0.185 C 
BRANCH   8   9
HETATM    9  C   UNL     1       9.492  31.324  58.855  1.00  0.00     0.227 C 
HETATM   10  N   UNL     1       9.103  30.998  60.133  1.00  0.00    -0.360 N 
HETATM   11  H   UNL     1       8.562  30.146  60.277  1.00  0.00     0.162 HD
HETATM   12  O   UNL     1      10.170  32.317  58.595  1.00  0.00    -0.273 OA
BRANCH  10  13
HETATM   13  C   UNL     1       9.398  31.824  61.287  1.00  0.00     0.127 C 
BRANCH  13  14
HETATM   14  C   UNL     1       8.501  31.458  62.471  1.00  0.00     0.058 C 
BRANCH  14  15
HETATM   15  C   UNL     1       7.688  32.633  62.953  1.00  0.00    -0.057 A 
HETATM   16  C   UNL     1       7.662  32.967  64.313  1.00  0.00     0.007 A 
HETATM   17  C   UNL     1       6.902  34.049  64.758  1.00  0.00     0.001 A 
HETATM   18  C   UNL     1       6.156  34.801  63.852  1.00  0.00     0.000 A 
HETATM   19  C   UNL     1       6.170  34.471  62.497  1.00  0.00     0.001 A 
HETATM   20  C   UNL     1       6.931  33.390  62.050  1.00  0.00     0.007 A 
ENDBRANCH  14  15
ENDBRANCH  13  14
ENDBRANCH  10  13
ENDBRANCH   8   9
ENDBRANCH   7   8
ENDBRANCH   3   7
BRANCH   6  21
HETATM   21  C   UNL     1       7.210  25.942  54.884  1.00  0.00     0.125 A 
HETATM   22  O   UNL     1       7.560  24.883  55.681  1.00  0.00    -0.303 OA
HETATM   23  C   UNL     1       7.778  23.801  54.878  1.00  0.00     0.119 A 
HETATM   24  C   UNL     1       7.557  24.148  53.551  1.00  0.00     0.003 A 
HETATM   25  C   UNL     1       8.172  22.529  55.313  1.00  0.00     0.102 A 
HETATM   26  C   UNL     1       7.199  25.520  53.565  1.00  0.00     0.055 A 
HETATM   27  C   UNL     1       7.719  23.167  52.561  1.00  0.00     0.014 A 
HETATM   28  C   UNL     1       8.102  21.879  52.954  1.00  0.00     0.004 A 
HETATM   29  C   UNL     1       8.324  21.568  54.302  1.00  0.00     0.040 A 
BRANCH  25  30
HETATM   30  O   UNL     1       8.363  22.330  56.650  1.00  0.00    -0.353 OA
HETATM   31  C   UNL     1       8.370  20.981  57.100  1.00  0.00     0.210 C 
ENDBRANCH  25  30
ENDBRANCH   6  21
TORSDOF 8
ENDMDL
MODEL 5
REMARK VINA RESULT:      -9.7      2.417     11.355
REMARK  8 active torsions:
REMARK  status: ('A' for Active; 'I' for Inactive)
REMARK    1  A    between atoms: C_3  and  S_4 
REMARK    2  A    between atoms: S_4  and  C_5 
REMARK    3  A    between atoms: C_5  and  C_6 
REMARK       I    between atoms: C_6  and  N_7 
REMARK    4  A    between atoms: N_7  and  C_8 
REMARK    5  A    between atoms: C_8  and  C_9 
REMARK    6  A    between atoms: C_9  and  C_10 
REMARK    7  A    between atoms: C_19  and  C_20 
REMARK    8  A    between atoms: C_25  and  O_26 
ROOT
HETATM    1  C   UNL     1       5.730  27.009  55.213  1.00  0.00     0.160 C 
HETATM    2  N   UNL     1       6.665  26.852  56.297  1.00  0.00    -0.310 N 
HETATM    3  C   UNL     1       6.925  27.706  57.333  1.00  0.00     0.191 A 
HETATM    4  N   UNL     1       7.834  27.183  58.123  1.00  0.00    -0.122 NA
HETATM    5  N   UNL     1       8.212  25.980  57.589  1.00  0.00    -0.126 NA
HETATM    6  C   UNL     1       7.502  25.777  56.496  1.00  0.00     0.188 A 
ENDROOT
BRANCH   3   7
HETATM    7  S   UNL     1       6.187  29.254  57.546  1.00  0.00    -0.081 SA
BRANCH   7   8
HETATM    8  C   UNL     1       7.637  30.347  57.573  1.00  0.00     0.185 C 
BRANCH   8   9
HETATM    9  C   UNL     1       8.377  30.289  58.899  1.00  0.00     0.227 C 
HETATM   10  N   UNL     1       7.652  30.712  59.989  1.00  0.00    -0.360 N 
HETATM   11  H   UNL     1       6.672  30.961  59.858  1.00  0.00     0.162 HD
HETATM   12  O   UNL     1       9.554  29.944  58.973  1.00  0.00    -0.273 OA
BRANCH  10  13
HETATM   13  C   UNL     1       8.221  30.851  61.314  1.00  0.00     0.127 C 
BRANCH  13  14
HETATM   14  C   UNL     1       8.350  32.324  61.708  1.00  0.00     0.058 C 
BRANCH  14  15
HETATM   15  C   UNL     1       7.410  32.698  62.826  1.00  0.00    -0.057 A 
HETATM   16  C   UNL     1       7.912  33.093  64.073  1.00  0.00     0.007 A 
HETATM   17  C   UNL     1       7.040  33.430  65.109  1.00  0.00     0.001 A 
HETATM   18  C   UNL     1       5.662  33.370  64.911  1.00  0.00     0.000 A 
HETATM   19  C   UNL     1       5.153  32.971  63.676  1.00  0.00     0.001 A 
HETATM   20  C   UNL     1       6.023  32.635  62.639  1.00  0.00     0.007 A 
ENDBRANCH  14  15
ENDBRANCH  13  14
ENDBRANCH  10  13
ENDBRANCH   8   9
ENDBRANCH   7   8
ENDBRANCH   3   7
BRANCH   6  21
HETATM   21  C   UNL     1       7.615  24.613  55.673  1.00  0.00     0.125 A 
HETATM   22  O   UNL     1       7.589  23.333  56.162  1.00  0.00    -0.303 OA
HETATM   23  C   UNL     1       7.738  22.474  55.112  1.00  0.00     0.119 A 
HETATM   24  C   UNL     1       7.849  23.193  53.929  1.00  0.00     0.003 A 
HETATM   25  C   UNL     1       7.782  21.077  55.200  1.00  0.00     0.102 A 
HETATM   26  C   UNL     1       7.774  24.560  54.298  1.00  0.00     0.055 A 
HETATM   27  C   UNL     1       8.001  22.491  52.723  1.00  0.00     0.014 A 
HETATM   28  C   UNL     1       8.039  21.092  52.766  1.00  0.00     0.004 A 
HETATM   29  C   UNL     1       7.932  20.400  53.980  1.00  0.00     0.040 A 
BRANCH  25  30
HETATM   30  O   UNL     1       7.669  20.500  56.433  1.00  0.00    -0.353 OA
HETATM   31  C   UNL     1       8.520  21.004  57.454  1.00  0.00     0.210 C 
ENDBRANCH  25  30
ENDBRANCH   6  21
TORSDOF 8
ENDMDL
MODEL 6
REMARK VINA RESULT:      -9.5      1.889     11.186
REMARK  8 active torsions:
REMARK  status: ('A' for Active; 'I' for Inactive)
REMARK    1  A    between atoms: C_3  and  S_4 
REMARK    2  A    between atoms: S_4  and  C_5 
REMARK    3  A    between atoms: C_5  and  C_6 
REMARK       I    between atoms: C_6  and  N_7 
REMARK    4  A    between atoms: N_7  and  C_8 
REMARK    5  A    between atoms: C_8  and  C_9 
REMARK    6  A    between atoms: C_9  and  C_10 
REMARK    7  A    between atoms: C_19  and  C_20 
REMARK    8  A    between atoms: C_25  and  O_26 
ROOT
HETATM    1  C   UNL     1       8.000  27.602  54.720  1.00  0.00     0.160 C 
HETATM    2  N   UNL     1       7.922  27.325  56.131  1.00  0.00    -0.310 N 
HETATM    3  C   UNL     1       7.891  28.208  57.175  1.00  0.00     0.191 A 
HETATM    4  N   UNL     1       7.797  27.552  58.309  1.00  0.00    -0.122 NA
HETATM    5  N   UNL     1       7.802  26.213  58.021  1.00  0.00    -0.126 NA
HETATM    6  C   UNL     1       7.868  26.078  56.710  1.00  0.00     0.188 A 
ENDROOT
BRANCH   3   7
HETATM    7  S   UNL     1       7.991  29.926  57.020  1.00  0.00    -0.081 SA
BRANCH   7   8
HETATM    8  C   UNL     1       9.664  30.250  57.647  1.00  0.00     0.185 C 
BRANCH   8   9
HETATM    9  C   UNL     1       9.664  31.225  58.812  1.00  0.00     0.227 C 
HETATM   10  N   UNL     1       9.019  30.780  59.943  1.00  0.00    -0.360 N 
HETATM   11  H   UNL     1       8.656  29.828  59.957  1.00  0.00     0.162 HD
HETATM   12  O   UNL     1      10.157  32.347  58.722  1.00  0.00    -0.273 OA
BRANCH  10  13
HETATM   13  C   UNL     1       8.802  31.610  61.111  1.00  0.00     0.127 C 
BRANCH  13  14
HETATM   14  C   UNL     1       7.342  32.055  61.209  1.00  0.00     0.058 C 
BRANCH  14  15
HETATM   15  C   UNL     1       7.087  32.907  62.426  1.00  0.00    -0.057 A 
HETATM   16  C   UNL     1       6.233  34.015  62.351  1.00  0.00     0.007 A 
HETATM   17  C   UNL     1       6.005  34.807  63.477  1.00  0.00     0.001 A 
HETATM   18  C   UNL     1       6.633  34.504  64.684  1.00  0.00     0.000 A 
HETATM   19  C   UNL     1       7.491  33.408  64.766  1.00  0.00     0.001 A 
HETATM   20  C   UNL     1       7.718  32.614  63.642  1.00  0.00     0.007 A 
ENDBRANCH  14  15
ENDBRANCH  13  14
ENDBRANCH  10  13
ENDBRANCH   8   9
ENDBRANCH   7   8
ENDBRANCH   3   7
BRANCH   6  21
HETATM   21  C   UNL     1       7.882  24.817  56.037  1.00  0.00     0.125 A 
HETATM   22  O   UNL     1       7.876  24.685  54.672  1.00  0.00    -0.303 OA
HETATM   23  C   UNL     1       7.875  23.353  54.375  1.00  0.00     0.119 A 
HETATM   24  C   UNL     1       7.894  22.609  55.547  1.00  0.00     0.003 A 
HETATM   25  C   UNL     1       7.852  22.805  53.086  1.00  0.00     0.102 A 
HETATM   26  C   UNL     1       7.893  23.553  56.604  1.00  0.00     0.055 A 
HETATM   27  C   UNL     1       7.906  21.208  55.459  1.00  0.00     0.014 A 
HETATM   28  C   UNL     1       7.894  20.620  54.188  1.00  0.00     0.004 A 
HETATM   29  C   UNL     1       7.867  21.403  53.026  1.00  0.00     0.040 A 
BRANCH  25  30
HETATM   30  O   UNL     1       7.825  23.657  52.018  1.00  0.00    -0.353 OA
HETATM   31  C   UNL     1       6.825  24.667  52.032  1.00  0.00     0.210 C 
ENDBRANCH  25  30
ENDBRANCH   6  21
TORSDOF 8
ENDMDL
MODEL 7
REMARK VINA RESULT:      -9.4      1.666      2.289
REMARK  8 active torsions:
REMARK  status: ('A' for Active; 'I' for Inactive)
REMARK    1  A    between atoms: C_3  and  S_4 
REMARK    2  A    between atoms: S_4  and  C_5 
REMARK    3  A    between atoms: C_5  and  C_6 
REMARK       I    between atoms: C_6  and  N_7 
REMARK    4  A    between atoms: N_7  and  C_8 
REMARK    5  A    between atoms: C_8  and  C_9 
REMARK    6  A    between atoms: C_9  and  C_10 
REMARK    7  A    between atoms: C_19  and  C_20 
REMARK    8  A    between atoms: C_25  and  O_26 
ROOT
HETATM    1  C   UNL     1       5.434  30.656  57.309  1.00  0.00     0.160 C 
HETATM    2  N   UNL     1       6.739  30.055  57.212  1.00  0.00    -0.310 N 
HETATM    3  C   UNL     1       7.254  29.286  56.205  1.00  0.00     0.191 A 
HETATM    4  N   UNL     1       8.491  28.950  56.490  1.00  0.00    -0.122 NA
HETATM    5  N   UNL     1       8.794  29.470  57.720  1.00  0.00    -0.126 NA
HETATM    6  C   UNL     1       7.743  30.143  58.149  1.00  0.00     0.188 A 
ENDROOT
BRANCH   3   7
HETATM    7  S   UNL     1       6.390  28.807  54.787  1.00  0.00    -0.081 SA
BRANCH   7   8
HETATM    8  C   UNL     1       7.625  27.779  53.940  1.00  0.00     0.185 C 
BRANCH   8   9
HETATM    9  C   UNL     1       7.405  26.296  54.186  1.00  0.00     0.227 C 
HETATM   10  N   UNL     1       6.989  25.578  53.089  1.00  0.00    -0.360 N 
HETATM   11  H   UNL     1       6.925  26.054  52.189  1.00  0.00     0.162 HD
HETATM   12  O   UNL     1       7.538  25.794  55.301  1.00  0.00    -0.273 OA
BRANCH  10  13
HETATM   13  C   UNL     1       6.606  24.182  53.152  1.00  0.00     0.127 C 
BRANCH  13  14
HETATM   14  C   UNL     1       7.758  23.274  52.720  1.00  0.00     0.058 C 
BRANCH  14  15
HETATM   15  C   UNL     1       8.008  22.163  53.708  1.00  0.00    -0.057 A 
HETATM   16  C   UNL     1       8.569  20.950  53.287  1.00  0.00     0.007 A 
HETATM   17  C   UNL     1       8.792  19.920  54.201  1.00  0.00     0.001 A 
HETATM   18  C   UNL     1       8.449  20.089  55.542  1.00  0.00     0.000 A 
HETATM   19  C   UNL     1       7.883  21.289  55.970  1.00  0.00     0.001 A 
HETATM   20  C   UNL     1       7.662  22.321  55.056  1.00  0.00     0.007 A 
ENDBRANCH  14  15
ENDBRANCH  13  14
ENDBRANCH  10  13
ENDBRANCH   8   9
ENDBRANCH   7   8
ENDBRANCH   3   7
BRANCH   6  21
HETATM   21  C   UNL     1       7.694  30.837  59.398  1.00  0.00     0.125 A 
HETATM   22  O   UNL     1       6.772  31.808  59.691  1.00  0.00    -0.303 OA
HETATM   23  C   UNL     1       7.024  32.266  60.951  1.00  0.00     0.119 A 
HETATM   24  C   UNL     1       8.106  31.585  61.492  1.00  0.00     0.003 A 
HETATM   25  C   UNL     1       6.310  33.276  61.610  1.00  0.00     0.102 A 
HETATM   26  C   UNL     1       8.531  30.677  60.489  1.00  0.00     0.055 A 
HETATM   27  C   UNL     1       8.523  31.903  62.794  1.00  0.00     0.014 A 
HETATM   28  C   UNL     1       7.830  32.900  63.491  1.00  0.00     0.004 A 
HETATM   29  C   UNL     1       6.747  33.572  62.910  1.00  0.00     0.040 A 
BRANCH  25  30
HETATM   30  O   UNL     1       5.270  33.869  60.954  1.00  0.00    -0.353 OA
HETATM   31  C   UNL     1       4.629  34.951  61.619  1.00  0.00     0.210 C 
ENDBRANCH  25  30
ENDBRANCH   6  21
TORSDOF 8
ENDMDL
MODEL 8
REMARK VINA RESULT:      -9.2      2.538     11.106
REMARK  8 active torsions:
REMARK  status: ('A' for Active; 'I' for Inactive)
REMARK    1  A    between atoms: C_3  and  S_4 
REMARK    2  A    between atoms: S_4  and  C_5 
REMARK    3  A    between atoms: C_5  and  C_6 
REMARK       I    between atoms: C_6  and  N_7 
REMARK    4  A    between atoms: N_7  and  C_8 
REMARK    5  A    between atoms: C_8  and  C_9 
REMARK    6  A    between atoms: C_9  and  C_10 
REMARK    7  A    between atoms: C_19  and  C_20 
REMARK    8  A    between atoms: C_25  and  O_26 
ROOT
HETATM    1  C   UNL     1       8.840  28.230  56.849  1.00  0.00     0.160 C 
HETATM    2  N   UNL     1       7.402  28.225  56.923  1.00  0.00    -0.310 N 
HETATM    3  C   UNL     1       6.574  29.118  57.545  1.00  0.00     0.191 A 
HETATM    4  N   UNL     1       5.322  28.768  57.360  1.00  0.00    -0.122 NA
HETATM    5  N   UNL     1       5.314  27.606  56.636  1.00  0.00    -0.126 NA
HETATM    6  C   UNL     1       6.565  27.285  56.365  1.00  0.00     0.188 A 
ENDROOT
BRANCH   3   7
HETATM    7  S   UNL     1       7.105  30.484  58.461  1.00  0.00    -0.081 SA
BRANCH   7   8
HETATM    8  C   UNL     1       5.922  31.756  57.933  1.00  0.00     0.185 C 
BRANCH   8   9
HETATM    9  C   UNL     1       4.804  31.958  58.942  1.00  0.00     0.227 C 
HETATM   10  N   UNL     1       5.165  32.632  60.085  1.00  0.00    -0.360 N 
HETATM   11  H   UNL     1       6.111  33.008  60.153  1.00  0.00     0.162 HD
HETATM   12  O   UNL     1       3.677  31.498  58.766  1.00  0.00    -0.273 OA
BRANCH  10  13
HETATM   13  C   UNL     1       4.277  32.811  61.216  1.00  0.00     0.127 C 
BRANCH  13  14
HETATM   14  C   UNL     1       4.659  31.883  62.370  1.00  0.00     0.058 C 
BRANCH  14  15
HETATM   15  C   UNL     1       5.588  32.550  63.353  1.00  0.00    -0.057 A 
HETATM   16  C   UNL     1       6.976  32.464  63.188  1.00  0.00     0.007 A 
HETATM   17  C   UNL     1       7.834  33.074  64.104  1.00  0.00     0.001 A 
HETATM   18  C   UNL     1       7.314  33.768  65.194  1.00  0.00     0.000 A 
HETATM   19  C   UNL     1       5.934  33.852  65.372  1.00  0.00     0.001 A 
HETATM   20  C   UNL     1       5.074  33.244  64.456  1.00  0.00     0.007 A 
ENDBRANCH  14  15
ENDBRANCH  13  14
ENDBRANCH  10  13
ENDBRANCH   8   9
ENDBRANCH   7   8
ENDBRANCH   3   7
BRANCH   6  21
HETATM   21  C   UNL     1       6.950  26.132  55.611  1.00  0.00     0.125 A 
HETATM   22  O   UNL     1       7.491  25.005  56.171  1.00  0.00    -0.303 OA
HETATM   23  C   UNL     1       7.753  24.117  55.168  1.00  0.00     0.119 A 
HETATM   24  C   UNL     1       7.369  24.658  53.948  1.00  0.00     0.003 A 
HETATM   25  C   UNL     1       8.328  22.850  55.330  1.00  0.00     0.102 A 
HETATM   26  C   UNL     1       6.861  25.949  54.241  1.00  0.00     0.055 A 
HETATM   27  C   UNL     1       7.546  23.894  52.784  1.00  0.00     0.014 A 
HETATM   28  C   UNL     1       8.108  22.617  52.904  1.00  0.00     0.004 A 
HETATM   29  C   UNL     1       8.491  22.107  54.151  1.00  0.00     0.040 A 
BRANCH  25  30
HETATM   30  O   UNL     1       8.667  22.447  56.590  1.00  0.00    -0.353 OA
HETATM   31  C   UNL     1       8.376  21.097  56.929  1.00  0.00     0.210 C 
ENDBRANCH  25  30
ENDBRANCH   6  21
TORSDOF 8
ENDMDL
MODEL 9
REMARK VINA RESULT:      -9.1      2.418     10.489
REMARK  8 active torsions:
REMARK  status: ('A' for Active; 'I' for Inactive)
REMARK    1  A    between atoms: C_3  and  S_4 
REMARK    2  A    between atoms: S_4  and  C_5 
REMARK    3  A    between atoms: C_5  and  C_6 
REMARK       I    between atoms: C_6  and  N_7 
REMARK    4  A    between atoms: N_7  and  C_8 
REMARK    5  A    between atoms: C_8  and  C_9 
REMARK    6  A    between atoms: C_9  and  C_10 
REMARK    7  A    between atoms: C_19  and  C_20 
REMARK    8  A    between atoms: C_25  and  O_26 
ROOT
HETATM    1  C   UNL     1       8.460  28.019  57.003  1.00  0.00     0.160 C 
HETATM    2  N   UNL     1       7.098  28.193  56.569  1.00  0.00    -0.310 N 
HETATM    3  C   UNL     1       6.230  29.209  56.860  1.00  0.00     0.191 A 
HETATM    4  N   UNL     1       5.086  29.006  56.248  1.00  0.00    -0.122 NA
HETATM    5  N   UNL     1       5.178  27.821  55.569  1.00  0.00    -0.126 NA
HETATM    6  C   UNL     1       6.392  27.337  55.754  1.00  0.00     0.188 A 
ENDROOT
BRANCH   3   7
HETATM    7  S   UNL     1       6.583  30.541  57.902  1.00  0.00    -0.081 SA
BRANCH   7   8
HETATM    8  C   UNL     1       4.940  31.287  58.107  1.00  0.00     0.185 C 
BRANCH   8   9
HETATM    9  C   UNL     1       4.948  32.433  59.105  1.00  0.00     0.227 C 
HETATM   10  N   UNL     1       5.156  32.064  60.414  1.00  0.00    -0.360 N 
HETATM   11  H   UNL     1       5.359  31.086  60.621  1.00  0.00     0.162 HD
HETATM   12  O   UNL     1       4.727  33.593  58.765  1.00  0.00    -0.273 OA
BRANCH  10  13
HETATM   13  C   UNL     1       5.073  32.993  61.523  1.00  0.00     0.127 C 
BRANCH  13  14
HETATM   14  C   UNL     1       6.444  33.585  61.851  1.00  0.00     0.058 C 
BRANCH  14  15
HETATM   15  C   UNL     1       7.547  32.563  61.743  1.00  0.00    -0.057 A 
HETATM   16  C   UNL     1       7.665  31.543  62.695  1.00  0.00     0.007 A 
HETATM   17  C   UNL     1       8.692  30.603  62.598  1.00  0.00     0.001 A 
HETATM   18  C   UNL     1       9.613  30.679  61.554  1.00  0.00     0.000 A 
HETATM   19  C   UNL     1       9.508  31.696  60.606  1.00  0.00     0.001 A 
HETATM   20  C   UNL     1       8.481  32.635  60.701  1.00  0.00     0.007 A 
ENDBRANCH  14  15
ENDBRANCH  13  14
ENDBRANCH  10  13
ENDBRANCH   8   9
ENDBRANCH   7   8
ENDBRANCH   3   7
BRANCH   6  21
HETATM   21  C   UNL     1       6.860  26.112  55.184  1.00  0.00     0.125 A 
HETATM   22  O   UNL     1       7.283  25.042  55.928  1.00  0.00    -0.303 OA
HETATM   23  C   UNL     1       7.674  24.056  55.069  1.00  0.00     0.119 A 
HETATM   24  C   UNL     1       7.493  24.476  53.757  1.00  0.00     0.003 A 
HETATM   25  C   UNL     1       8.187  22.807  55.440  1.00  0.00     0.102 A 
HETATM   26  C   UNL     1       6.977  25.793  53.841  1.00  0.00     0.055 A 
HETATM   27  C   UNL     1       7.828  23.598  52.714  1.00  0.00     0.014 A 
HETATM   28  C   UNL     1       8.336  22.335  53.043  1.00  0.00     0.004 A 
HETATM   29  C   UNL     1       8.512  21.948  54.378  1.00  0.00     0.040 A 
BRANCH  25  30
HETATM   30  O   UNL     1       8.320  22.528  56.770  1.00  0.00    -0.353 OA
HETATM   31  C   UNL     1       8.374  21.155  57.133  1.00  0.00     0.210 C 
ENDBRANCH  25  30
ENDBRANCH   6  21
TORSDOF 8
ENDMDL
MODEL 10
REMARK VINA RESULT:      -9.0      2.236     11.387
REMARK  8 active torsions:
REMARK  status: ('A' for Active; 'I' for Inactive)
REMARK    1  A    between atoms: C_3  and  S_4 
REMARK    2  A    between atoms: S_4  and  C_5 
REMARK    3  A    between atoms: C_5  and  C_6 
REMARK       I    between atoms: C_6  and  N_7 
REMARK    4  A    between atoms: N_7  and  C_8 
REMARK    5  A    between atoms: C_8  and  C_9 
REMARK    6  A    between atoms: C_9  and  C_10 
REMARK    7  A    between atoms: C_19  and  C_20 
REMARK    8  A    between atoms: C_25  and  O_26 
ROOT
HETATM    1  C   UNL     1       9.071  28.469  57.290  1.00  0.00     0.160 C 
HETATM    2  N   UNL     1       7.798  29.020  56.905  1.00  0.00    -0.310 N 
HETATM    3  C   UNL     1       7.165  30.132  57.389  1.00  0.00     0.191 A 
HETATM    4  N   UNL     1       6.027  30.307  56.757  1.00  0.00    -0.122 NA
HETATM    5  N   UNL     1       5.880  29.278  55.865  1.00  0.00    -0.126 NA
HETATM    6  C   UNL     1       6.950  28.510  55.948  1.00  0.00     0.188 A 
ENDROOT
BRANCH   3   7
HETATM    7  S   UNL     1       7.765  31.135  58.662  1.00  0.00    -0.081 SA
BRANCH   7   8
HETATM    8  C   UNL     1       6.306  32.145  59.046  1.00  0.00     0.185 C 
BRANCH   8   9
HETATM    9  C   UNL     1       6.068  32.267  60.542  1.00  0.00     0.227 C 
HETATM   10  N   UNL     1       7.122  31.875  61.333  1.00  0.00    -0.360 N 
HETATM   11  H   UNL     1       7.997  31.605  60.885  1.00  0.00     0.162 HD
HETATM   12  O   UNL     1       4.988  32.635  61.001  1.00  0.00    -0.273 OA
BRANCH  10  13
HETATM   13  C   UNL     1       7.043  31.797  62.778  1.00  0.00     0.127 C 
BRANCH  13  14
HETATM   14  C   UNL     1       7.775  32.969  63.435  1.00  0.00     0.058 C 
BRANCH  14  15
HETATM   15  C   UNL     1       6.868  33.782  64.323  1.00  0.00    -0.057 A 
HETATM   16  C   UNL     1       6.876  33.592  65.711  1.00  0.00     0.007 A 
HETATM   17  C   UNL     1       6.029  34.340  66.530  1.00  0.00     0.001 A 
HETATM   18  C   UNL     1       5.163  35.277  65.970  1.00  0.00     0.000 A 
HETATM   19  C   UNL     1       5.142  35.467  64.589  1.00  0.00     0.001 A 
HETATM   20  C   UNL     1       5.989  34.722  63.769  1.00  0.00     0.007 A 
ENDBRANCH  14  15
ENDBRANCH  13  14
ENDBRANCH  10  13
ENDBRANCH   8   9
ENDBRANCH   7   8
ENDBRANCH   3   7
BRANCH   6  21
HETATM   21  C   UNL     1       7.157  27.339  55.153  1.00  0.00     0.125 A 
HETATM   22  O   UNL     1       7.114  26.065  55.654  1.00  0.00    -0.303 OA
HETATM   23  C   UNL     1       7.371  25.198  54.632  1.00  0.00     0.119 A 
HETATM   24  C   UNL     1       7.569  25.906  53.454  1.00  0.00     0.003 A 
HETATM   25  C   UNL     1       7.434  23.803  54.742  1.00  0.00     0.102 A 
HETATM   26  C   UNL     1       7.436  27.274  53.798  1.00  0.00     0.055 A 
HETATM   27  C   UNL     1       7.839  25.193  52.275  1.00  0.00     0.014 A 
HETATM   28  C   UNL     1       7.900  23.796  52.339  1.00  0.00     0.004 A 
HETATM   29  C   UNL     1       7.702  23.116  53.548  1.00  0.00     0.040 A 
BRANCH  25  30
HETATM   30  O   UNL     1       7.227  23.238  55.968  1.00  0.00    -0.353 OA
HETATM   31  C   UNL     1       8.383  22.831  56.688  1.00  0.00     0.210 C 
ENDBRANCH  25  30
ENDBRANCH   6  21
TORSDOF 8
ENDMDL
