MODEL 1
REMARK VINA RESULT:     -10.0      0.000      0.000
REMARK  7 active torsions:
REMARK  status: ('A' for Active; 'I' for Inactive)
REMARK    1  A    between atoms: C_2  and  O_3 
REMARK    2  A    between atoms: O_3  and  C_4 
REMARK    3  A    between atoms: C_5  and  N_6 
REMARK       I    between atoms: N_6  and  C_7 
REMARK       I    between atoms: C_7  and  N_8 
REMARK    4  A    between atoms: N_8  and  C_9 
REMARK    5  A    between atoms: C_9  and  C_10 
REMARK       I    between atoms: C_10  and  N_11 
REMARK    6  A    between atoms: N_11  and  C_12 
REMARK    7  A    between atoms: C_25  and  C_26 
ROOT
HETATM    1  N   UNL     1       6.468  27.114  57.341  1.00  0.00    -0.306 N 
HETATM    2  C   UNL     1       7.398  28.130  57.243  1.00  0.00     0.321 C 
HETATM    3  N   UNL     1       7.207  29.077  58.212  1.00  0.00    -0.334 N 
HETATM    4  O   UNL     1       8.346  28.168  56.466  1.00  0.00    -0.247 OA
HETATM    5  H   UNL     1       6.397  26.792  58.294  1.00  0.00     0.171 HD
HETATM    6  H   UNL     1       6.311  29.074  58.680  1.00  0.00     0.164 HD
ENDROOT
BRANCH   3   7
HETATM    7  C   UNL     1       8.293  29.832  58.819  1.00  0.00     0.227 C 
BRANCH   7   8
HETATM    8  C   UNL     1       7.997  31.079  59.674  1.00  0.00     0.239 C 
HETATM    9  N   UNL     1       7.953  30.832  61.030  1.00  0.00    -0.326 N 
HETATM   10  H   UNL     1       8.290  29.913  61.325  1.00  0.00     0.169 HD
HETATM   11  O   UNL     1       7.666  32.130  59.126  1.00  0.00    -0.271 OA
BRANCH   9  12
HETATM   12  C   UNL     1       7.398  31.639  62.043  1.00  0.00     0.037 A 
HETATM   13  C   UNL     1       6.021  31.819  62.223  1.00  0.00     0.061 A 
HETATM   14  C   UNL     1       5.625  32.571  63.308  1.00  0.00     0.065 A 
HETATM   15  C   UNL     1       6.534  33.147  64.191  1.00  0.00     0.063 A 
HETATM   16  N   UNL     1       4.343  32.883  63.749  1.00  0.00    -0.306 N 
HETATM   17  N   UNL     1       5.812  33.813  65.175  1.00  0.00    -0.307 N 
HETATM   18  C   UNL     1       7.889  33.007  64.036  1.00  0.00     0.034 A 
HETATM   19  C   UNL     1       4.442  33.653  64.916  1.00  0.00     0.325 A 
HETATM   20  H   UNL     1       6.177  34.319  65.965  1.00  0.00     0.170 HD
HETATM   21  O   UNL     1       3.522  34.093  65.581  1.00  0.00    -0.247 OA
HETATM   22  C   UNL     1       8.317  32.239  62.945  1.00  0.00     0.032 A 
HETATM   23  H   UNL     1       3.472  32.600  63.331  1.00  0.00     0.170 HD
ENDBRANCH   9  12
ENDBRANCH   7   8
ENDBRANCH   3   7
BRANCH   1  24
HETATM   24  C   UNL     1       6.451  26.095  56.357  1.00  0.00     0.070 A 
HETATM   25  C   UNL     1       5.702  26.237  55.174  1.00  0.00     0.095 A 
HETATM   26  C   UNL     1       5.717  25.199  54.239  1.00  0.00     0.040 A 
HETATM   27  C   UNL     1       6.495  24.057  54.460  1.00  0.00     0.019 A 
HETATM   28  C   UNL     1       7.251  23.919  55.633  1.00  0.00     0.050 A 
HETATM   29  C   UNL     1       7.193  24.933  56.598  1.00  0.00     0.048 A 
BRANCH  25  30
HETATM   30  O   UNL     1       4.948  27.376  55.061  1.00  0.00    -0.349 OA
BRANCH  30  31
HETATM   31  C   UNL     1       5.088  28.140  53.866  1.00  0.00     0.171 C 
HETATM   32  C   UNL     1       3.743  28.152  53.161  1.00  0.00     0.034 C 
ENDBRANCH  30  31
ENDBRANCH  25  30
BRANCH  28  33
HETATM   33  C   UNL     1       8.133  22.709  55.826  1.00  0.00     0.417 C 
HETATM   34  F   UNL     1       8.435  22.460  57.131  1.00  0.00    -0.166 F 
HETATM   35  F   UNL     1       7.566  21.568  55.349  1.00  0.00    -0.166 F 
HETATM   36  F   UNL     1       9.328  22.832  55.183  1.00  0.00    -0.166 F 
ENDBRANCH  28  33
ENDBRANCH   1  24
TORSDOF 7
ENDMDL
MODEL 2
REMARK VINA RESULT:      -9.6      4.832     10.518
REMARK  7 active torsions:
REMARK  status: ('A' for Active; 'I' for Inactive)
REMARK    1  A    between atoms: C_2  and  O_3 
REMARK    2  A    between atoms: O_3  and  C_4 
REMARK    3  A    between atoms: C_5  and  N_6 
REMARK       I    between atoms: N_6  and  C_7 
REMARK       I    between atoms: C_7  and  N_8 
REMARK    4  A    between atoms: N_8  and  C_9 
REMARK    5  A    between atoms: C_9  and  C_10 
REMARK       I    between atoms: C_10  and  N_11 
REMARK    6  A    between atoms: N_11  and  C_12 
REMARK    7  A    between atoms: C_25  and  C_26 
ROOT
HETATM    1  N   UNL     1       7.005  31.180  58.087  1.00  0.00    -0.306 N 
HETATM    2  C   UNL     1       6.882  29.862  57.697  1.00  0.00     0.321 C 
HETATM    3  N   UNL     1       5.994  29.727  56.664  1.00  0.00    -0.334 N 
HETATM    4  O   UNL     1       7.536  28.919  58.126  1.00  0.00    -0.247 OA
HETATM    5  H   UNL     1       7.137  31.775  57.282  1.00  0.00     0.171 HD
HETATM    6  H   UNL     1       5.367  30.503  56.500  1.00  0.00     0.164 HD
ENDROOT
BRANCH   3   7
HETATM    7  C   UNL     1       6.125  28.721  55.621  1.00  0.00     0.227 C 
BRANCH   7   8
HETATM    8  C   UNL     1       6.140  27.222  55.977  1.00  0.00     0.239 C 
HETATM    9  N   UNL     1       7.320  26.582  55.659  1.00  0.00    -0.326 N 
HETATM   10  H   UNL     1       8.099  27.191  55.397  1.00  0.00     0.169 HD
HETATM   11  O   UNL     1       5.103  26.672  56.343  1.00  0.00    -0.271 OA
BRANCH   9  12
HETATM   12  C   UNL     1       7.553  25.198  55.539  1.00  0.00     0.037 A 
HETATM   13  C   UNL     1       7.436  24.493  54.335  1.00  0.00     0.061 A 
HETATM   14  C   UNL     1       7.776  23.158  54.355  1.00  0.00     0.065 A 
HETATM   15  C   UNL     1       8.207  22.513  55.511  1.00  0.00     0.063 A 
HETATM   16  N   UNL     1       7.791  22.231  53.317  1.00  0.00    -0.306 N 
HETATM   17  N   UNL     1       8.486  21.190  55.185  1.00  0.00    -0.307 N 
HETATM   18  C   UNL     1       8.316  23.166  56.711  1.00  0.00     0.034 A 
HETATM   19  C   UNL     1       8.237  21.000  53.818  1.00  0.00     0.325 A 
HETATM   20  H   UNL     1       8.830  20.469  55.797  1.00  0.00     0.170 HD
HETATM   21  O   UNL     1       8.386  19.968  53.190  1.00  0.00    -0.247 OA
HETATM   22  C   UNL     1       7.985  24.527  56.715  1.00  0.00     0.032 A 
HETATM   23  H   UNL     1       7.546  22.395  52.354  1.00  0.00     0.170 HD
ENDBRANCH   9  12
ENDBRANCH   7   8
ENDBRANCH   3   7
BRANCH   1  24
HETATM   24  C   UNL     1       7.808  31.497  59.209  1.00  0.00     0.070 A 
HETATM   25  C   UNL     1       9.206  31.616  59.096  1.00  0.00     0.095 A 
HETATM   26  C   UNL     1       9.950  31.927  60.236  1.00  0.00     0.040 A 
HETATM   27  C   UNL     1       9.311  32.154  61.460  1.00  0.00     0.019 A 
HETATM   28  C   UNL     1       7.917  32.048  61.573  1.00  0.00     0.050 A 
HETATM   29  C   UNL     1       7.173  31.680  60.444  1.00  0.00     0.048 A 
BRANCH  25  30
HETATM   30  O   UNL     1       9.744  31.345  57.864  1.00  0.00    -0.349 OA
BRANCH  30  31
HETATM   31  C   UNL     1      10.709  30.299  57.785  1.00  0.00     0.171 C 
HETATM   32  C   UNL     1      10.571  29.642  56.423  1.00  0.00     0.034 C 
ENDBRANCH  30  31
ENDBRANCH  25  30
BRANCH  28  33
HETATM   33  C   UNL     1       7.239  32.358  62.885  1.00  0.00     0.417 C 
HETATM   34  F   UNL     1       6.759  33.631  62.961  1.00  0.00    -0.166 F 
HETATM   35  F   UNL     1       6.177  31.543  63.129  1.00  0.00    -0.166 F 
HETATM   36  F   UNL     1       8.077  32.211  63.949  1.00  0.00    -0.166 F 
ENDBRANCH  28  33
ENDBRANCH   1  24
TORSDOF 7
ENDMDL
MODEL 3
REMARK VINA RESULT:      -9.4      6.542     11.650
REMARK  7 active torsions:
REMARK  status: ('A' for Active; 'I' for Inactive)
REMARK    1  A    between atoms: C_2  and  O_3 
REMARK    2  A    between atoms: O_3  and  C_4 
REMARK    3  A    between atoms: C_5  and  N_6 
REMARK       I    between atoms: N_6  and  C_7 
REMARK       I    between atoms: C_7  and  N_8 
REMARK    4  A    between atoms: N_8  and  C_9 
REMARK    5  A    between atoms: C_9  and  C_10 
REMARK       I    between atoms: C_10  and  N_11 
REMARK    6  A    between atoms: N_11  and  C_12 
REMARK    7  A    between atoms: C_25  and  C_26 
ROOT
HETATM    1  N   UNL     1       6.025  25.082  53.803  1.00  0.00    -0.306 N 
HETATM    2  C   UNL     1       6.294  25.796  52.652  1.00  0.00     0.321 C 
HETATM    3  N   UNL     1       5.196  26.498  52.232  1.00  0.00    -0.334 N 
HETATM    4  O   UNL     1       7.384  25.894  52.103  1.00  0.00    -0.247 OA
HETATM    5  H   UNL     1       5.563  25.668  54.482  1.00  0.00     0.171 HD
HETATM    6  H   UNL     1       4.304  26.220  52.619  1.00  0.00     0.164 HD
ENDROOT
BRANCH   3   7
HETATM    7  C   UNL     1       5.277  27.784  51.558  1.00  0.00     0.227 C 
BRANCH   7   8
HETATM    8  C   UNL     1       4.686  27.967  50.147  1.00  0.00     0.239 C 
HETATM    9  N   UNL     1       3.312  27.856  50.095  1.00  0.00    -0.326 N 
HETATM   10  H   UNL     1       2.834  27.846  50.999  1.00  0.00     0.169 HD
HETATM   11  O   UNL     1       5.437  28.026  49.174  1.00  0.00    -0.271 OA
BRANCH   9  12
HETATM   12  C   UNL     1       2.499  27.642  48.965  1.00  0.00     0.037 A 
HETATM   13  C   UNL     1       1.502  28.531  48.547  1.00  0.00     0.061 A 
HETATM   14  C   UNL     1       0.843  28.228  47.376  1.00  0.00     0.065 A 
HETATM   15  C   UNL     1       1.129  27.087  46.630  1.00  0.00     0.063 A 
HETATM   16  N   UNL     1      -0.153  28.935  46.710  1.00  0.00    -0.306 N 
HETATM   17  N   UNL     1       0.309  27.093  45.507  1.00  0.00    -0.307 N 
HETATM   18  C   UNL     1       2.085  26.185  47.018  1.00  0.00     0.034 A 
HETATM   19  C   UNL     1      -0.494  28.243  45.540  1.00  0.00     0.325 A 
HETATM   20  H   UNL     1       0.282  26.413  44.766  1.00  0.00     0.170 HD
HETATM   21  O   UNL     1      -1.319  28.576  44.709  1.00  0.00    -0.247 OA
HETATM   22  C   UNL     1       2.776  26.476  48.202  1.00  0.00     0.032 A 
HETATM   23  H   UNL     1      -0.565  29.811  46.990  1.00  0.00     0.170 HD
ENDBRANCH   9  12
ENDBRANCH   7   8
ENDBRANCH   3   7
BRANCH   1  24
HETATM   24  C   UNL     1       7.017  24.218  54.328  1.00  0.00     0.070 A 
HETATM   25  C   UNL     1       7.780  24.583  55.452  1.00  0.00     0.095 A 
HETATM   26  C   UNL     1       8.748  23.694  55.927  1.00  0.00     0.040 A 
HETATM   27  C   UNL     1       8.926  22.448  55.316  1.00  0.00     0.019 A 
HETATM   28  C   UNL     1       8.160  22.078  54.202  1.00  0.00     0.050 A 
HETATM   29  C   UNL     1       7.227  22.990  53.689  1.00  0.00     0.048 A 
BRANCH  25  30
HETATM   30  O   UNL     1       7.556  25.835  55.964  1.00  0.00    -0.349 OA
BRANCH  30  31
HETATM   31  C   UNL     1       8.206  26.172  57.187  1.00  0.00     0.171 C 
HETATM   32  C   UNL     1       8.524  27.656  57.150  1.00  0.00     0.034 C 
ENDBRANCH  30  31
ENDBRANCH  25  30
BRANCH  28  33
HETATM   33  C   UNL     1       8.321  20.706  53.594  1.00  0.00     0.417 C 
HETATM   34  F   UNL     1       7.263  20.324  52.826  1.00  0.00    -0.166 F 
HETATM   35  F   UNL     1       9.417  20.616  52.792  1.00  0.00    -0.166 F 
HETATM   36  F   UNL     1       8.467  19.735  54.538  1.00  0.00    -0.166 F 
ENDBRANCH  28  33
ENDBRANCH   1  24
TORSDOF 7
ENDMDL
MODEL 4
REMARK VINA RESULT:      -9.4      7.446     12.316
REMARK  7 active torsions:
REMARK  status: ('A' for Active; 'I' for Inactive)
REMARK    1  A    between atoms: C_2  and  O_3 
REMARK    2  A    between atoms: O_3  and  C_4 
REMARK    3  A    between atoms: C_5  and  N_6 
REMARK       I    between atoms: N_6  and  C_7 
REMARK       I    between atoms: C_7  and  N_8 
REMARK    4  A    between atoms: N_8  and  C_9 
REMARK    5  A    between atoms: C_9  and  C_10 
REMARK       I    between atoms: C_10  and  N_11 
REMARK    6  A    between atoms: N_11  and  C_12 
REMARK    7  A    between atoms: C_25  and  C_26 
ROOT
HETATM    1  N   UNL     1       6.990  25.235  51.913  1.00  0.00    -0.306 N 
HETATM    2  C   UNL     1       5.642  25.305  51.625  1.00  0.00     0.321 C 
HETATM    3  N   UNL     1       5.401  26.138  50.565  1.00  0.00    -0.334 N 
HETATM    4  O   UNL     1       4.755  24.650  52.159  1.00  0.00    -0.247 OA
HETATM    5  H   UNL     1       7.524  25.078  51.071  1.00  0.00     0.171 HD
HETATM    6  H   UNL     1       6.143  26.774  50.310  1.00  0.00     0.164 HD
ENDROOT
BRANCH   3   7
HETATM    7  C   UNL     1       4.320  25.930  49.614  1.00  0.00     0.227 C 
BRANCH   7   8
HETATM    8  C   UNL     1       3.707  27.121  48.853  1.00  0.00     0.239 C 
HETATM    9  N   UNL     1       2.336  27.053  48.715  1.00  0.00    -0.326 N 
HETATM   10  H   UNL     1       1.869  26.334  49.274  1.00  0.00     0.169 HD
HETATM   11  O   UNL     1       4.444  27.932  48.293  1.00  0.00    -0.271 OA
BRANCH   9  12
HETATM   12  C   UNL     1       1.516  27.769  47.822  1.00  0.00     0.037 A 
HETATM   13  C   UNL     1       0.920  27.200  46.690  1.00  0.00     0.061 A 
HETATM   14  C   UNL     1       0.076  28.003  45.955  1.00  0.00     0.065 A 
HETATM   15  C   UNL     1      -0.178  29.330  46.295  1.00  0.00     0.063 A 
HETATM   16  N   UNL     1      -0.671  27.702  44.820  1.00  0.00    -0.306 N 
HETATM   17  N   UNL     1      -1.080  29.843  45.369  1.00  0.00    -0.307 N 
HETATM   18  C   UNL     1       0.401  29.926  47.384  1.00  0.00     0.034 A 
HETATM   19  C   UNL     1      -1.401  28.837  44.445  1.00  0.00     0.325 A 
HETATM   20  H   UNL     1      -1.473  30.770  45.347  1.00  0.00     0.170 HD
HETATM   21  O   UNL     1      -2.170  28.933  43.506  1.00  0.00    -0.247 OA
HETATM   22  C   UNL     1       1.256  29.127  48.154  1.00  0.00     0.032 A 
HETATM   23  H   UNL     1      -0.712  26.818  44.340  1.00  0.00     0.170 HD
ENDBRANCH   9  12
ENDBRANCH   7   8
ENDBRANCH   3   7
BRANCH   1  24
HETATM   24  C   UNL     1       7.417  24.497  53.044  1.00  0.00     0.070 A 
HETATM   25  C   UNL     1       7.655  25.128  54.279  1.00  0.00     0.095 A 
HETATM   26  C   UNL     1       8.079  24.353  55.361  1.00  0.00     0.040 A 
HETATM   27  C   UNL     1       8.227  22.967  55.226  1.00  0.00     0.019 A 
HETATM   28  C   UNL     1       7.980  22.335  54.000  1.00  0.00     0.050 A 
HETATM   29  C   UNL     1       7.609  23.118  52.898  1.00  0.00     0.048 A 
BRANCH  25  30
HETATM   30  O   UNL     1       7.514  26.491  54.306  1.00  0.00    -0.349 OA
BRANCH  30  31
HETATM   31  C   UNL     1       6.794  27.055  55.400  1.00  0.00     0.171 C 
HETATM   32  C   UNL     1       5.315  27.005  55.059  1.00  0.00     0.034 C 
ENDBRANCH  30  31
ENDBRANCH  25  30
BRANCH  28  33
HETATM   33  C   UNL     1       8.083  20.833  53.889  1.00  0.00     0.417 C 
HETATM   34  F   UNL     1       9.337  20.396  53.581  1.00  0.00    -0.166 F 
HETATM   35  F   UNL     1       7.740  20.200  55.044  1.00  0.00    -0.166 F 
HETATM   36  F   UNL     1       7.265  20.327  52.926  1.00  0.00    -0.166 F 
ENDBRANCH  28  33
ENDBRANCH   1  24
TORSDOF 7
ENDMDL
MODEL 5
REMARK VINA RESULT:      -9.4      3.405      5.249
REMARK  7 active torsions:
REMARK  status: ('A' for Active; 'I' for Inactive)
REMARK    1  A    between atoms: C_2  and  O_3 
REMARK    2  A    between atoms: O_3  and  C_4 
REMARK    3  A    between atoms: C_5  and  N_6 
REMARK       I    between atoms: N_6  and  C_7 
REMARK       I    between atoms: C_7  and  N_8 
REMARK    4  A    between atoms: N_8  and  C_9 
REMARK    5  A    between atoms: C_9  and  C_10 
REMARK       I    between atoms: C_10  and  N_11 
REMARK    6  A    between atoms: N_11  and  C_12 
REMARK    7  A    between atoms: C_25  and  C_26 
ROOT
HETATM    1  N   UNL     1       5.718  30.802  58.758  1.00  0.00    -0.306 N 
HETATM    2  C   UNL     1       5.300  32.097  58.526  1.00  0.00     0.321 C 
HETATM    3  N   UNL     1       4.108  32.356  59.147  1.00  0.00    -0.334 N 
HETATM    4  O   UNL     1       5.930  32.962  57.930  1.00  0.00    -0.247 OA
HETATM    5  H   UNL     1       5.650  30.579  59.740  1.00  0.00     0.171 HD
HETATM    6  H   UNL     1       3.570  31.555  59.450  1.00  0.00     0.164 HD
ENDROOT
BRANCH   3   7
HETATM    7  C   UNL     1       3.750  33.661  59.680  1.00  0.00     0.227 C 
BRANCH   7   8
HETATM    8  C   UNL     1       4.532  34.265  60.863  1.00  0.00     0.239 C 
HETATM    9  N   UNL     1       4.928  33.339  61.805  1.00  0.00    -0.326 N 
HETATM   10  H   UNL     1       4.822  32.358  61.535  1.00  0.00     0.169 HD
HETATM   11  O   UNL     1       4.606  35.487  60.983  1.00  0.00    -0.271 OA
BRANCH   9  12
HETATM   12  C   UNL     1       5.351  33.572  63.128  1.00  0.00     0.037 A 
HETATM   13  C   UNL     1       4.472  33.783  64.198  1.00  0.00     0.061 A 
HETATM   14  C   UNL     1       5.031  33.916  65.450  1.00  0.00     0.065 A 
HETATM   15  C   UNL     1       6.405  33.859  65.667  1.00  0.00     0.063 A 
HETATM   16  N   UNL     1       4.410  34.096  66.683  1.00  0.00    -0.306 N 
HETATM   17  N   UNL     1       6.629  34.004  67.031  1.00  0.00    -0.307 N 
HETATM   18  C   UNL     1       7.296  33.672  64.643  1.00  0.00     0.034 A 
HETATM   19  C   UNL     1       5.394  34.148  67.680  1.00  0.00     0.325 A 
HETATM   20  H   UNL     1       7.515  33.994  67.510  1.00  0.00     0.170 HD
HETATM   21  O   UNL     1       5.214  34.285  68.876  1.00  0.00    -0.247 OA
HETATM   22  C   UNL     1       6.753  33.525  63.359  1.00  0.00     0.032 A 
HETATM   23  H   UNL     1       3.421  34.162  66.859  1.00  0.00     0.170 HD
ENDBRANCH   9  12
ENDBRANCH   7   8
ENDBRANCH   3   7
BRANCH   1  24
HETATM   24  C   UNL     1       6.884  30.325  58.111  1.00  0.00     0.070 A 
HETATM   25  C   UNL     1       8.158  30.499  58.684  1.00  0.00     0.095 A 
HETATM   26  C   UNL     1       9.276  30.013  58.002  1.00  0.00     0.040 A 
HETATM   27  C   UNL     1       9.124  29.331  56.788  1.00  0.00     0.019 A 
HETATM   28  C   UNL     1       7.855  29.147  56.221  1.00  0.00     0.050 A 
HETATM   29  C   UNL     1       6.738  29.684  56.876  1.00  0.00     0.048 A 
BRANCH  25  30
HETATM   30  O   UNL     1       8.209  31.205  59.858  1.00  0.00    -0.349 OA
BRANCH  30  31
HETATM   31  C   UNL     1       8.972  30.649  60.926  1.00  0.00     0.171 C 
HETATM   32  C   UNL     1       9.765  31.775  61.566  1.00  0.00     0.034 C 
ENDBRANCH  30  31
ENDBRANCH  25  30
BRANCH  28  33
HETATM   33  C   UNL     1       7.705  28.356  54.945  1.00  0.00     0.417 C 
HETATM   34  F   UNL     1       6.537  28.601  54.288  1.00  0.00    -0.166 F 
HETATM   35  F   UNL     1       8.697  28.615  54.050  1.00  0.00    -0.166 F 
HETATM   36  F   UNL     1       7.736  27.012  55.162  1.00  0.00    -0.166 F 
ENDBRANCH  28  33
ENDBRANCH   1  24
TORSDOF 7
ENDMDL
MODEL 6
REMARK VINA RESULT:      -9.3      2.520      3.255
REMARK  7 active torsions:
REMARK  status: ('A' for Active; 'I' for Inactive)
REMARK    1  A    between atoms: C_2  and  O_3 
REMARK    2  A    between atoms: O_3  and  C_4 
REMARK    3  A    between atoms: C_5  and  N_6 
REMARK       I    between atoms: N_6  and  C_7 
REMARK       I    between atoms: C_7  and  N_8 
REMARK    4  A    between atoms: N_8  and  C_9 
REMARK    5  A    between atoms: C_9  and  C_10 
REMARK       I    between atoms: C_10  and  N_11 
REMARK    6  A    between atoms: N_11  and  C_12 
REMARK    7  A    between atoms: C_25  and  C_26 
ROOT
HETATM    1  N   UNL     1       8.360  29.183  55.088  1.00  0.00    -0.306 N 
HETATM    2  C   UNL     1       9.199  28.907  56.148  1.00  0.00     0.321 C 
HETATM    3  N   UNL     1      10.212  29.823  56.235  1.00  0.00    -0.334 N 
HETATM    4  O   UNL     1       9.038  28.025  56.984  1.00  0.00    -0.247 OA
HETATM    5  H   UNL     1       8.102  30.159  55.086  1.00  0.00     0.171 HD
HETATM    6  H   UNL     1      10.382  30.391  55.416  1.00  0.00     0.164 HD
ENDROOT
BRANCH   3   7
HETATM    7  C   UNL     1      10.804  30.246  57.495  1.00  0.00     0.227 C 
BRANCH   7   8
HETATM    8  C   UNL     1      10.017  31.146  58.466  1.00  0.00     0.239 C 
HETATM    9  N   UNL     1       9.012  30.493  59.149  1.00  0.00    -0.326 N 
HETATM   10  H   UNL     1       9.016  29.472  59.074  1.00  0.00     0.169 HD
HETATM   11  O   UNL     1      10.201  32.363  58.455  1.00  0.00    -0.271 OA
BRANCH   9  12
HETATM   12  C   UNL     1       7.921  31.056  59.838  1.00  0.00     0.037 A 
HETATM   13  C   UNL     1       7.842  31.136  61.234  1.00  0.00     0.061 A 
HETATM   14  C   UNL     1       6.751  31.788  61.763  1.00  0.00     0.065 A 
HETATM   15  C   UNL     1       5.750  32.340  60.968  1.00  0.00     0.063 A 
HETATM   16  N   UNL     1       6.432  32.048  63.093  1.00  0.00    -0.306 N 
HETATM   17  N   UNL     1       4.816  32.938  61.807  1.00  0.00    -0.307 N 
HETATM   18  C   UNL     1       5.783  32.265  59.600  1.00  0.00     0.034 A 
HETATM   19  C   UNL     1       5.231  32.768  63.137  1.00  0.00     0.325 A 
HETATM   20  H   UNL     1       3.982  33.434  61.540  1.00  0.00     0.170 HD
HETATM   21  O   UNL     1       4.660  33.175  64.132  1.00  0.00    -0.247 OA
HETATM   22  C   UNL     1       6.889  31.614  59.036  1.00  0.00     0.032 A 
HETATM   23  H   UNL     1       6.967  31.789  63.906  1.00  0.00     0.170 HD
ENDBRANCH   9  12
ENDBRANCH   7   8
ENDBRANCH   3   7
BRANCH   1  24
HETATM   24  C   UNL     1       7.310  28.282  54.784  1.00  0.00     0.070 A 
HETATM   25  C   UNL     1       6.018  28.463  55.312  1.00  0.00     0.095 A 
HETATM   26  C   UNL     1       5.020  27.542  54.983  1.00  0.00     0.040 A 
HETATM   27  C   UNL     1       5.294  26.481  54.112  1.00  0.00     0.019 A 
HETATM   28  C   UNL     1       6.578  26.305  53.576  1.00  0.00     0.050 A 
HETATM   29  C   UNL     1       7.595  27.195  53.949  1.00  0.00     0.048 A 
BRANCH  25  30
HETATM   30  O   UNL     1       5.854  29.512  56.179  1.00  0.00    -0.349 OA
BRANCH  30  31
HETATM   31  C   UNL     1       4.886  30.502  55.837  1.00  0.00     0.171 C 
HETATM   32  C   UNL     1       3.820  30.502  56.919  1.00  0.00     0.034 C 
ENDBRANCH  30  31
ENDBRANCH  25  30
BRANCH  28  33
HETATM   33  C   UNL     1       6.839  25.193  52.590  1.00  0.00     0.417 C 
HETATM   34  F   UNL     1       8.127  24.749  52.601  1.00  0.00    -0.166 F 
HETATM   35  F   UNL     1       6.065  24.098  52.821  1.00  0.00    -0.166 F 
HETATM   36  F   UNL     1       6.585  25.568  51.306  1.00  0.00    -0.166 F 
ENDBRANCH  28  33
ENDBRANCH   1  24
TORSDOF 7
ENDMDL
MODEL 7
REMARK VINA RESULT:      -9.3      3.387      5.552
REMARK  7 active torsions:
REMARK  status: ('A' for Active; 'I' for Inactive)
REMARK    1  A    between atoms: C_2  and  O_3 
REMARK    2  A    between atoms: O_3  and  C_4 
REMARK    3  A    between atoms: C_5  and  N_6 
REMARK       I    between atoms: N_6  and  C_7 
REMARK       I    between atoms: C_7  and  N_8 
REMARK    4  A    between atoms: N_8  and  C_9 
REMARK    5  A    between atoms: C_9  and  C_10 
REMARK       I    between atoms: C_10  and  N_11 
REMARK    6  A    between atoms: N_11  and  C_12 
REMARK    7  A    between atoms: C_25  and  C_26 
ROOT
HETATM    1  N   UNL     1       6.043  24.766  54.186  1.00  0.00    -0.306 N 
HETATM    2  C   UNL     1       6.242  25.883  53.400  1.00  0.00     0.321 C 
HETATM    3  N   UNL     1       5.062  26.525  53.138  1.00  0.00    -0.334 N 
HETATM    4  O   UNL     1       7.326  26.331  53.043  1.00  0.00    -0.247 OA
HETATM    5  H   UNL     1       5.453  24.988  54.974  1.00  0.00     0.171 HD
HETATM    6  H   UNL     1       4.213  26.000  53.300  1.00  0.00     0.164 HD
ENDROOT
BRANCH   3   7
HETATM    7  C   UNL     1       4.954  27.967  52.976  1.00  0.00     0.227 C 
BRANCH   7   8
HETATM    8  C   UNL     1       5.335  28.915  54.130  1.00  0.00     0.239 C 
HETATM    9  N   UNL     1       6.661  28.843  54.501  1.00  0.00    -0.326 N 
HETATM   10  H   UNL     1       7.271  28.317  53.869  1.00  0.00     0.169 HD
HETATM   11  O   UNL     1       4.453  29.522  54.737  1.00  0.00    -0.271 OA
BRANCH   9  12
HETATM   12  C   UNL     1       7.257  29.302  55.691  1.00  0.00     0.037 A 
HETATM   13  C   UNL     1       6.543  29.909  56.732  1.00  0.00     0.061 A 
HETATM   14  C   UNL     1       7.249  30.231  57.870  1.00  0.00     0.065 A 
HETATM   15  C   UNL     1       8.613  29.987  58.000  1.00  0.00     0.063 A 
HETATM   16  N   UNL     1       6.802  30.802  59.059  1.00  0.00    -0.306 N 
HETATM   17  N   UNL     1       9.005  30.407  59.266  1.00  0.00    -0.307 N 
HETATM   18  C   UNL     1       9.348  29.412  56.996  1.00  0.00     0.034 A 
HETATM   19  C   UNL     1       7.885  30.913  59.941  1.00  0.00     0.325 A 
HETATM   20  H   UNL     1       9.926  30.354  59.670  1.00  0.00     0.170 HD
HETATM   21  O   UNL     1       7.859  31.356  61.075  1.00  0.00    -0.247 OA
HETATM   22  C   UNL     1       8.652  29.066  55.831  1.00  0.00     0.032 A 
HETATM   23  H   UNL     1       5.859  31.080  59.280  1.00  0.00     0.170 HD
ENDBRANCH   9  12
ENDBRANCH   7   8
ENDBRANCH   3   7
BRANCH   1  24
HETATM   24  C   UNL     1       7.142  23.920  54.475  1.00  0.00     0.070 A 
HETATM   25  C   UNL     1       8.092  24.269  55.453  1.00  0.00     0.095 A 
HETATM   26  C   UNL     1       9.159  23.400  55.697  1.00  0.00     0.040 A 
HETATM   27  C   UNL     1       9.256  22.186  55.006  1.00  0.00     0.019 A 
HETATM   28  C   UNL     1       8.304  21.831  54.040  1.00  0.00     0.050 A 
HETATM   29  C   UNL     1       7.265  22.727  53.754  1.00  0.00     0.048 A 
BRANCH  25  30
HETATM   30  O   UNL     1       7.931  25.491  56.053  1.00  0.00    -0.349 OA
BRANCH  30  31
HETATM   31  C   UNL     1       8.330  25.610  57.417  1.00  0.00     0.171 C 
HETATM   32  C   UNL     1       7.289  26.452  58.134  1.00  0.00     0.034 C 
ENDBRANCH  30  31
ENDBRANCH  25  30
BRANCH  28  33
HETATM   33  C   UNL     1       8.389  20.491  53.351  1.00  0.00     0.417 C 
HETATM   34  F   UNL     1       7.241  20.138  52.707  1.00  0.00    -0.166 F 
HETATM   35  F   UNL     1       9.372  20.449  52.411  1.00  0.00    -0.166 F 
HETATM   36  F   UNL     1       8.656  19.478  54.221  1.00  0.00    -0.166 F 
ENDBRANCH  28  33
ENDBRANCH   1  24
TORSDOF 7
ENDMDL
MODEL 8
REMARK VINA RESULT:      -9.2      5.147     10.435
REMARK  7 active torsions:
REMARK  status: ('A' for Active; 'I' for Inactive)
REMARK    1  A    between atoms: C_2  and  O_3 
REMARK    2  A    between atoms: O_3  and  C_4 
REMARK    3  A    between atoms: C_5  and  N_6 
REMARK       I    between atoms: N_6  and  C_7 
REMARK       I    between atoms: C_7  and  N_8 
REMARK    4  A    between atoms: N_8  and  C_9 
REMARK    5  A    between atoms: C_9  and  C_10 
REMARK       I    between atoms: C_10  and  N_11 
REMARK    6  A    between atoms: N_11  and  C_12 
REMARK    7  A    between atoms: C_25  and  C_26 
ROOT
HETATM    1  N   UNL     1       6.552  30.370  56.807  1.00  0.00    -0.306 N 
HETATM    2  C   UNL     1       5.660  29.326  56.668  1.00  0.00     0.321 C 
HETATM    3  N   UNL     1       5.158  29.265  55.395  1.00  0.00    -0.334 N 
HETATM    4  O   UNL     1       5.398  28.484  57.518  1.00  0.00    -0.247 OA
HETATM    5  H   UNL     1       7.217  30.371  56.047  1.00  0.00     0.171 HD
HETATM    6  H   UNL     1       5.272  30.090  54.822  1.00  0.00     0.164 HD
ENDROOT
BRANCH   3   7
HETATM    7  C   UNL     1       4.794  28.020  54.738  1.00  0.00     0.227 C 
BRANCH   7   8
HETATM    8  C   UNL     1       5.883  27.050  54.240  1.00  0.00     0.239 C 
HETATM    9  N   UNL     1       5.590  25.719  54.456  1.00  0.00    -0.326 N 
HETATM   10  H   UNL     1       4.631  25.517  54.748  1.00  0.00     0.169 HD
HETATM   11  O   UNL     1       6.965  27.492  53.858  1.00  0.00    -0.271 OA
BRANCH   9  12
HETATM   12  C   UNL     1       6.472  24.621  54.434  1.00  0.00     0.037 A 
HETATM   13  C   UNL     1       6.979  24.010  55.588  1.00  0.00     0.061 A 
HETATM   14  C   UNL     1       7.765  22.894  55.411  1.00  0.00     0.065 A 
HETATM   15  C   UNL     1       8.068  22.382  54.152  1.00  0.00     0.063 A 
HETATM   16  N   UNL     1       8.367  22.073  56.361  1.00  0.00    -0.306 N 
HETATM   17  N   UNL     1       8.856  21.250  54.327  1.00  0.00    -0.307 N 
HETATM   18  C   UNL     1       7.605  22.964  53.000  1.00  0.00     0.034 A 
HETATM   19  C   UNL     1       9.047  21.041  55.701  1.00  0.00     0.325 A 
HETATM   20  H   UNL     1       9.228  20.647  53.612  1.00  0.00     0.170 HD
HETATM   21  O   UNL     1       9.675  20.134  56.217  1.00  0.00    -0.247 OA
HETATM   22  C   UNL     1       6.795  24.097  53.153  1.00  0.00     0.032 A 
HETATM   23  H   UNL     1       8.321  22.172  57.363  1.00  0.00     0.170 HD
ENDBRANCH   9  12
ENDBRANCH   7   8
ENDBRANCH   3   7
BRANCH   1  24
HETATM   24  C   UNL     1       7.098  30.648  58.084  1.00  0.00     0.070 A 
HETATM   25  C   UNL     1       8.312  30.071  58.499  1.00  0.00     0.095 A 
HETATM   26  C   UNL     1       8.803  30.376  59.771  1.00  0.00     0.040 A 
HETATM   27  C   UNL     1       8.117  31.271  60.600  1.00  0.00     0.019 A 
HETATM   28  C   UNL     1       6.912  31.856  60.184  1.00  0.00     0.050 A 
HETATM   29  C   UNL     1       6.388  31.507  58.931  1.00  0.00     0.048 A 
BRANCH  25  30
HETATM   30  O   UNL     1       8.896  29.184  57.632  1.00  0.00    -0.349 OA
BRANCH  30  31
HETATM   31  C   UNL     1       9.751  29.717  56.623  1.00  0.00     0.171 C 
HETATM   32  C   UNL     1      11.153  29.798  57.199  1.00  0.00     0.034 C 
ENDBRANCH  30  31
ENDBRANCH  25  30
BRANCH  28  33
HETATM   33  C   UNL     1       6.218  32.866  61.065  1.00  0.00     0.417 C 
HETATM   34  F   UNL     1       5.487  32.301  62.067  1.00  0.00    -0.166 F 
HETATM   35  F   UNL     1       7.091  33.715  61.673  1.00  0.00    -0.166 F 
HETATM   36  F   UNL     1       5.352  33.652  60.369  1.00  0.00    -0.166 F 
ENDBRANCH  28  33
ENDBRANCH   1  24
TORSDOF 7
ENDMDL
MODEL 9
REMARK VINA RESULT:      -8.9      5.179     10.079
REMARK  7 active torsions:
REMARK  status: ('A' for Active; 'I' for Inactive)
REMARK    1  A    between atoms: C_2  and  O_3 
REMARK    2  A    between atoms: O_3  and  C_4 
REMARK    3  A    between atoms: C_5  and  N_6 
REMARK       I    between atoms: N_6  and  C_7 
REMARK       I    between atoms: C_7  and  N_8 
REMARK    4  A    between atoms: N_8  and  C_9 
REMARK    5  A    between atoms: C_9  and  C_10 
REMARK       I    between atoms: C_10  and  N_11 
REMARK    6  A    between atoms: N_11  and  C_12 
REMARK    7  A    between atoms: C_25  and  C_26 
ROOT
HETATM    1  N   UNL     1       7.272  31.071  60.072  1.00  0.00    -0.306 N 
HETATM    2  C   UNL     1       8.438  31.294  59.369  1.00  0.00     0.321 C 
HETATM    3  N   UNL     1       8.965  30.123  58.891  1.00  0.00    -0.334 N 
HETATM    4  O   UNL     1       8.922  32.387  59.101  1.00  0.00    -0.247 OA
HETATM    5  H   UNL     1       6.655  30.466  59.550  1.00  0.00     0.171 HD
HETATM    6  H   UNL     1       8.622  29.268  59.308  1.00  0.00     0.164 HD
ENDROOT
BRANCH   3   7
HETATM    7  C   UNL     1       9.699  30.028  57.640  1.00  0.00     0.227 C 
BRANCH   7   8
HETATM    8  C   UNL     1       8.969  29.683  56.327  1.00  0.00     0.239 C 
HETATM    9  N   UNL     1       7.645  29.337  56.496  1.00  0.00    -0.326 N 
HETATM   10  H   UNL     1       7.254  29.517  57.424  1.00  0.00     0.169 HD
HETATM   11  O   UNL     1       9.611  29.574  55.283  1.00  0.00    -0.271 OA
BRANCH   9  12
HETATM   12  C   UNL     1       6.800  28.665  55.591  1.00  0.00     0.037 A 
HETATM   13  C   UNL     1       7.092  27.409  55.044  1.00  0.00     0.061 A 
HETATM   14  C   UNL     1       6.131  26.839  54.238  1.00  0.00     0.065 A 
HETATM   15  C   UNL     1       4.923  27.469  53.953  1.00  0.00     0.063 A 
HETATM   16  N   UNL     1       6.131  25.604  53.596  1.00  0.00    -0.306 N 
HETATM   17  N   UNL     1       4.180  26.623  53.137  1.00  0.00    -0.307 N 
HETATM   18  C   UNL     1       4.610  28.706  54.456  1.00  0.00     0.034 A 
HETATM   19  C   UNL     1       4.919  25.452  52.910  1.00  0.00     0.325 A 
HETATM   20  H   UNL     1       3.257  26.783  52.769  1.00  0.00     0.170 HD
HETATM   21  O   UNL     1       4.570  24.491  52.250  1.00  0.00    -0.247 OA
HETATM   22  C   UNL     1       5.567  29.303  55.287  1.00  0.00     0.032 A 
HETATM   23  H   UNL     1       6.859  24.909  53.620  1.00  0.00     0.170 HD
ENDBRANCH   9  12
ENDBRANCH   7   8
ENDBRANCH   3   7
BRANCH   1  24
HETATM   24  C   UNL     1       6.639  32.158  60.724  1.00  0.00     0.070 A 
HETATM   25  C   UNL     1       5.622  32.896  60.090  1.00  0.00     0.095 A 
HETATM   26  C   UNL     1       5.034  33.960  60.778  1.00  0.00     0.040 A 
HETATM   27  C   UNL     1       5.426  34.261  62.087  1.00  0.00     0.019 A 
HETATM   28  C   UNL     1       6.432  33.521  62.724  1.00  0.00     0.050 A 
HETATM   29  C   UNL     1       7.062  32.488  62.016  1.00  0.00     0.048 A 
BRANCH  25  30
HETATM   30  O   UNL     1       5.327  32.547  58.798  1.00  0.00    -0.349 OA
BRANCH  30  31
HETATM   31  C   UNL     1       3.954  32.359  58.464  1.00  0.00     0.171 C 
HETATM   32  C   UNL     1       3.718  30.869  58.289  1.00  0.00     0.034 C 
ENDBRANCH  30  31
ENDBRANCH  25  30
BRANCH  28  33
HETATM   33  C   UNL     1       6.797  33.819  64.158  1.00  0.00     0.417 C 
HETATM   34  F   UNL     1       6.027  33.153  65.064  1.00  0.00    -0.166 F 
HETATM   35  F   UNL     1       8.085  33.487  64.448  1.00  0.00    -0.166 F 
HETATM   36  F   UNL     1       6.672  35.140  64.461  1.00  0.00    -0.166 F 
ENDBRANCH  28  33
ENDBRANCH   1  24
TORSDOF 7
ENDMDL
MODEL 10
REMARK VINA RESULT:      -8.8      2.978      5.087
REMARK  7 active torsions:
REMARK  status: ('A' for Active; 'I' for Inactive)
REMARK    1  A    between atoms: C_2  and  O_3 
REMARK    2  A    between atoms: O_3  and  C_4 
REMARK    3  A    between atoms: C_5  and  N_6 
REMARK       I    between atoms: N_6  and  C_7 
REMARK       I    between atoms: C_7  and  N_8 
REMARK    4  A    between atoms: N_8  and  C_9 
REMARK    5  A    between atoms: C_9  and  C_10 
REMARK       I    between atoms: C_10  and  N_11 
REMARK    6  A    between atoms: N_11  and  C_12 
REMARK    7  A    between atoms: C_25  and  C_26 
ROOT
HETATM    1  N   UNL     1       5.036  25.605  54.652  1.00  0.00    -0.306 N 
HETATM    2  C   UNL     1       5.122  26.581  53.680  1.00  0.00     0.321 C 
HETATM    3  N   UNL     1       3.892  27.109  53.392  1.00  0.00    -0.334 N 
HETATM    4  O   UNL     1       6.155  27.017  53.185  1.00  0.00    -0.247 OA
HETATM    5  H   UNL     1       4.478  25.927  55.428  1.00  0.00     0.171 HD
HETATM    6  H   UNL     1       3.088  26.576  53.693  1.00  0.00     0.164 HD
ENDROOT
BRANCH   3   7
HETATM    7  C   UNL     1       3.688  28.495  53.000  1.00  0.00     0.227 C 
BRANCH   7   8
HETATM    8  C   UNL     1       3.877  29.633  54.022  1.00  0.00     0.239 C 
HETATM    9  N   UNL     1       4.657  29.290  55.106  1.00  0.00    -0.326 N 
HETATM   10  H   UNL     1       5.160  28.402  55.028  1.00  0.00     0.169 HD
HETATM   11  O   UNL     1       3.221  30.668  53.909  1.00  0.00    -0.271 OA
BRANCH   9  12
HETATM   12  C   UNL     1       4.758  29.948  56.347  1.00  0.00     0.037 A 
HETATM   13  C   UNL     1       5.963  30.423  56.878  1.00  0.00     0.061 A 
HETATM   14  C   UNL     1       5.894  31.120  58.064  1.00  0.00     0.065 A 
HETATM   15  C   UNL     1       4.693  31.345  58.731  1.00  0.00     0.063 A 
HETATM   16  N   UNL     1       6.910  31.730  58.795  1.00  0.00    -0.306 N 
HETATM   17  N   UNL     1       4.970  32.091  59.872  1.00  0.00    -0.307 N 
HETATM   18  C   UNL     1       3.496  30.880  58.252  1.00  0.00     0.034 A 
HETATM   19  C   UNL     1       6.348  32.344  59.923  1.00  0.00     0.325 A 
HETATM   20  H   UNL     1       4.313  32.426  60.557  1.00  0.00     0.170 HD
HETATM   21  O   UNL     1       6.938  32.979  60.777  1.00  0.00    -0.247 OA
HETATM   22  C   UNL     1       3.539  30.175  57.041  1.00  0.00     0.032 A 
HETATM   23  H   UNL     1       7.890  31.757  58.564  1.00  0.00     0.170 HD
ENDBRANCH   9  12
ENDBRANCH   7   8
ENDBRANCH   3   7
BRANCH   1  24
HETATM   24  C   UNL     1       6.199  24.878  55.007  1.00  0.00     0.070 A 
HETATM   25  C   UNL     1       6.912  25.173  56.183  1.00  0.00     0.095 A 
HETATM   26  C   UNL     1       8.055  24.427  56.484  1.00  0.00     0.040 A 
HETATM   27  C   UNL     1       8.457  23.380  55.647  1.00  0.00     0.019 A 
HETATM   28  C   UNL     1       7.742  23.076  54.480  1.00  0.00     0.050 A 
HETATM   29  C   UNL     1       6.628  23.860  54.147  1.00  0.00     0.048 A 
BRANCH  25  30
HETATM   30  O   UNL     1       6.460  26.235  56.922  1.00  0.00    -0.349 OA
BRANCH  30  31
HETATM   31  C   UNL     1       7.436  27.111  57.481  1.00  0.00     0.171 C 
HETATM   32  C   UNL     1       8.004  27.954  56.353  1.00  0.00     0.034 C 
ENDBRANCH  30  31
ENDBRANCH  25  30
BRANCH  28  33
HETATM   33  C   UNL     1       8.154  21.904  53.624  1.00  0.00     0.417 C 
HETATM   34  F   UNL     1       9.488  21.635  53.678  1.00  0.00    -0.166 F 
HETATM   35  F   UNL     1       7.526  20.750  53.982  1.00  0.00    -0.166 F 
HETATM   36  F   UNL     1       7.864  22.096  52.308  1.00  0.00    -0.166 F 
ENDBRANCH  28  33
ENDBRANCH   1  24
TORSDOF 7
ENDMDL
