MODEL 1
REMARK VINA RESULT:      -8.5      0.000      0.000
REMARK  6 active torsions:
REMARK  status: ('A' for Active; 'I' for Inactive)
REMARK    1  A    between atoms: C_2  and  C_3 
REMARK    2  A    between atoms: C_3  and  O_4 
REMARK    3  A    between atoms: C_3  and  C_12 
REMARK    4  A    between atoms: O_4  and  C_5 
REMARK    5  A    between atoms: C_12  and  N_13 
REMARK       I    between atoms: N_13  and  C_14 
REMARK       I    between atoms: C_14  and  N_15 
REMARK    6  A    between atoms: N_15  and  C_16 
ROOT
HETATM    1  N   UNL     1       6.505  27.016  56.478  1.00  0.00    -0.340 N 
HETATM    2  C   UNL     1       7.362  27.627  57.372  1.00  0.00     0.320 C 
HETATM    3  N   UNL     1       7.453  28.980  57.121  1.00  0.00    -0.307 N 
HETATM    4  O   UNL     1       7.949  27.012  58.249  1.00  0.00    -0.247 OA
HETATM    5  H   UNL     1       5.981  27.591  55.839  1.00  0.00     0.164 HD
HETATM    6  H   UNL     1       6.897  29.322  56.358  1.00  0.00     0.170 HD
ENDROOT
BRANCH   1   7
HETATM    7  C   UNL     1       6.042  25.648  56.683  1.00  0.00     0.156 C 
BRANCH   7   8
HETATM    8  C   UNL     1       6.005  24.862  55.352  1.00  0.00     0.146 C 
BRANCH   8   9
HETATM    9  C   UNL     1       5.569  25.744  54.172  1.00  0.00     0.029 C 
HETATM   10  C   UNL     1       4.698  25.024  53.155  1.00  0.00     0.007 C 
ENDBRANCH   8   9
BRANCH   8  11
HETATM   11  O   UNL     1       7.337  24.394  55.096  1.00  0.00    -0.343 OA
BRANCH  11  12
HETATM   12  C   UNL     1       7.574  23.086  54.773  1.00  0.00     0.091 A 
HETATM   13  C   UNL     1       7.917  22.826  53.435  1.00  0.00     0.067 A 
HETATM   14 CL   UNL     1       7.982  24.092  52.257  1.00  0.00    -0.081 Cl
HETATM   15  C   UNL     1       8.201  21.526  53.007  1.00  0.00     0.026 A 
HETATM   16  C   UNL     1       8.155  20.469  53.913  1.00  0.00     0.002 A 
HETATM   17  C   UNL     1       7.824  20.715  55.243  1.00  0.00     0.003 A 
HETATM   18  C   UNL     1       7.534  22.016  55.672  1.00  0.00     0.038 A 
ENDBRANCH  11  12
ENDBRANCH   8  11
ENDBRANCH   7   8
ENDBRANCH   1   7
BRANCH   3  19
HETATM   19  C   UNL     1       8.199  29.938  57.845  1.00  0.00     0.059 A 
HETATM   20  C   UNL     1       9.522  30.222  57.448  1.00  0.00    -0.032 A 
HETATM   21  C   UNL     1      10.176  29.551  56.272  1.00  0.00     0.050 C 
HETATM   22  C   UNL     1      10.255  31.175  58.169  1.00  0.00     0.028 A 
HETATM   23  C   UNL     1       9.663  31.807  59.249  1.00  0.00     0.117 A 
HETATM   24  N   UNL     1       8.406  31.560  59.655  1.00  0.00    -0.271 NA
HETATM   25  C   UNL     1       7.703  30.639  58.945  1.00  0.00     0.146 A 
ENDBRANCH   3  19
TORSDOF 6
ENDMDL
MODEL 2
REMARK VINA RESULT:      -8.5      1.181      1.517
REMARK  6 active torsions:
REMARK  status: ('A' for Active; 'I' for Inactive)
REMARK    1  A    between atoms: C_2  and  C_3 
REMARK    2  A    between atoms: C_3  and  O_4 
REMARK    3  A    between atoms: C_3  and  C_12 
REMARK    4  A    between atoms: O_4  and  C_5 
REMARK    5  A    between atoms: C_12  and  N_13 
REMARK       I    between atoms: N_13  and  C_14 
REMARK       I    between atoms: C_14  and  N_15 
REMARK    6  A    between atoms: N_15  and  C_16 
ROOT
HETATM    1  N   UNL     1       7.072  26.873  55.977  1.00  0.00    -0.340 N 
HETATM    2  C   UNL     1       7.561  27.594  57.048  1.00  0.00     0.320 C 
HETATM    3  N   UNL     1       7.941  28.860  56.657  1.00  0.00    -0.307 N 
HETATM    4  O   UNL     1       7.639  27.130  58.175  1.00  0.00    -0.247 OA
HETATM    5  H   UNL     1       6.947  27.341  55.095  1.00  0.00     0.164 HD
HETATM    6  H   UNL     1       7.804  29.079  55.686  1.00  0.00     0.170 HD
ENDROOT
BRANCH   1   7
HETATM    7  C   UNL     1       6.375  25.606  56.169  1.00  0.00     0.156 C 
BRANCH   7   8
HETATM    8  C   UNL     1       6.336  24.782  54.861  1.00  0.00     0.146 C 
BRANCH   8   9
HETATM    9  C   UNL     1       5.893  25.629  53.658  1.00  0.00     0.029 C 
HETATM   10  C   UNL     1       5.056  24.866  52.645  1.00  0.00     0.007 C 
ENDBRANCH   8   9
BRANCH   8  11
HETATM   11  O   UNL     1       7.669  24.311  54.615  1.00  0.00    -0.343 OA
BRANCH  11  12
HETATM   12  C   UNL     1       7.916  22.985  54.388  1.00  0.00     0.091 A 
HETATM   13  C   UNL     1       8.265  22.214  55.509  1.00  0.00     0.067 A 
HETATM   14 CL   UNL     1       8.422  22.924  57.080  1.00  0.00    -0.081 Cl
HETATM   15  C   UNL     1       8.516  20.844  55.388  1.00  0.00     0.026 A 
HETATM   16  C   UNL     1       8.410  20.224  54.145  1.00  0.00     0.002 A 
HETATM   17  C   UNL     1       8.058  20.976  53.028  1.00  0.00     0.003 A 
HETATM   18  C   UNL     1       7.812  22.350  53.146  1.00  0.00     0.038 A 
ENDBRANCH  11  12
ENDBRANCH   8  11
ENDBRANCH   7   8
ENDBRANCH   1   7
BRANCH   3  19
HETATM   19  C   UNL     1       8.451  29.895  57.476  1.00  0.00     0.059 A 
HETATM   20  C   UNL     1       9.838  30.145  57.483  1.00  0.00    -0.032 A 
HETATM   21  C   UNL     1      10.806  29.361  56.641  1.00  0.00     0.050 C 
HETATM   22  C   UNL     1      10.336  31.173  58.295  1.00  0.00     0.028 A 
HETATM   23  C   UNL     1       9.456  31.910  59.068  1.00  0.00     0.117 A 
HETATM   24  N   UNL     1       8.128  31.697  59.087  1.00  0.00    -0.271 NA
HETATM   25  C   UNL     1       7.656  30.702  58.292  1.00  0.00     0.146 A 
ENDBRANCH   3  19
TORSDOF 6
ENDMDL
MODEL 3
REMARK VINA RESULT:      -8.4      3.100      8.203
REMARK  6 active torsions:
REMARK  status: ('A' for Active; 'I' for Inactive)
REMARK    1  A    between atoms: C_2  and  C_3 
REMARK    2  A    between atoms: C_3  and  O_4 
REMARK    3  A    between atoms: C_3  and  C_12 
REMARK    4  A    between atoms: O_4  and  C_5 
REMARK    5  A    between atoms: C_12  and  N_13 
REMARK       I    between atoms: N_13  and  C_14 
REMARK       I    between atoms: C_14  and  N_15 
REMARK    6  A    between atoms: N_15  and  C_16 
ROOT
HETATM    1  N   UNL     1       6.976  24.897  57.213  1.00  0.00    -0.340 N 
HETATM    2  C   UNL     1       7.832  24.004  56.599  1.00  0.00     0.320 C 
HETATM    3  N   UNL     1       7.138  23.137  55.783  1.00  0.00    -0.307 N 
HETATM    4  O   UNL     1       9.039  24.010  56.790  1.00  0.00    -0.247 OA
HETATM    5  H   UNL     1       6.006  24.901  56.945  1.00  0.00     0.164 HD
HETATM    6  H   UNL     1       6.144  23.276  55.741  1.00  0.00     0.170 HD
ENDROOT
BRANCH   1   7
HETATM    7  C   UNL     1       7.480  26.068  57.922  1.00  0.00     0.156 C 
BRANCH   7   8
HETATM    8  C   UNL     1       7.100  27.375  57.189  1.00  0.00     0.146 C 
BRANCH   8   9
HETATM    9  C   UNL     1       5.590  27.470  56.921  1.00  0.00     0.029 C 
HETATM   10  C   UNL     1       5.030  28.876  57.053  1.00  0.00     0.007 C 
ENDBRANCH   8   9
BRANCH   8  11
HETATM   11  O   UNL     1       7.477  28.467  58.041  1.00  0.00    -0.343 OA
BRANCH  11  12
HETATM   12  C   UNL     1       8.619  29.181  57.806  1.00  0.00     0.091 A 
HETATM   13  C   UNL     1       8.767  30.378  58.527  1.00  0.00     0.067 A 
HETATM   14 CL   UNL     1       7.538  30.936  59.611  1.00  0.00    -0.081 Cl
HETATM   15  C   UNL     1       9.909  31.170  58.378  1.00  0.00     0.026 A 
HETATM   16  C   UNL     1      10.924  30.771  57.513  1.00  0.00     0.002 A 
HETATM   17  C   UNL     1      10.794  29.583  56.798  1.00  0.00     0.003 A 
HETATM   18  C   UNL     1       9.648  28.791  56.942  1.00  0.00     0.038 A 
ENDBRANCH  11  12
ENDBRANCH   8  11
ENDBRANCH   7   8
ENDBRANCH   1   7
BRANCH   3  19
HETATM   19  C   UNL     1       7.673  22.114  54.966  1.00  0.00     0.059 A 
HETATM   20  C   UNL     1       7.827  22.348  53.585  1.00  0.00    -0.032 A 
HETATM   21  C   UNL     1       7.456  23.654  52.938  1.00  0.00     0.050 C 
HETATM   22  C   UNL     1       8.360  21.330  52.782  1.00  0.00     0.028 A 
HETATM   23  C   UNL     1       8.715  20.126  53.364  1.00  0.00     0.117 A 
HETATM   24  N   UNL     1       8.581  19.868  54.677  1.00  0.00    -0.271 NA
HETATM   25  C   UNL     1       8.069  20.864  55.447  1.00  0.00     0.146 A 
ENDBRANCH   3  19
TORSDOF 6
ENDMDL
MODEL 4
REMARK VINA RESULT:      -8.2      1.608      2.241
REMARK  6 active torsions:
REMARK  status: ('A' for Active; 'I' for Inactive)
REMARK    1  A    between atoms: C_2  and  C_3 
REMARK    2  A    between atoms: C_3  and  O_4 
REMARK    3  A    between atoms: C_3  and  C_12 
REMARK    4  A    between atoms: O_4  and  C_5 
REMARK    5  A    between atoms: C_12  and  N_13 
REMARK       I    between atoms: N_13  and  C_14 
REMARK       I    between atoms: C_14  and  N_15 
REMARK    6  A    between atoms: N_15  and  C_16 
ROOT
HETATM    1  N   UNL     1       6.699  26.642  54.935  1.00  0.00    -0.340 N 
HETATM    2  C   UNL     1       7.607  27.112  55.863  1.00  0.00     0.320 C 
HETATM    3  N   UNL     1       7.942  28.424  55.603  1.00  0.00    -0.307 N 
HETATM    4  O   UNL     1       8.038  26.420  56.773  1.00  0.00    -0.247 OA
HETATM    5  H   UNL     1       6.312  27.286  54.265  1.00  0.00     0.164 HD
HETATM    6  H   UNL     1       7.489  28.843  54.811  1.00  0.00     0.170 HD
ENDROOT
BRANCH   1   7
HETATM    7  C   UNL     1       5.997  25.377  55.131  1.00  0.00     0.156 C 
BRANCH   7   8
HETATM    8  C   UNL     1       6.413  24.334  54.068  1.00  0.00     0.146 C 
BRANCH   8   9
HETATM    9  C   UNL     1       6.422  24.925  52.650  1.00  0.00     0.029 C 
HETATM   10  C   UNL     1       7.806  25.010  52.028  1.00  0.00     0.007 C 
ENDBRANCH   8   9
BRANCH   8  11
HETATM   11  O   UNL     1       7.745  23.908  54.388  1.00  0.00    -0.343 OA
BRANCH  11  12
HETATM   12  C   UNL     1       7.965  22.785  55.137  1.00  0.00     0.091 A 
HETATM   13  C   UNL     1       8.055  21.572  54.432  1.00  0.00     0.067 A 
HETATM   14 CL   UNL     1       7.846  21.508  52.716  1.00  0.00    -0.081 Cl
HETATM   15  C   UNL     1       8.301  20.370  55.102  1.00  0.00     0.026 A 
HETATM   16  C   UNL     1       8.470  20.366  56.484  1.00  0.00     0.002 A 
HETATM   17  C   UNL     1       8.390  21.562  57.193  1.00  0.00     0.003 A 
HETATM   18  C   UNL     1       8.138  22.766  56.524  1.00  0.00     0.038 A 
ENDBRANCH  11  12
ENDBRANCH   8  11
ENDBRANCH   7   8
ENDBRANCH   1   7
BRANCH   3  19
HETATM   19  C   UNL     1       8.809  29.252  56.353  1.00  0.00     0.059 A 
HETATM   20  C   UNL     1       8.321  29.884  57.515  1.00  0.00    -0.032 A 
HETATM   21  C   UNL     1       6.909  29.705  58.002  1.00  0.00     0.050 C 
HETATM   22  C   UNL     1       9.186  30.702  58.255  1.00  0.00     0.028 A 
HETATM   23  C   UNL     1      10.491  30.869  57.824  1.00  0.00     0.117 A 
HETATM   24  N   UNL     1      10.989  30.282  56.722  1.00  0.00    -0.271 NA
HETATM   25  C   UNL     1      10.143  29.487  56.016  1.00  0.00     0.146 A 
ENDBRANCH   3  19
TORSDOF 6
ENDMDL
MODEL 5
REMARK VINA RESULT:      -7.9      3.091      8.787
REMARK  6 active torsions:
REMARK  status: ('A' for Active; 'I' for Inactive)
REMARK    1  A    between atoms: C_2  and  C_3 
REMARK    2  A    between atoms: C_3  and  O_4 
REMARK    3  A    between atoms: C_3  and  C_12 
REMARK    4  A    between atoms: O_4  and  C_5 
REMARK    5  A    between atoms: C_12  and  N_13 
REMARK       I    between atoms: N_13  and  C_14 
REMARK       I    between atoms: C_14  and  N_15 
REMARK    6  A    between atoms: N_15  and  C_16 
ROOT
HETATM    1  N   UNL     1       7.648  27.002  56.558  1.00  0.00    -0.340 N 
HETATM    2  C   UNL     1       7.339  25.661  56.665  1.00  0.00     0.320 C 
HETATM    3  N   UNL     1       8.091  24.910  55.788  1.00  0.00    -0.307 N 
HETATM    4  O   UNL     1       6.496  25.238  57.443  1.00  0.00    -0.247 OA
HETATM    5  H   UNL     1       8.415  27.277  55.967  1.00  0.00     0.164 HD
HETATM    6  H   UNL     1       8.743  25.422  55.220  1.00  0.00     0.170 HD
ENDROOT
BRANCH   1   7
HETATM    7  C   UNL     1       7.181  27.971  57.544  1.00  0.00     0.156 C 
BRANCH   7   8
HETATM    8  C   UNL     1       8.290  28.988  57.901  1.00  0.00     0.146 C 
BRANCH   8   9
HETATM    9  C   UNL     1       9.186  29.313  56.696  1.00  0.00     0.029 C 
HETATM   10  C   UNL     1      10.624  29.633  57.068  1.00  0.00     0.007 C 
ENDBRANCH   8   9
BRANCH   8  11
HETATM   11  O   UNL     1       7.640  30.197  58.319  1.00  0.00    -0.343 OA
BRANCH  11  12
HETATM   12  C   UNL     1       7.995  30.819  59.484  1.00  0.00     0.091 A 
HETATM   13  C   UNL     1       7.163  31.869  59.910  1.00  0.00     0.067 A 
HETATM   14 CL   UNL     1       5.796  32.373  58.976  1.00  0.00    -0.081 Cl
HETATM   15  C   UNL     1       7.425  32.555  61.099  1.00  0.00     0.026 A 
HETATM   16  C   UNL     1       8.517  32.195  61.885  1.00  0.00     0.002 A 
HETATM   17  C   UNL     1       9.344  31.152  61.478  1.00  0.00     0.003 A 
HETATM   18  C   UNL     1       9.087  30.467  60.284  1.00  0.00     0.038 A 
ENDBRANCH  11  12
ENDBRANCH   8  11
ENDBRANCH   7   8
ENDBRANCH   1   7
BRANCH   3  19
HETATM   19  C   UNL     1       8.082  23.503  55.635  1.00  0.00     0.059 A 
HETATM   20  C   UNL     1       7.756  22.951  54.379  1.00  0.00    -0.032 A 
HETATM   21  C   UNL     1       7.426  23.800  53.182  1.00  0.00     0.050 C 
HETATM   22  C   UNL     1       7.751  21.557  54.234  1.00  0.00     0.028 A 
HETATM   23  C   UNL     1       8.061  20.763  55.325  1.00  0.00     0.117 A 
HETATM   24  N   UNL     1       8.375  21.256  56.535  1.00  0.00    -0.271 NA
HETATM   25  C   UNL     1       8.383  22.609  56.663  1.00  0.00     0.146 A 
ENDBRANCH   3  19
TORSDOF 6
ENDMDL
MODEL 6
REMARK VINA RESULT:      -7.9      6.240     10.608
REMARK  6 active torsions:
REMARK  status: ('A' for Active; 'I' for Inactive)
REMARK    1  A    between atoms: C_2  and  C_3 
REMARK    2  A    between atoms: C_3  and  O_4 
REMARK    3  A    between atoms: C_3  and  C_12 
REMARK    4  A    between atoms: O_4  and  C_5 
REMARK    5  A    between atoms: C_12  and  N_13 
REMARK       I    between atoms: N_13  and  C_14 
REMARK       I    between atoms: C_14  and  N_15 
REMARK    6  A    between atoms: N_15  and  C_16 
ROOT
HETATM    1  N   UNL     1       5.620  31.698  60.379  1.00  0.00    -0.340 N 
HETATM    2  C   UNL     1       6.566  31.785  59.377  1.00  0.00     0.320 C 
HETATM    3  N   UNL     1       7.530  30.811  59.522  1.00  0.00    -0.307 N 
HETATM    4  O   UNL     1       6.522  32.636  58.501  1.00  0.00    -0.247 OA
HETATM    5  H   UNL     1       5.660  30.920  61.016  1.00  0.00     0.164 HD
HETATM    6  H   UNL     1       7.410  30.188  60.302  1.00  0.00     0.170 HD
ENDROOT
BRANCH   1   7
HETATM    7  C   UNL     1       4.369  32.445  60.310  1.00  0.00     0.156 C 
BRANCH   7   8
HETATM    8  C   UNL     1       4.333  33.579  61.362  1.00  0.00     0.146 C 
BRANCH   8   9
HETATM    9  C   UNL     1       3.085  34.462  61.217  1.00  0.00     0.029 C 
HETATM   10  C   UNL     1       3.296  35.900  61.660  1.00  0.00     0.007 C 
ENDBRANCH   8   9
BRANCH   8  11
HETATM   11  O   UNL     1       4.300  32.959  62.655  1.00  0.00    -0.343 OA
BRANCH  11  12
HETATM   12  C   UNL     1       5.266  33.221  63.587  1.00  0.00     0.091 A 
HETATM   13  C   UNL     1       4.846  33.887  64.751  1.00  0.00     0.067 A 
HETATM   14 CL   UNL     1       3.204  34.390  64.961  1.00  0.00    -0.081 Cl
HETATM   15  C   UNL     1       5.751  34.181  65.775  1.00  0.00     0.026 A 
HETATM   16  C   UNL     1       7.087  33.804  65.653  1.00  0.00     0.002 A 
HETATM   17  C   UNL     1       7.513  33.138  64.508  1.00  0.00     0.003 A 
HETATM   18  C   UNL     1       6.609  32.847  63.479  1.00  0.00     0.038 A 
ENDBRANCH  11  12
ENDBRANCH   8  11
ENDBRANCH   7   8
ENDBRANCH   1   7
BRANCH   3  19
HETATM   19  C   UNL     1       8.633  30.561  58.673  1.00  0.00     0.059 A 
HETATM   20  C   UNL     1       8.635  29.400  57.874  1.00  0.00    -0.032 A 
HETATM   21  C   UNL     1       7.500  28.413  57.876  1.00  0.00     0.050 C 
HETATM   22  C   UNL     1       9.730  29.160  57.032  1.00  0.00     0.028 A 
HETATM   23  C   UNL     1      10.778  30.064  57.013  1.00  0.00     0.117 A 
HETATM   24  N   UNL     1      10.809  31.180  57.762  1.00  0.00    -0.271 NA
HETATM   25  C   UNL     1       9.739  31.405  58.569  1.00  0.00     0.146 A 
ENDBRANCH   3  19
TORSDOF 6
ENDMDL
MODEL 7
REMARK VINA RESULT:      -7.8      4.301      7.354
REMARK  6 active torsions:
REMARK  status: ('A' for Active; 'I' for Inactive)
REMARK    1  A    between atoms: C_2  and  C_3 
REMARK    2  A    between atoms: C_3  and  O_4 
REMARK    3  A    between atoms: C_3  and  C_12 
REMARK    4  A    between atoms: O_4  and  C_5 
REMARK    5  A    between atoms: C_12  and  N_13 
REMARK       I    between atoms: N_13  and  C_14 
REMARK       I    between atoms: C_14  and  N_15 
REMARK    6  A    between atoms: N_15  and  C_16 
ROOT
HETATM    1  N   UNL     1       6.077  25.391  51.927  1.00  0.00    -0.340 N 
HETATM    2  C   UNL     1       5.343  26.414  51.359  1.00  0.00     0.320 C 
HETATM    3  N   UNL     1       5.535  26.460  49.995  1.00  0.00    -0.307 N 
HETATM    4  O   UNL     1       4.637  27.163  52.017  1.00  0.00    -0.247 OA
HETATM    5  H   UNL     1       6.566  24.752  51.322  1.00  0.00     0.164 HD
HETATM    6  H   UNL     1       6.151  25.763  49.615  1.00  0.00     0.170 HD
ENDROOT
BRANCH   1   7
HETATM    7  C   UNL     1       5.856  24.972  53.307  1.00  0.00     0.156 C 
BRANCH   7   8
HETATM    8  C   UNL     1       7.192  24.827  54.071  1.00  0.00     0.146 C 
BRANCH   8   9
HETATM    9  C   UNL     1       7.470  26.030  54.984  1.00  0.00     0.029 C 
HETATM   10  C   UNL     1       7.709  25.656  56.437  1.00  0.00     0.007 C 
ENDBRANCH   8   9
BRANCH   8  11
HETATM   11  O   UNL     1       7.089  23.653  54.889  1.00  0.00    -0.343 OA
BRANCH  11  12
HETATM   12  C   UNL     1       7.654  22.470  54.498  1.00  0.00     0.091 A 
HETATM   13  C   UNL     1       8.221  21.683  55.515  1.00  0.00     0.067 A 
HETATM   14 CL   UNL     1       8.246  22.215  57.161  1.00  0.00    -0.081 Cl
HETATM   15  C   UNL     1       8.803  20.446  55.224  1.00  0.00     0.026 A 
HETATM   16  C   UNL     1       8.817  19.974  53.914  1.00  0.00     0.002 A 
HETATM   17  C   UNL     1       8.252  20.741  52.899  1.00  0.00     0.003 A 
HETATM   18  C   UNL     1       7.673  21.983  53.187  1.00  0.00     0.038 A 
ENDBRANCH  11  12
ENDBRANCH   8  11
ENDBRANCH   7   8
ENDBRANCH   1   7
BRANCH   3  19
HETATM   19  C   UNL     1       4.927  27.342  49.072  1.00  0.00     0.059 A 
HETATM   20  C   UNL     1       3.874  26.870  48.262  1.00  0.00    -0.032 A 
HETATM   21  C   UNL     1       3.358  25.459  48.345  1.00  0.00     0.050 C 
HETATM   22  C   UNL     1       3.274  27.750  47.351  1.00  0.00     0.028 A 
HETATM   23  C   UNL     1       3.732  29.054  47.270  1.00  0.00     0.117 A 
HETATM   24  N   UNL     1       4.733  29.537  48.026  1.00  0.00    -0.271 NA
HETATM   25  C   UNL     1       5.303  28.676  48.909  1.00  0.00     0.146 A 
ENDBRANCH   3  19
TORSDOF 6
ENDMDL
MODEL 8
REMARK VINA RESULT:      -7.5      3.036      4.898
REMARK  6 active torsions:
REMARK  status: ('A' for Active; 'I' for Inactive)
REMARK    1  A    between atoms: C_2  and  C_3 
REMARK    2  A    between atoms: C_3  and  O_4 
REMARK    3  A    between atoms: C_3  and  C_12 
REMARK    4  A    between atoms: O_4  and  C_5 
REMARK    5  A    between atoms: C_12  and  N_13 
REMARK       I    between atoms: N_13  and  C_14 
REMARK       I    between atoms: C_14  and  N_15 
REMARK    6  A    between atoms: N_15  and  C_16 
ROOT
HETATM    1  N   UNL     1       7.021  30.113  58.176  1.00  0.00    -0.340 N 
HETATM    2  C   UNL     1       6.951  31.232  58.981  1.00  0.00     0.320 C 
HETATM    3  N   UNL     1       7.048  30.890  60.312  1.00  0.00    -0.307 N 
HETATM    4  O   UNL     1       6.810  32.360  58.531  1.00  0.00    -0.247 OA
HETATM    5  H   UNL     1       7.230  29.224  58.600  1.00  0.00     0.164 HD
HETATM    6  H   UNL     1       7.164  29.911  60.505  1.00  0.00     0.170 HD
ENDROOT
BRANCH   1   7
HETATM    7  C   UNL     1       7.196  30.224  56.732  1.00  0.00     0.156 C 
BRANCH   7   8
HETATM    8  C   UNL     1       8.041  29.055  56.176  1.00  0.00     0.146 C 
BRANCH   8   9
HETATM    9  C   UNL     1       9.265  28.757  57.056  1.00  0.00     0.029 C 
HETATM   10  C   UNL     1      10.502  29.554  56.680  1.00  0.00     0.007 C 
ENDBRANCH   8   9
BRANCH   8  11
HETATM   11  O   UNL     1       7.201  27.892  56.163  1.00  0.00    -0.343 OA
BRANCH  11  12
HETATM   12  C   UNL     1       7.403  26.889  55.255  1.00  0.00     0.091 A 
HETATM   13  C   UNL     1       7.547  25.592  55.779  1.00  0.00     0.067 A 
HETATM   14 CL   UNL     1       7.522  25.299  57.484  1.00  0.00    -0.081 Cl
HETATM   15  C   UNL     1       7.733  24.494  54.934  1.00  0.00     0.026 A 
HETATM   16  C   UNL     1       7.768  24.676  53.554  1.00  0.00     0.002 A 
HETATM   17  C   UNL     1       7.620  25.954  53.023  1.00  0.00     0.003 A 
HETATM   18  C   UNL     1       7.438  27.056  53.867  1.00  0.00     0.038 A 
ENDBRANCH  11  12
ENDBRANCH   8  11
ENDBRANCH   7   8
ENDBRANCH   1   7
BRANCH   3  19
HETATM   19  C   UNL     1       7.054  31.763  61.425  1.00  0.00     0.059 A 
HETATM   20  C   UNL     1       8.225  31.879  62.201  1.00  0.00    -0.032 A 
HETATM   21  C   UNL     1       9.483  31.116  61.888  1.00  0.00     0.050 C 
HETATM   22  C   UNL     1       8.225  32.748  63.301  1.00  0.00     0.028 A 
HETATM   23  C   UNL     1       7.077  33.464  63.596  1.00  0.00     0.117 A 
HETATM   24  N   UNL     1       5.944  33.377  62.878  1.00  0.00    -0.271 NA
HETATM   25  C   UNL     1       5.958  32.536  61.811  1.00  0.00     0.146 A 
ENDBRANCH   3  19
TORSDOF 6
ENDMDL
MODEL 9
REMARK VINA RESULT:      -7.4      2.129      3.011
REMARK  6 active torsions:
REMARK  status: ('A' for Active; 'I' for Inactive)
REMARK    1  A    between atoms: C_2  and  C_3 
REMARK    2  A    between atoms: C_3  and  O_4 
REMARK    3  A    between atoms: C_3  and  C_12 
REMARK    4  A    between atoms: O_4  and  C_5 
REMARK    5  A    between atoms: C_12  and  N_13 
REMARK       I    between atoms: N_13  and  C_14 
REMARK       I    between atoms: C_14  and  N_15 
REMARK    6  A    between atoms: N_15  and  C_16 
ROOT
HETATM    1  N   UNL     1       8.238  28.655  57.683  1.00  0.00    -0.340 N 
HETATM    2  C   UNL     1       7.540  29.667  58.312  1.00  0.00     0.320 C 
HETATM    3  N   UNL     1       8.176  30.058  59.471  1.00  0.00    -0.307 N 
HETATM    4  O   UNL     1       6.494  30.119  57.872  1.00  0.00    -0.247 OA
HETATM    5  H   UNL     1       9.139  28.390  58.046  1.00  0.00     0.164 HD
HETATM    6  H   UNL     1       9.033  29.579  59.683  1.00  0.00     0.170 HD
ENDROOT
BRANCH   1   7
HETATM    7  C   UNL     1       7.916  28.242  56.321  1.00  0.00     0.156 C 
BRANCH   7   8
HETATM    8  C   UNL     1       7.233  26.856  56.302  1.00  0.00     0.146 C 
BRANCH   8   9
HETATM    9  C   UNL     1       5.709  26.959  56.466  1.00  0.00     0.029 C 
HETATM   10  C   UNL     1       5.046  27.897  55.470  1.00  0.00     0.007 C 
ENDBRANCH   8   9
BRANCH   8  11
HETATM   11  O   UNL     1       7.510  26.262  55.025  1.00  0.00    -0.343 OA
BRANCH  11  12
HETATM   12  C   UNL     1       7.557  24.904  54.876  1.00  0.00     0.091 A 
HETATM   13  C   UNL     1       7.677  24.424  53.560  1.00  0.00     0.067 A 
HETATM   14 CL   UNL     1       7.710  25.501  52.206  1.00  0.00    -0.081 Cl
HETATM   15  C   UNL     1       7.757  23.053  53.300  1.00  0.00     0.026 A 
HETATM   16  C   UNL     1       7.727  22.142  54.354  1.00  0.00     0.002 A 
HETATM   17  C   UNL     1       7.615  22.605  55.662  1.00  0.00     0.003 A 
HETATM   18  C   UNL     1       7.530  23.978  55.924  1.00  0.00     0.038 A 
ENDBRANCH  11  12
ENDBRANCH   8  11
ENDBRANCH   7   8
ENDBRANCH   1   7
BRANCH   3  19
HETATM   19  C   UNL     1       7.785  31.086  60.360  1.00  0.00     0.059 A 
HETATM   20  C   UNL     1       8.409  31.180  61.620  1.00  0.00    -0.032 A 
HETATM   21  C   UNL     1       9.491  30.232  62.060  1.00  0.00     0.050 C 
HETATM   22  C   UNL     1       8.018  32.202  62.495  1.00  0.00     0.028 A 
HETATM   23  C   UNL     1       7.030  33.088  62.100  1.00  0.00     0.117 A 
HETATM   24  N   UNL     1       6.413  33.027  60.908  1.00  0.00    -0.271 NA
HETATM   25  C   UNL     1       6.804  32.035  60.065  1.00  0.00     0.146 A 
ENDBRANCH   3  19
TORSDOF 6
ENDMDL
MODEL 10
REMARK VINA RESULT:      -7.4      1.991      2.749
REMARK  6 active torsions:
REMARK  status: ('A' for Active; 'I' for Inactive)
REMARK    1  A    between atoms: C_2  and  C_3 
REMARK    2  A    between atoms: C_3  and  O_4 
REMARK    3  A    between atoms: C_3  and  C_12 
REMARK    4  A    between atoms: O_4  and  C_5 
REMARK    5  A    between atoms: C_12  and  N_13 
REMARK       I    between atoms: N_13  and  C_14 
REMARK       I    between atoms: C_14  and  N_15 
REMARK    6  A    between atoms: N_15  and  C_16 
ROOT
HETATM    1  N   UNL     1       5.891  27.764  54.323  1.00  0.00    -0.340 N 
HETATM    2  C   UNL     1       5.855  28.170  55.642  1.00  0.00     0.320 C 
HETATM    3  N   UNL     1       6.897  29.027  55.923  1.00  0.00    -0.307 N 
HETATM    4  O   UNL     1       4.999  27.789  56.427  1.00  0.00    -0.247 OA
HETATM    5  H   UNL     1       6.565  28.184  53.705  1.00  0.00     0.164 HD
HETATM    6  H   UNL     1       7.510  29.238  55.155  1.00  0.00     0.170 HD
ENDROOT
BRANCH   1   7
HETATM    7  C   UNL     1       4.766  27.063  53.713  1.00  0.00     0.156 C 
BRANCH   7   8
HETATM    8  C   UNL     1       5.119  25.588  53.413  1.00  0.00     0.146 C 
BRANCH   8   9
HETATM    9  C   UNL     1       4.819  25.206  51.956  1.00  0.00     0.029 C 
HETATM   10  C   UNL     1       5.516  26.087  50.934  1.00  0.00     0.007 C 
ENDBRANCH   8   9
BRANCH   8  11
HETATM   11  O   UNL     1       6.527  25.433  53.640  1.00  0.00    -0.343 OA
BRANCH  11  12
HETATM   12  C   UNL     1       7.074  24.199  53.859  1.00  0.00     0.091 A 
HETATM   13  C   UNL     1       7.044  23.728  55.183  1.00  0.00     0.067 A 
HETATM   14 CL   UNL     1       6.397  24.690  56.468  1.00  0.00    -0.081 Cl
HETATM   15  C   UNL     1       7.556  22.469  55.509  1.00  0.00     0.026 A 
HETATM   16  C   UNL     1       8.095  21.658  54.513  1.00  0.00     0.002 A 
HETATM   17  C   UNL     1       8.124  22.109  53.196  1.00  0.00     0.003 A 
HETATM   18  C   UNL     1       7.617  23.373  52.869  1.00  0.00     0.038 A 
ENDBRANCH  11  12
ENDBRANCH   8  11
ENDBRANCH   7   8
ENDBRANCH   1   7
BRANCH   3  19
HETATM   19  C   UNL     1       7.168  29.677  57.150  1.00  0.00     0.059 A 
HETATM   20  C   UNL     1       6.448  30.842  57.483  1.00  0.00    -0.032 A 
HETATM   21  C   UNL     1       5.388  31.424  56.588  1.00  0.00     0.050 C 
HETATM   22  C   UNL     1       6.720  31.480  58.702  1.00  0.00     0.028 A 
HETATM   23  C   UNL     1       7.686  30.951  59.540  1.00  0.00     0.117 A 
HETATM   24  N   UNL     1       8.391  29.843  59.253  1.00  0.00    -0.271 NA
HETATM   25  C   UNL     1       8.115  29.230  58.072  1.00  0.00     0.146 A 
ENDBRANCH   3  19
TORSDOF 6
ENDMDL
