MODEL 1
REMARK VINA RESULT:      -9.5      0.000      0.000
REMARK  5 active torsions:
REMARK  status: ('A' for Active; 'I' for Inactive)
REMARK    1  A    between atoms: O_2  and  C_3 
REMARK    2  A    between atoms: C_6  and  C_7 
REMARK    3  A    between atoms: C_12  and  C_13 
REMARK    4  A    between atoms: N_14  and  N_15 
REMARK       I    between atoms: N_15  and  C_16 
REMARK    5  A    between atoms: C_16  and  C_17 
ROOT
HETATM    1  C   UNL     1       8.614  29.121  57.211  1.00  0.00     0.154 C 
HETATM    2  N   UNL     1       9.217  29.838  58.108  1.00  0.00    -0.183 NA
ENDROOT
BRANCH   1   3
HETATM    3  C   UNL     1       7.266  28.600  57.251  1.00  0.00     0.031 A 
HETATM    4  C   UNL     1       6.711  27.303  56.995  1.00  0.00     0.100 A 
HETATM    5  N   UNL     1       5.383  27.314  57.209  1.00  0.00    -0.174 NA
HETATM    6  N   UNL     1       5.084  28.586  57.486  1.00  0.00    -0.288 N 
HETATM    7  H   UNL     1       4.111  28.827  57.647  1.00  0.00     0.188 HD
HETATM    8  C   UNL     1       6.171  29.399  57.519  1.00  0.00     0.124 A 
BRANCH   4   9
HETATM    9  C   UNL     1       7.363  26.057  56.572  1.00  0.00    -0.005 A 
HETATM   10  C   UNL     1       7.192  25.533  55.287  1.00  0.00     0.016 A 
HETATM   11  C   UNL     1       7.859  24.364  54.902  1.00  0.00     0.037 A 
HETATM   12  C   UNL     1       8.696  23.692  55.793  1.00  0.00     0.068 A 
HETATM   13  C   UNL     1       8.851  24.189  57.085  1.00  0.00     0.037 A 
HETATM   14  C   UNL     1       8.187  25.360  57.470  1.00  0.00     0.016 A 
BRANCH  12  15
HETATM   15  O   UNL     1       9.290  22.569  55.288  1.00  0.00    -0.356 OA
HETATM   16  C   UNL     1       8.841  22.123  54.015  1.00  0.00     0.210 C 
ENDBRANCH  12  15
ENDBRANCH   4   9
ENDBRANCH   1   3
BRANCH   2  17
HETATM   17  N   UNL     1       8.557  30.260  59.224  1.00  0.00    -0.243 N 
HETATM   18  C   UNL     1       8.731  31.569  59.656  1.00  0.00     0.271 C 
HETATM   19  O   UNL     1       9.401  32.403  59.051  1.00  0.00    -0.266 OA
HETATM   20  H   UNL     1       7.981  29.602  59.725  1.00  0.00     0.192 HD
BRANCH  18  21
HETATM   21  C   UNL     1       8.068  31.966  60.941  1.00  0.00     0.036 A 
HETATM   22  C   UNL     1       6.701  32.296  60.879  1.00  0.00     0.057 A 
HETATM   23  C   UNL     1       6.066  32.688  62.038  1.00  0.00     0.106 A 
HETATM   24  C   UNL     1       6.730  32.761  63.237  1.00  0.00     0.105 A 
HETATM   25  O   UNL     1       4.758  33.043  62.147  1.00  0.00    -0.323 OA
HETATM   26  O   UNL     1       5.926  33.173  64.254  1.00  0.00    -0.323 OA
HETATM   27  C   UNL     1       8.064  32.442  63.344  1.00  0.00     0.041 A 
HETATM   28  C   UNL     1       4.676  33.354  63.553  1.00  0.00     0.352 A 
HETATM   29  C   UNL     1       8.740  32.038  62.184  1.00  0.00     0.020 A 
ENDBRANCH  18  21
ENDBRANCH   2  17
TORSDOF 5
ENDMDL
MODEL 2
REMARK VINA RESULT:      -9.5      3.065      9.420
REMARK  5 active torsions:
REMARK  status: ('A' for Active; 'I' for Inactive)
REMARK    1  A    between atoms: O_2  and  C_3 
REMARK    2  A    between atoms: C_6  and  C_7 
REMARK    3  A    between atoms: C_12  and  C_13 
REMARK    4  A    between atoms: N_14  and  N_15 
REMARK       I    between atoms: N_15  and  C_16 
REMARK    5  A    between atoms: C_16  and  C_17 
ROOT
HETATM    1  C   UNL     1       6.863  28.271  54.098  1.00  0.00     0.154 C 
HETATM    2  N   UNL     1       7.609  27.412  53.476  1.00  0.00    -0.183 NA
ENDROOT
BRANCH   1   3
HETATM    3  C   UNL     1       6.059  28.057  55.280  1.00  0.00     0.031 A 
HETATM    4  C   UNL     1       6.159  28.532  56.629  1.00  0.00     0.100 A 
HETATM    5  N   UNL     1       5.126  28.075  57.362  1.00  0.00    -0.174 NA
HETATM    6  N   UNL     1       4.454  27.259  56.546  1.00  0.00    -0.288 N 
HETATM    7  H   UNL     1       3.644  26.770  56.916  1.00  0.00     0.188 HD
HETATM    8  C   UNL     1       4.971  27.206  55.292  1.00  0.00     0.124 A 
BRANCH   4   9
HETATM    9  C   UNL     1       7.163  29.398  57.261  1.00  0.00    -0.005 A 
HETATM   10  C   UNL     1       6.803  30.470  58.082  1.00  0.00     0.016 A 
HETATM   11  C   UNL     1       7.786  31.251  58.701  1.00  0.00     0.037 A 
HETATM   12  C   UNL     1       9.141  30.986  58.503  1.00  0.00     0.068 A 
HETATM   13  C   UNL     1       9.512  29.938  57.663  1.00  0.00     0.037 A 
HETATM   14  C   UNL     1       8.529  29.153  57.046  1.00  0.00     0.016 A 
BRANCH  12  15
HETATM   15  O   UNL     1       9.994  31.820  59.170  1.00  0.00    -0.356 OA
HETATM   16  C   UNL     1       9.630  32.183  60.496  1.00  0.00     0.210 C 
ENDBRANCH  12  15
ENDBRANCH   4   9
ENDBRANCH   1   3
BRANCH   2  17
HETATM   17  N   UNL     1       7.770  26.147  53.960  1.00  0.00    -0.243 N 
HETATM   18  C   UNL     1       7.858  25.089  53.065  1.00  0.00     0.271 C 
HETATM   19  O   UNL     1       7.864  25.227  51.844  1.00  0.00    -0.266 OA
HETATM   20  H   UNL     1       7.793  26.009  54.959  1.00  0.00     0.192 HD
BRANCH  18  21
HETATM   21  C   UNL     1       7.936  23.705  53.637  1.00  0.00     0.036 A 
HETATM   22  C   UNL     1       8.193  23.598  55.017  1.00  0.00     0.057 A 
HETATM   23  C   UNL     1       8.293  22.340  55.572  1.00  0.00     0.106 A 
HETATM   24  C   UNL     1       8.148  21.203  54.817  1.00  0.00     0.105 A 
HETATM   25  O   UNL     1       8.541  22.065  56.881  1.00  0.00    -0.323 OA
HETATM   26  O   UNL     1       8.288  20.067  55.552  1.00  0.00    -0.323 OA
HETATM   27  C   UNL     1       7.890  21.262  53.466  1.00  0.00     0.041 A 
HETATM   28  C   UNL     1       8.542  20.623  56.861  1.00  0.00     0.352 A 
HETATM   29  C   UNL     1       7.781  22.526  52.871  1.00  0.00     0.020 A 
ENDBRANCH  18  21
ENDBRANCH   2  17
TORSDOF 5
ENDMDL
MODEL 3
REMARK VINA RESULT:      -9.5      2.529      9.186
REMARK  5 active torsions:
REMARK  status: ('A' for Active; 'I' for Inactive)
REMARK    1  A    between atoms: O_2  and  C_3 
REMARK    2  A    between atoms: C_6  and  C_7 
REMARK    3  A    between atoms: C_12  and  C_13 
REMARK    4  A    between atoms: N_14  and  N_15 
REMARK       I    between atoms: N_15  and  C_16 
REMARK    5  A    between atoms: C_16  and  C_17 
ROOT
HETATM    1  C   UNL     1       9.464  32.468  60.424  1.00  0.00     0.154 C 
HETATM    2  N   UNL     1       9.343  32.307  59.143  1.00  0.00    -0.183 NA
ENDROOT
BRANCH   1   3
HETATM    3  C   UNL     1       9.047  31.566  61.475  1.00  0.00     0.031 A 
HETATM    4  C   UNL     1       8.175  31.717  62.602  1.00  0.00     0.100 A 
HETATM    5  N   UNL     1       8.076  30.555  63.274  1.00  0.00    -0.174 NA
HETATM    6  N   UNL     1       8.929  29.726  62.665  1.00  0.00    -0.288 N 
HETATM    7  H   UNL     1       9.040  28.790  63.041  1.00  0.00     0.188 HD
HETATM    8  C   UNL     1       9.541  30.281  61.587  1.00  0.00     0.124 A 
BRANCH   4   9
HETATM    9  C   UNL     1       7.424  32.887  63.074  1.00  0.00    -0.005 A 
HETATM   10  C   UNL     1       6.650  33.667  62.209  1.00  0.00     0.016 A 
HETATM   11  C   UNL     1       5.915  34.753  62.698  1.00  0.00     0.037 A 
HETATM   12  C   UNL     1       5.948  35.088  64.052  1.00  0.00     0.068 A 
HETATM   13  C   UNL     1       6.739  34.336  64.918  1.00  0.00     0.037 A 
HETATM   14  C   UNL     1       7.472  33.247  64.431  1.00  0.00     0.016 A 
BRANCH  12  15
HETATM   15  O   UNL     1       5.181  36.165  64.396  1.00  0.00    -0.356 OA
HETATM   16  C   UNL     1       3.894  36.255  63.797  1.00  0.00     0.210 C 
ENDBRANCH  12  15
ENDBRANCH   4   9
ENDBRANCH   1   3
BRANCH   2  17
HETATM   17  N   UNL     1       8.838  31.150  58.628  1.00  0.00    -0.243 N 
HETATM   18  C   UNL     1       7.483  31.081  58.329  1.00  0.00     0.271 C 
HETATM   19  O   UNL     1       6.711  32.031  58.439  1.00  0.00    -0.266 OA
HETATM   20  H   UNL     1       9.455  30.363  58.504  1.00  0.00     0.192 HD
BRANCH  18  21
HETATM   21  C   UNL     1       6.946  29.762  57.859  1.00  0.00     0.036 A 
HETATM   22  C   UNL     1       7.754  28.630  58.073  1.00  0.00     0.057 A 
HETATM   23  C   UNL     1       7.300  27.405  57.633  1.00  0.00     0.106 A 
HETATM   24  C   UNL     1       6.091  27.267  56.999  1.00  0.00     0.105 A 
HETATM   25  O   UNL     1       7.959  26.222  57.758  1.00  0.00    -0.323 OA
HETATM   26  O   UNL     1       5.834  25.980  56.641  1.00  0.00    -0.323 OA
HETATM   27  C   UNL     1       5.267  28.346  56.774  1.00  0.00     0.041 A 
HETATM   28  C   UNL     1       7.026  25.323  57.122  1.00  0.00     0.352 A 
HETATM   29  C   UNL     1       5.698  29.606  57.210  1.00  0.00     0.020 A 
ENDBRANCH  18  21
ENDBRANCH   2  17
TORSDOF 5
ENDMDL
MODEL 4
REMARK VINA RESULT:      -9.3      2.982      4.665
REMARK  5 active torsions:
REMARK  status: ('A' for Active; 'I' for Inactive)
REMARK    1  A    between atoms: O_2  and  C_3 
REMARK    2  A    between atoms: C_6  and  C_7 
REMARK    3  A    between atoms: C_12  and  C_13 
REMARK    4  A    between atoms: N_14  and  N_15 
REMARK       I    between atoms: N_15  and  C_16 
REMARK    5  A    between atoms: C_16  and  C_17 
ROOT
HETATM    1  C   UNL     1       5.001  26.124  55.691  1.00  0.00     0.154 C 
HETATM    2  N   UNL     1       5.166  26.755  56.812  1.00  0.00    -0.183 NA
ENDROOT
BRANCH   1   3
HETATM    3  C   UNL     1       5.647  26.384  54.423  1.00  0.00     0.031 A 
HETATM    4  C   UNL     1       6.635  25.673  53.666  1.00  0.00     0.100 A 
HETATM    5  N   UNL     1       6.886  26.314  52.510  1.00  0.00    -0.174 NA
HETATM    6  N   UNL     1       6.169  27.439  52.571  1.00  0.00    -0.288 N 
HETATM    7  H   UNL     1       6.242  28.098  51.802  1.00  0.00     0.188 HD
HETATM    8  C   UNL     1       5.415  27.535  53.695  1.00  0.00     0.124 A 
BRANCH   4   9
HETATM    9  C   UNL     1       7.346  24.424  53.967  1.00  0.00    -0.005 A 
HETATM   10  C   UNL     1       7.358  23.347  53.074  1.00  0.00     0.016 A 
HETATM   11  C   UNL     1       8.078  22.185  53.374  1.00  0.00     0.037 A 
HETATM   12  C   UNL     1       8.787  22.070  54.570  1.00  0.00     0.068 A 
HETATM   13  C   UNL     1       8.758  23.125  55.480  1.00  0.00     0.037 A 
HETATM   14  C   UNL     1       8.041  24.290  55.180  1.00  0.00     0.016 A 
BRANCH  12  15
HETATM   15  O   UNL     1       9.450  20.887  54.734  1.00  0.00    -0.356 OA
HETATM   16  C   UNL     1       9.333  20.254  56.002  1.00  0.00     0.210 C 
ENDBRANCH  12  15
ENDBRANCH   4   9
ENDBRANCH   1   3
BRANCH   2  17
HETATM   17  N   UNL     1       6.090  27.751  56.924  1.00  0.00    -0.243 N 
HETATM   18  C   UNL     1       7.297  27.485  57.558  1.00  0.00     0.271 C 
HETATM   19  O   UNL     1       7.617  26.373  57.974  1.00  0.00    -0.266 OA
HETATM   20  H   UNL     1       5.862  28.667  56.568  1.00  0.00     0.192 HD
BRANCH  18  21
HETATM   21  C   UNL     1       8.245  28.630  57.749  1.00  0.00     0.036 A 
HETATM   22  C   UNL     1       7.956  29.532  58.791  1.00  0.00     0.057 A 
HETATM   23  C   UNL     1       8.794  30.609  58.980  1.00  0.00     0.106 A 
HETATM   24  C   UNL     1       9.893  30.819  58.185  1.00  0.00     0.105 A 
HETATM   25  O   UNL     1       8.653  31.569  59.934  1.00  0.00    -0.323 OA
HETATM   26  O   UNL     1      10.583  31.938  58.534  1.00  0.00    -0.323 OA
HETATM   27  C   UNL     1      10.216  29.960  57.160  1.00  0.00     0.041 A 
HETATM   28  C   UNL     1       9.787  32.411  59.642  1.00  0.00     0.352 A 
HETATM   29  C   UNL     1       9.384  28.853  56.941  1.00  0.00     0.020 A 
ENDBRANCH  18  21
ENDBRANCH   2  17
TORSDOF 5
ENDMDL
MODEL 5
REMARK VINA RESULT:      -9.2      5.619     10.506
REMARK  5 active torsions:
REMARK  status: ('A' for Active; 'I' for Inactive)
REMARK    1  A    between atoms: O_2  and  C_3 
REMARK    2  A    between atoms: C_6  and  C_7 
REMARK    3  A    between atoms: C_12  and  C_13 
REMARK    4  A    between atoms: N_14  and  N_15 
REMARK       I    between atoms: N_15  and  C_16 
REMARK    5  A    between atoms: C_16  and  C_17 
ROOT
HETATM    1  C   UNL     1       2.588  34.228  63.065  1.00  0.00     0.154 C 
HETATM    2  N   UNL     1       3.065  33.092  62.659  1.00  0.00    -0.183 NA
ENDROOT
BRANCH   1   3
HETATM    3  C   UNL     1       3.248  35.514  63.076  1.00  0.00     0.031 A 
HETATM    4  C   UNL     1       4.228  36.102  63.942  1.00  0.00     0.100 A 
HETATM    5  N   UNL     1       4.562  37.329  63.503  1.00  0.00    -0.174 NA
HETATM    6  N   UNL     1       3.755  37.560  62.464  1.00  0.00    -0.288 N 
HETATM    7  H   UNL     1       3.815  38.460  61.998  1.00  0.00     0.188 HD
HETATM    8  C   UNL     1       2.945  36.511  62.168  1.00  0.00     0.124 A 
BRANCH   4   9
HETATM    9  C   UNL     1       4.873  35.569  65.149  1.00  0.00    -0.005 A 
HETATM   10  C   UNL     1       4.531  36.018  66.428  1.00  0.00     0.016 A 
HETATM   11  C   UNL     1       5.136  35.460  67.561  1.00  0.00     0.037 A 
HETATM   12  C   UNL     1       6.098  34.457  67.438  1.00  0.00     0.068 A 
HETATM   13  C   UNL     1       6.467  34.023  66.168  1.00  0.00     0.037 A 
HETATM   14  C   UNL     1       5.860  34.577  65.034  1.00  0.00     0.016 A 
BRANCH  12  15
HETATM   15  O   UNL     1       6.603  33.998  68.622  1.00  0.00    -0.356 OA
HETATM   16  C   UNL     1       5.946  34.424  69.809  1.00  0.00     0.210 C 
ENDBRANCH  12  15
ENDBRANCH   4   9
ENDBRANCH   1   3
BRANCH   2  17
HETATM   17  N   UNL     1       4.304  33.015  62.096  1.00  0.00    -0.243 N 
HETATM   18  C   UNL     1       5.197  32.057  62.559  1.00  0.00     0.271 C 
HETATM   19  O   UNL     1       4.915  31.218  63.412  1.00  0.00    -0.266 OA
HETATM   20  H   UNL     1       4.552  33.676  61.376  1.00  0.00     0.192 HD
BRANCH  18  21
HETATM   21  C   UNL     1       6.581  32.068  61.984  1.00  0.00     0.036 A 
HETATM   22  C   UNL     1       6.695  31.932  60.588  1.00  0.00     0.057 A 
HETATM   23  C   UNL     1       7.955  31.915  60.029  1.00  0.00     0.106 A 
HETATM   24  C   UNL     1       9.088  32.029  60.795  1.00  0.00     0.105 A 
HETATM   25  O   UNL     1       8.235  31.786  58.704  1.00  0.00    -0.323 OA
HETATM   26  O   UNL     1      10.226  31.984  60.052  1.00  0.00    -0.323 OA
HETATM   27  C   UNL     1       9.023  32.170  62.163  1.00  0.00     0.041 A 
HETATM   28  C   UNL     1       9.677  31.826  58.726  1.00  0.00     0.352 A 
HETATM   29  C   UNL     1       7.756  32.192  62.763  1.00  0.00     0.020 A 
ENDBRANCH  18  21
ENDBRANCH   2  17
TORSDOF 5
ENDMDL
MODEL 6
REMARK VINA RESULT:      -9.2      2.058      3.144
REMARK  5 active torsions:
REMARK  status: ('A' for Active; 'I' for Inactive)
REMARK    1  A    between atoms: O_2  and  C_3 
REMARK    2  A    between atoms: C_6  and  C_7 
REMARK    3  A    between atoms: C_12  and  C_13 
REMARK    4  A    between atoms: N_14  and  N_15 
REMARK       I    between atoms: N_15  and  C_16 
REMARK    5  A    between atoms: C_16  and  C_17 
ROOT
HETATM    1  C   UNL     1       7.148  27.554  54.577  1.00  0.00     0.154 C 
HETATM    2  N   UNL     1       7.719  28.706  54.742  1.00  0.00    -0.183 NA
ENDROOT
BRANCH   1   3
HETATM    3  C   UNL     1       6.251  26.869  55.480  1.00  0.00     0.031 A 
HETATM    4  C   UNL     1       6.104  25.494  55.857  1.00  0.00     0.100 A 
HETATM    5  N   UNL     1       5.134  25.364  56.780  1.00  0.00    -0.174 NA
HETATM    6  N   UNL     1       4.611  26.587  56.912  1.00  0.00    -0.288 N 
HETATM    7  H   UNL     1       3.826  26.708  57.544  1.00  0.00     0.188 HD
HETATM    8  C   UNL     1       5.237  27.523  56.154  1.00  0.00     0.124 A 
BRANCH   4   9
HETATM    9  C   UNL     1       6.831  24.301  55.403  1.00  0.00    -0.005 A 
HETATM   10  C   UNL     1       6.796  23.877  54.071  1.00  0.00     0.016 A 
HETATM   11  C   UNL     1       7.533  22.759  53.663  1.00  0.00     0.037 A 
HETATM   12  C   UNL     1       8.304  22.038  54.575  1.00  0.00     0.068 A 
HETATM   13  C   UNL     1       8.323  22.435  55.910  1.00  0.00     0.037 A 
HETATM   14  C   UNL     1       7.590  23.556  56.319  1.00  0.00     0.016 A 
BRANCH  12  15
HETATM   15  O   UNL     1       8.977  20.974  54.044  1.00  0.00    -0.356 OA
HETATM   16  C   UNL     1       8.429  20.389  52.869  1.00  0.00     0.210 C 
ENDBRANCH  12  15
ENDBRANCH   4   9
ENDBRANCH   1   3
BRANCH   2  17
HETATM   17  N   UNL     1       7.447  29.469  55.839  1.00  0.00    -0.243 N 
HETATM   18  C   UNL     1       8.373  29.519  56.873  1.00  0.00     0.271 C 
HETATM   19  O   UNL     1       9.469  28.962  56.834  1.00  0.00    -0.266 OA
HETATM   20  H   UNL     1       6.566  29.957  55.884  1.00  0.00     0.192 HD
BRANCH  18  21
HETATM   21  C   UNL     1       7.995  30.289  58.103  1.00  0.00     0.036 A 
HETATM   22  C   UNL     1       8.818  30.130  59.234  1.00  0.00     0.057 A 
HETATM   23  C   UNL     1       8.486  30.805  60.389  1.00  0.00     0.106 A 
HETATM   24  C   UNL     1       7.385  31.621  60.458  1.00  0.00     0.105 A 
HETATM   25  O   UNL     1       9.171  30.756  61.563  1.00  0.00    -0.323 OA
HETATM   26  O   UNL     1       7.233  32.188  61.685  1.00  0.00    -0.323 OA
HETATM   27  C   UNL     1       6.557  31.810  59.375  1.00  0.00     0.041 A 
HETATM   28  C   UNL     1       8.369  31.631  62.382  1.00  0.00     0.352 A 
HETATM   29  C   UNL     1       6.867  31.138  58.185  1.00  0.00     0.020 A 
ENDBRANCH  18  21
ENDBRANCH   2  17
TORSDOF 5
ENDMDL
MODEL 7
REMARK VINA RESULT:      -9.1      5.752      8.550
REMARK  5 active torsions:
REMARK  status: ('A' for Active; 'I' for Inactive)
REMARK    1  A    between atoms: O_2  and  C_3 
REMARK    2  A    between atoms: C_6  and  C_7 
REMARK    3  A    between atoms: C_12  and  C_13 
REMARK    4  A    between atoms: N_14  and  N_15 
REMARK       I    between atoms: N_15  and  C_16 
REMARK    5  A    between atoms: C_16  and  C_17 
ROOT
HETATM    1  C   UNL     1       7.680  27.720  55.999  1.00  0.00     0.154 C 
HETATM    2  N   UNL     1       7.782  28.506  54.973  1.00  0.00    -0.183 NA
ENDROOT
BRANCH   1   3
HETATM    3  C   UNL     1       6.555  26.895  56.377  1.00  0.00     0.031 A 
HETATM    4  C   UNL     1       6.245  25.510  56.171  1.00  0.00     0.100 A 
HETATM    5  N   UNL     1       5.075  25.202  56.759  1.00  0.00    -0.174 NA
HETATM    6  N   UNL     1       4.605  26.360  57.230  1.00  0.00    -0.288 N 
HETATM    7  H   UNL     1       3.698  26.360  57.687  1.00  0.00     0.188 HD
HETATM    8  C   UNL     1       5.446  27.405  57.024  1.00  0.00     0.124 A 
BRANCH   4   9
HETATM    9  C   UNL     1       6.993  24.464  55.462  1.00  0.00    -0.005 A 
HETATM   10  C   UNL     1       8.098  23.828  56.036  1.00  0.00     0.016 A 
HETATM   11  C   UNL     1       8.765  22.807  55.349  1.00  0.00     0.037 A 
HETATM   12  C   UNL     1       8.351  22.411  54.076  1.00  0.00     0.068 A 
HETATM   13  C   UNL     1       7.270  23.058  53.483  1.00  0.00     0.037 A 
HETATM   14  C   UNL     1       6.599  24.077  54.171  1.00  0.00     0.016 A 
BRANCH  12  15
HETATM   15  O   UNL     1       9.085  21.400  53.522  1.00  0.00    -0.356 OA
HETATM   16  C   UNL     1       8.360  20.347  52.900  1.00  0.00     0.210 C 
ENDBRANCH  12  15
ENDBRANCH   4   9
ENDBRANCH   1   3
BRANCH   2  17
HETATM   17  N   UNL     1       6.786  28.576  54.045  1.00  0.00    -0.243 N 
HETATM   18  C   UNL     1       6.786  27.676  52.987  1.00  0.00     0.271 C 
HETATM   19  O   UNL     1       7.602  26.765  52.866  1.00  0.00    -0.266 OA
HETATM   20  H   UNL     1       6.089  29.299  54.134  1.00  0.00     0.192 HD
BRANCH  18  21
HETATM   21  C   UNL     1       5.732  27.848  51.934  1.00  0.00     0.036 A 
HETATM   22  C   UNL     1       5.517  26.763  51.063  1.00  0.00     0.057 A 
HETATM   23  C   UNL     1       4.571  26.896  50.069  1.00  0.00     0.106 A 
HETATM   24  C   UNL     1       3.841  28.048  49.913  1.00  0.00     0.105 A 
HETATM   25  O   UNL     1       4.248  25.949  49.148  1.00  0.00    -0.323 OA
HETATM   26  O   UNL     1       2.968  27.975  48.874  1.00  0.00    -0.323 OA
HETATM   27  C   UNL     1       4.015  29.129  50.747  1.00  0.00     0.041 A 
HETATM   28  C   UNL     1       3.235  26.641  48.390  1.00  0.00     0.352 A 
HETATM   29  C   UNL     1       4.968  29.027  51.768  1.00  0.00     0.020 A 
ENDBRANCH  18  21
ENDBRANCH   2  17
TORSDOF 5
ENDMDL
MODEL 8
REMARK VINA RESULT:      -8.8      2.727      9.074
REMARK  5 active torsions:
REMARK  status: ('A' for Active; 'I' for Inactive)
REMARK    1  A    between atoms: O_2  and  C_3 
REMARK    2  A    between atoms: C_6  and  C_7 
REMARK    3  A    between atoms: C_12  and  C_13 
REMARK    4  A    between atoms: N_14  and  N_15 
REMARK       I    between atoms: N_15  and  C_16 
REMARK    5  A    between atoms: C_16  and  C_17 
ROOT
HETATM    1  C   UNL     1       9.663  32.225  60.189  1.00  0.00     0.154 C 
HETATM    2  N   UNL     1       9.590  32.050  58.906  1.00  0.00    -0.183 NA
ENDROOT
BRANCH   1   3
HETATM    3  C   UNL     1       8.988  31.479  61.226  1.00  0.00     0.031 A 
HETATM    4  C   UNL     1       7.751  31.674  61.924  1.00  0.00     0.100 A 
HETATM    5  N   UNL     1       7.538  30.664  62.787  1.00  0.00    -0.174 NA
HETATM    6  N   UNL     1       8.639  29.911  62.722  1.00  0.00    -0.288 N 
HETATM    7  H   UNL     1       8.705  29.101  63.332  1.00  0.00     0.188 HD
HETATM    8  C   UNL     1       9.541  30.355  61.810  1.00  0.00     0.124 A 
BRANCH   4   9
HETATM    9  C   UNL     1       6.757  32.750  61.814  1.00  0.00    -0.005 A 
HETATM   10  C   UNL     1       6.703  33.802  62.734  1.00  0.00     0.016 A 
HETATM   11  C   UNL     1       5.769  34.833  62.579  1.00  0.00     0.037 A 
HETATM   12  C   UNL     1       4.867  34.827  61.514  1.00  0.00     0.068 A 
HETATM   13  C   UNL     1       4.893  33.770  60.608  1.00  0.00     0.037 A 
HETATM   14  C   UNL     1       5.829  32.739  60.761  1.00  0.00     0.016 A 
BRANCH  12  15
HETATM   15  O   UNL     1       4.016  35.895  61.477  1.00  0.00    -0.356 OA
HETATM   16  C   UNL     1       4.478  37.063  60.810  1.00  0.00     0.210 C 
ENDBRANCH  12  15
ENDBRANCH   4   9
ENDBRANCH   1   3
BRANCH   2  17
HETATM   17  N   UNL     1       8.869  31.017  58.382  1.00  0.00    -0.243 N 
HETATM   18  C   UNL     1       9.523  30.057  57.621  1.00  0.00     0.271 C 
HETATM   19  O   UNL     1      10.739  30.042  57.440  1.00  0.00    -0.266 OA
HETATM   20  H   UNL     1       7.873  30.993  58.537  1.00  0.00     0.192 HD
BRANCH  18  21
HETATM   21  C   UNL     1       8.682  28.993  56.980  1.00  0.00     0.036 A 
HETATM   22  C   UNL     1       8.553  29.039  55.579  1.00  0.00     0.057 A 
HETATM   23  C   UNL     1       7.768  28.090  54.960  1.00  0.00     0.106 A 
HETATM   24  C   UNL     1       7.120  27.111  55.671  1.00  0.00     0.105 A 
HETATM   25  O   UNL     1       7.537  27.998  53.623  1.00  0.00    -0.323 OA
HETATM   26  O   UNL     1       6.397  26.280  54.874  1.00  0.00    -0.323 OA
HETATM   27  C   UNL     1       7.224  27.025  57.041  1.00  0.00     0.041 A 
HETATM   28  C   UNL     1       6.663  26.852  53.575  1.00  0.00     0.352 A 
HETATM   29  C   UNL     1       8.015  27.975  57.701  1.00  0.00     0.020 A 
ENDBRANCH  18  21
ENDBRANCH   2  17
TORSDOF 5
ENDMDL
MODEL 9
REMARK VINA RESULT:      -8.5      4.085      5.836
REMARK  5 active torsions:
REMARK  status: ('A' for Active; 'I' for Inactive)
REMARK    1  A    between atoms: O_2  and  C_3 
REMARK    2  A    between atoms: C_6  and  C_7 
REMARK    3  A    between atoms: C_12  and  C_13 
REMARK    4  A    between atoms: N_14  and  N_15 
REMARK       I    between atoms: N_15  and  C_16 
REMARK    5  A    between atoms: C_16  and  C_17 
ROOT
HETATM    1  C   UNL     1       6.224  25.917  54.852  1.00  0.00     0.154 C 
HETATM    2  N   UNL     1       7.442  25.976  55.295  1.00  0.00    -0.183 NA
ENDROOT
BRANCH   1   3
HETATM    3  C   UNL     1       5.239  26.974  54.819  1.00  0.00     0.031 A 
HETATM    4  C   UNL     1       4.560  27.644  53.749  1.00  0.00     0.100 A 
HETATM    5  N   UNL     1       3.690  28.546  54.241  1.00  0.00    -0.174 NA
HETATM    6  N   UNL     1       3.880  28.529  55.563  1.00  0.00    -0.288 N 
HETATM    7  H   UNL     1       3.341  29.172  56.135  1.00  0.00     0.188 HD
HETATM    8  C   UNL     1       4.799  27.612  55.963  1.00  0.00     0.124 A 
BRANCH   4   9
HETATM    9  C   UNL     1       4.678  27.476  52.295  1.00  0.00    -0.005 A 
HETATM   10  C   UNL     1       4.968  26.236  51.716  1.00  0.00     0.016 A 
HETATM   11  C   UNL     1       5.034  26.101  50.325  1.00  0.00     0.037 A 
HETATM   12  C   UNL     1       4.825  27.198  49.488  1.00  0.00     0.068 A 
HETATM   13  C   UNL     1       4.563  28.443  50.055  1.00  0.00     0.037 A 
HETATM   14  C   UNL     1       4.493  28.579  51.447  1.00  0.00     0.016 A 
BRANCH  12  15
HETATM   15  O   UNL     1       4.912  26.926  48.152  1.00  0.00    -0.356 OA
HETATM   16  C   UNL     1       5.390  27.971  47.313  1.00  0.00     0.210 C 
ENDBRANCH  12  15
ENDBRANCH   4   9
ENDBRANCH   1   3
BRANCH   2  17
HETATM   17  N   UNL     1       7.967  27.154  55.739  1.00  0.00    -0.243 N 
HETATM   18  C   UNL     1       8.310  27.276  57.079  1.00  0.00     0.271 C 
HETATM   19  O   UNL     1       8.229  26.356  57.891  1.00  0.00    -0.266 OA
HETATM   20  H   UNL     1       8.067  27.917  55.088  1.00  0.00     0.192 HD
BRANCH  18  21
HETATM   21  C   UNL     1       8.791  28.616  57.550  1.00  0.00     0.036 A 
HETATM   22  C   UNL     1       8.024  29.259  58.540  1.00  0.00     0.057 A 
HETATM   23  C   UNL     1       8.426  30.503  58.978  1.00  0.00     0.106 A 
HETATM   24  C   UNL     1       9.545  31.119  58.479  1.00  0.00     0.105 A 
HETATM   25  O   UNL     1       7.796  31.255  59.921  1.00  0.00    -0.323 OA
HETATM   26  O   UNL     1       9.762  32.339  59.039  1.00  0.00    -0.323 OA
HETATM   27  C   UNL     1      10.327  30.524  57.515  1.00  0.00     0.041 A 
HETATM   28  C   UNL     1       8.645  32.420  59.951  1.00  0.00     0.352 A 
HETATM   29  C   UNL     1       9.947  29.259  57.048  1.00  0.00     0.020 A 
ENDBRANCH  18  21
ENDBRANCH   2  17
TORSDOF 5
ENDMDL
MODEL 10
REMARK VINA RESULT:      -8.4      2.697      4.784
REMARK  5 active torsions:
REMARK  status: ('A' for Active; 'I' for Inactive)
REMARK    1  A    between atoms: O_2  and  C_3 
REMARK    2  A    between atoms: C_6  and  C_7 
REMARK    3  A    between atoms: C_12  and  C_13 
REMARK    4  A    between atoms: N_14  and  N_15 
REMARK       I    between atoms: N_15  and  C_16 
REMARK    5  A    between atoms: C_16  and  C_17 
ROOT
HETATM    1  C   UNL     1       9.246  28.946  56.676  1.00  0.00     0.154 C 
HETATM    2  N   UNL     1       9.664  29.895  57.455  1.00  0.00    -0.183 NA
ENDROOT
BRANCH   1   3
HETATM    3  C   UNL     1       8.110  28.073  56.871  1.00  0.00     0.031 A 
HETATM    4  C   UNL     1       6.696  28.265  56.735  1.00  0.00     0.100 A 
HETATM    5  N   UNL     1       6.043  27.117  56.995  1.00  0.00    -0.174 NA
HETATM    6  N   UNL     1       6.989  26.258  57.383  1.00  0.00    -0.288 N 
HETATM    7  H   UNL     1       6.704  25.325  57.666  1.00  0.00     0.188 HD
HETATM    8  C   UNL     1       8.242  26.778  57.333  1.00  0.00     0.124 A 
BRANCH   4   9
HETATM    9  C   UNL     1       5.930  29.462  56.364  1.00  0.00    -0.005 A 
HETATM   10  C   UNL     1       5.889  30.595  57.183  1.00  0.00     0.016 A 
HETATM   11  C   UNL     1       5.182  31.734  56.782  1.00  0.00     0.037 A 
HETATM   12  C   UNL     1       4.494  31.760  55.568  1.00  0.00     0.068 A 
HETATM   13  C   UNL     1       4.505  30.627  54.758  1.00  0.00     0.037 A 
HETATM   14  C   UNL     1       5.215  29.488  55.156  1.00  0.00     0.016 A 
BRANCH  12  15
HETATM   15  O   UNL     1       3.852  32.935  55.296  1.00  0.00    -0.356 OA
HETATM   16  C   UNL     1       2.456  32.981  55.562  1.00  0.00     0.210 C 
ENDBRANCH  12  15
ENDBRANCH   4   9
ENDBRANCH   1   3
BRANCH   2  17
HETATM   17  N   UNL     1       8.973  30.230  58.581  1.00  0.00    -0.243 N 
HETATM   18  C   UNL     1       9.197  31.469  59.167  1.00  0.00     0.271 C 
HETATM   19  O   UNL     1       9.944  32.323  58.692  1.00  0.00    -0.266 OA
HETATM   20  H   UNL     1       8.335  29.557  58.977  1.00  0.00     0.192 HD
BRANCH  18  21
HETATM   21  C   UNL     1       8.493  31.761  60.458  1.00  0.00     0.036 A 
HETATM   22  C   UNL     1       7.101  31.961  60.395  1.00  0.00     0.057 A 
HETATM   23  C   UNL     1       6.425  32.254  61.560  1.00  0.00     0.106 A 
HETATM   24  C   UNL     1       7.072  32.352  62.766  1.00  0.00     0.105 A 
HETATM   25  O   UNL     1       5.088  32.478  61.669  1.00  0.00    -0.323 OA
HETATM   26  O   UNL     1       6.227  32.653  63.788  1.00  0.00    -0.323 OA
HETATM   27  C   UNL     1       8.430  32.159  62.874  1.00  0.00     0.041 A 
HETATM   28  C   UNL     1       4.969  32.736  63.083  1.00  0.00     0.352 A 
HETATM   29  C   UNL     1       9.147  31.858  61.708  1.00  0.00     0.020 A 
ENDBRANCH  18  21
ENDBRANCH   2  17
TORSDOF 5
ENDMDL
