MODEL 1
REMARK VINA RESULT:      -8.7      0.000      0.000
REMARK  5 active torsions:
REMARK  status: ('A' for Active; 'I' for Inactive)
REMARK    1  A    between atoms: C_3  and  N_4 
REMARK       I    between atoms: N_4  and  C_5 
REMARK       I    between atoms: C_5  and  N_6 
REMARK    2  A    between atoms: N_6  and  C_7 
REMARK    3  A    between atoms: C_7  and  C_8 
REMARK    4  A    between atoms: C_8  and  C_9 
REMARK    5  A    between atoms: N_15  and  C_16 
ROOT
HETATM    1  C   UNL     1       6.109  25.569  54.924  1.00  0.00     0.054 C 
HETATM    2  C   UNL     1       7.065  26.238  55.837  1.00  0.00     0.003 A 
HETATM    3  C   UNL     1       7.785  25.702  56.933  1.00  0.00     0.159 A 
HETATM    4  N   UNL     1       8.529  26.633  57.534  1.00  0.00    -0.149 NA
HETATM    5  N   UNL     1       8.330  27.781  56.826  1.00  0.00    -0.241 N 
HETATM    6  C   UNL     1       7.425  27.569  55.814  1.00  0.00     0.129 A 
ENDROOT
BRANCH   3   7
HETATM    7  N   UNL     1       7.702  24.392  57.353  1.00  0.00    -0.291 N 
HETATM    8  C   UNL     1       8.230  23.274  56.787  1.00  0.00     0.321 C 
HETATM    9  N   UNL     1       8.821  23.412  55.569  1.00  0.00    -0.343 N 
HETATM   10  O   UNL     1       8.124  22.193  57.361  1.00  0.00    -0.247 OA
HETATM   11  H   UNL     1       8.983  24.377  55.283  1.00  0.00     0.164 HD
HETATM   12  H   UNL     1       7.207  24.208  58.212  1.00  0.00     0.172 HD
BRANCH   9  13
HETATM   13  C   UNL     1       9.505  22.331  54.891  1.00  0.00     0.133 C 
BRANCH  13  14
HETATM   14  C   UNL     1       8.834  21.948  53.579  1.00  0.00     0.137 C 
BRANCH  14  15
HETATM   15  C   UNL     1       8.239  20.569  53.681  1.00  0.00     0.389 C 
HETATM   16  F   UNL     1       7.582  20.391  54.847  1.00  0.00    -0.171 F 
HETATM   17  F   UNL     1       7.361  20.348  52.678  1.00  0.00    -0.171 F 
HETATM   18  F   UNL     1       9.196  19.618  53.599  1.00  0.00    -0.171 F 
ENDBRANCH  14  15
ENDBRANCH  13  14
ENDBRANCH   9  13
ENDBRANCH   3   7
BRANCH   5  19
HETATM   19  C   UNL     1       8.965  28.990  57.238  1.00  0.00     0.079 A 
HETATM   20  C   UNL     1       8.332  30.014  57.960  1.00  0.00     0.062 A 
HETATM   21 CL   UNL     1       6.636  30.107  58.287  1.00  0.00    -0.082 Cl
HETATM   22  C   UNL     1       9.073  31.132  58.377  1.00  0.00     0.026 A 
HETATM   23  C   UNL     1      10.428  31.252  58.071  1.00  0.00     0.002 A 
HETATM   24  C   UNL     1      11.053  30.262  57.327  1.00  0.00     0.002 A 
HETATM   25  C   UNL     1      10.330  29.145  56.907  1.00  0.00     0.033 A 
ENDBRANCH   5  19
TORSDOF 5
ENDMDL
MODEL 2
REMARK VINA RESULT:      -8.5      4.764      7.417
REMARK  5 active torsions:
REMARK  status: ('A' for Active; 'I' for Inactive)
REMARK    1  A    between atoms: C_3  and  N_4 
REMARK       I    between atoms: N_4  and  C_5 
REMARK       I    between atoms: C_5  and  N_6 
REMARK    2  A    between atoms: N_6  and  C_7 
REMARK    3  A    between atoms: C_7  and  C_8 
REMARK    4  A    between atoms: C_8  and  C_9 
REMARK    5  A    between atoms: N_15  and  C_16 
ROOT
HETATM    1  C   UNL     1       7.039  27.240  57.376  1.00  0.00     0.054 C 
HETATM    2  C   UNL     1       6.876  26.135  56.402  1.00  0.00     0.003 A 
HETATM    3  C   UNL     1       5.958  26.010  55.331  1.00  0.00     0.159 A 
HETATM    4  N   UNL     1       6.102  24.846  54.693  1.00  0.00    -0.149 NA
HETATM    5  N   UNL     1       7.131  24.207  55.318  1.00  0.00    -0.241 N 
HETATM    6  C   UNL     1       7.593  24.957  56.373  1.00  0.00     0.129 A 
ENDROOT
BRANCH   3   7
HETATM    7  N   UNL     1       5.007  26.954  55.006  1.00  0.00    -0.291 N 
HETATM    8  C   UNL     1       4.629  27.403  53.779  1.00  0.00     0.321 C 
HETATM    9  N   UNL     1       5.354  26.980  52.708  1.00  0.00    -0.343 N 
HETATM   10  O   UNL     1       3.691  28.192  53.682  1.00  0.00    -0.247 OA
HETATM   11  H   UNL     1       5.993  26.210  52.908  1.00  0.00     0.164 HD
HETATM   12  H   UNL     1       4.485  27.370  55.761  1.00  0.00     0.172 HD
BRANCH   9  13
HETATM   13  C   UNL     1       5.011  27.301  51.339  1.00  0.00     0.133 C 
BRANCH  13  14
HETATM   14  C   UNL     1       5.041  26.081  50.429  1.00  0.00     0.137 C 
BRANCH  14  15
HETATM   15  C   UNL     1       4.241  26.343  49.181  1.00  0.00     0.389 C 
HETATM   16  F   UNL     1       3.460  25.291  48.857  1.00  0.00    -0.171 F 
HETATM   17  F   UNL     1       3.437  27.417  49.341  1.00  0.00    -0.171 F 
HETATM   18  F   UNL     1       5.049  26.595  48.127  1.00  0.00    -0.171 F 
ENDBRANCH  14  15
ENDBRANCH  13  14
ENDBRANCH   9  13
ENDBRANCH   3   7
BRANCH   5  19
HETATM   19  C   UNL     1       7.519  22.901  54.895  1.00  0.00     0.079 A 
HETATM   20  C   UNL     1       7.919  22.574  53.589  1.00  0.00     0.062 A 
HETATM   21 CL   UNL     1       7.803  23.619  52.216  1.00  0.00    -0.082 Cl
HETATM   22  C   UNL     1       8.349  21.269  53.299  1.00  0.00     0.026 A 
HETATM   23  C   UNL     1       8.371  20.283  54.285  1.00  0.00     0.002 A 
HETATM   24  C   UNL     1       7.944  20.588  55.570  1.00  0.00     0.002 A 
HETATM   25  C   UNL     1       7.514  21.881  55.872  1.00  0.00     0.033 A 
ENDBRANCH   5  19
TORSDOF 5
ENDMDL
MODEL 3
REMARK VINA RESULT:      -8.4      4.874      7.505
REMARK  5 active torsions:
REMARK  status: ('A' for Active; 'I' for Inactive)
REMARK    1  A    between atoms: C_3  and  N_4 
REMARK       I    between atoms: N_4  and  C_5 
REMARK       I    between atoms: C_5  and  N_6 
REMARK    2  A    between atoms: N_6  and  C_7 
REMARK    3  A    between atoms: C_7  and  C_8 
REMARK    4  A    between atoms: C_8  and  C_9 
REMARK    5  A    between atoms: N_15  and  C_16 
ROOT
HETATM    1  C   UNL     1       6.981  27.116  57.047  1.00  0.00     0.054 C 
HETATM    2  C   UNL     1       6.872  25.977  56.106  1.00  0.00     0.003 A 
HETATM    3  C   UNL     1       5.955  25.773  55.046  1.00  0.00     0.159 A 
HETATM    4  N   UNL     1       6.157  24.601  54.440  1.00  0.00    -0.149 NA
HETATM    5  N   UNL     1       7.222  24.034  55.075  1.00  0.00    -0.241 N 
HETATM    6  C   UNL     1       7.649  24.838  56.105  1.00  0.00     0.129 A 
ENDROOT
BRANCH   3   7
HETATM    7  N   UNL     1       4.954  26.656  54.701  1.00  0.00    -0.291 N 
HETATM    8  C   UNL     1       4.628  27.146  53.475  1.00  0.00     0.321 C 
HETATM    9  N   UNL     1       5.460  26.847  52.441  1.00  0.00    -0.343 N 
HETATM   10  O   UNL     1       3.636  27.862  53.350  1.00  0.00    -0.247 OA
HETATM   11  H   UNL     1       6.146  26.120  52.646  1.00  0.00     0.164 HD
HETATM   12  H   UNL     1       4.346  26.983  55.435  1.00  0.00     0.172 HD
BRANCH   9  13
HETATM   13  C   UNL     1       5.189  27.221  51.069  1.00  0.00     0.133 C 
BRANCH  13  14
HETATM   14  C   UNL     1       4.934  26.016  50.176  1.00  0.00     0.137 C 
BRANCH  14  15
HETATM   15  C   UNL     1       4.180  26.433  48.941  1.00  0.00     0.389 C 
HETATM   16  F   UNL     1       3.690  27.686  49.053  1.00  0.00    -0.171 F 
HETATM   17  F   UNL     1       4.982  26.402  47.854  1.00  0.00    -0.171 F 
HETATM   18  F   UNL     1       3.139  25.605  48.701  1.00  0.00    -0.171 F 
ENDBRANCH  14  15
ENDBRANCH  13  14
ENDBRANCH   9  13
ENDBRANCH   3   7
BRANCH   5  19
HETATM   19  C   UNL     1       7.676  22.740  54.686  1.00  0.00     0.079 A 
HETATM   20  C   UNL     1       8.031  21.719  55.582  1.00  0.00     0.062 A 
HETATM   21 CL   UNL     1       8.201  21.903  57.293  1.00  0.00    -0.082 Cl
HETATM   22  C   UNL     1       8.397  20.456  55.088  1.00  0.00     0.026 A 
HETATM   23  C   UNL     1       8.431  20.201  53.717  1.00  0.00     0.002 A 
HETATM   24  C   UNL     1       8.116  21.214  52.824  1.00  0.00     0.002 A 
HETATM   25  C   UNL     1       7.750  22.474  53.300  1.00  0.00     0.033 A 
ENDBRANCH   5  19
TORSDOF 5
ENDMDL
MODEL 4
REMARK VINA RESULT:      -8.4      4.317      7.447
REMARK  5 active torsions:
REMARK  status: ('A' for Active; 'I' for Inactive)
REMARK    1  A    between atoms: C_3  and  N_4 
REMARK       I    between atoms: N_4  and  C_5 
REMARK       I    between atoms: C_5  and  N_6 
REMARK    2  A    between atoms: N_6  and  C_7 
REMARK    3  A    between atoms: C_7  and  C_8 
REMARK    4  A    between atoms: C_8  and  C_9 
REMARK    5  A    between atoms: N_15  and  C_16 
ROOT
HETATM    1  C   UNL     1       5.948  26.062  51.306  1.00  0.00     0.054 C 
HETATM    2  C   UNL     1       6.169  25.245  52.523  1.00  0.00     0.003 A 
HETATM    3  C   UNL     1       5.659  25.428  53.831  1.00  0.00     0.159 A 
HETATM    4  N   UNL     1       6.113  24.493  54.669  1.00  0.00    -0.149 NA
HETATM    5  N   UNL     1       6.901  23.673  53.919  1.00  0.00    -0.241 N 
HETATM    6  C   UNL     1       6.972  24.129  52.624  1.00  0.00     0.129 A 
ENDROOT
BRANCH   3   7
HETATM    7  N   UNL     1       4.826  26.460  54.206  1.00  0.00    -0.291 N 
HETATM    8  C   UNL     1       5.120  27.585  54.912  1.00  0.00     0.321 C 
HETATM    9  N   UNL     1       6.367  27.677  55.449  1.00  0.00    -0.343 N 
HETATM   10  O   UNL     1       4.256  28.445  55.074  1.00  0.00    -0.247 OA
HETATM   11  H   UNL     1       7.028  26.980  55.106  1.00  0.00     0.164 HD
HETATM   12  H   UNL     1       3.865  26.417  53.908  1.00  0.00     0.172 HD
BRANCH   9  13
HETATM   13  C   UNL     1       6.848  28.853  56.144  1.00  0.00     0.133 C 
BRANCH  13  14
HETATM   14  C   UNL     1       8.328  29.108  55.901  1.00  0.00     0.137 C 
BRANCH  14  15
HETATM   15  C   UNL     1       9.137  28.655  57.088  1.00  0.00     0.389 C 
HETATM   16  F   UNL     1      10.456  28.875  56.909  1.00  0.00    -0.171 F 
HETATM   17  F   UNL     1       8.759  29.313  58.206  1.00  0.00    -0.171 F 
HETATM   18  F   UNL     1       8.968  27.334  57.319  1.00  0.00    -0.171 F 
ENDBRANCH  14  15
ENDBRANCH  13  14
ENDBRANCH   9  13
ENDBRANCH   3   7
BRANCH   5  19
HETATM   19  C   UNL     1       7.578  22.578  54.534  1.00  0.00     0.079 A 
HETATM   20  C   UNL     1       8.007  22.558  55.870  1.00  0.00     0.062 A 
HETATM   21 CL   UNL     1       8.003  23.915  56.943  1.00  0.00    -0.082 Cl
HETATM   22  C   UNL     1       8.601  21.397  56.393  1.00  0.00     0.026 A 
HETATM   23  C   UNL     1       8.787  20.265  55.601  1.00  0.00     0.002 A 
HETATM   24  C   UNL     1       8.398  20.288  54.269  1.00  0.00     0.002 A 
HETATM   25  C   UNL     1       7.806  21.434  53.737  1.00  0.00     0.033 A 
ENDBRANCH   5  19
TORSDOF 5
ENDMDL
MODEL 5
REMARK VINA RESULT:      -8.1      3.004      4.755
REMARK  5 active torsions:
REMARK  status: ('A' for Active; 'I' for Inactive)
REMARK    1  A    between atoms: C_3  and  N_4 
REMARK       I    between atoms: N_4  and  C_5 
REMARK       I    between atoms: C_5  and  N_6 
REMARK    2  A    between atoms: N_6  and  C_7 
REMARK    3  A    between atoms: C_7  and  C_8 
REMARK    4  A    between atoms: C_8  and  C_9 
REMARK    5  A    between atoms: N_15  and  C_16 
ROOT
HETATM    1  C   UNL     1      10.870  29.681  56.742  1.00  0.00     0.054 C 
HETATM    2  C   UNL     1       9.706  29.957  57.618  1.00  0.00     0.003 A 
HETATM    3  C   UNL     1       8.357  29.551  57.471  1.00  0.00     0.159 A 
HETATM    4  N   UNL     1       7.592  30.027  58.456  1.00  0.00    -0.149 NA
HETATM    5  N   UNL     1       8.430  30.725  59.273  1.00  0.00    -0.241 N 
HETATM    6  C   UNL     1       9.708  30.719  58.766  1.00  0.00     0.129 A 
ENDROOT
BRANCH   3   7
HETATM    7  N   UNL     1       7.881  28.790  56.425  1.00  0.00    -0.291 N 
HETATM    8  C   UNL     1       7.612  27.458  56.386  1.00  0.00     0.321 C 
HETATM    9  N   UNL     1       7.968  26.717  57.470  1.00  0.00    -0.343 N 
HETATM   10  O   UNL     1       7.104  26.968  55.379  1.00  0.00    -0.247 OA
HETATM   11  H   UNL     1       8.227  27.265  58.291  1.00  0.00     0.164 HD
HETATM   12  H   UNL     1       7.671  29.264  55.561  1.00  0.00     0.172 HD
BRANCH   9  13
HETATM   13  C   UNL     1       7.660  25.309  57.607  1.00  0.00     0.133 C 
BRANCH  13  14
HETATM   14  C   UNL     1       8.861  24.420  57.320  1.00  0.00     0.137 C 
BRANCH  14  15
HETATM   15  C   UNL     1       8.496  23.360  56.314  1.00  0.00     0.389 C 
HETATM   16  F   UNL     1       9.494  23.141  55.432  1.00  0.00    -0.171 F 
HETATM   17  F   UNL     1       8.226  22.187  56.928  1.00  0.00    -0.171 F 
HETATM   18  F   UNL     1       7.396  23.712  55.611  1.00  0.00    -0.171 F 
ENDBRANCH  14  15
ENDBRANCH  13  14
ENDBRANCH   9  13
ENDBRANCH   3   7
BRANCH   5  19
HETATM   19  C   UNL     1       7.910  31.399  60.417  1.00  0.00     0.079 A 
HETATM   20  C   UNL     1       8.389  31.230  61.726  1.00  0.00     0.062 A 
HETATM   21 CL   UNL     1       9.526  30.027  62.228  1.00  0.00    -0.082 Cl
HETATM   22  C   UNL     1       7.849  31.999  62.770  1.00  0.00     0.026 A 
HETATM   23  C   UNL     1       6.831  32.922  62.531  1.00  0.00     0.002 A 
HETATM   24  C   UNL     1       6.327  33.070  61.247  1.00  0.00     0.002 A 
HETATM   25  C   UNL     1       6.854  32.312  60.200  1.00  0.00     0.033 A 
ENDBRANCH   5  19
TORSDOF 5
ENDMDL
MODEL 6
REMARK VINA RESULT:      -7.9      5.971      7.950
REMARK  5 active torsions:
REMARK  status: ('A' for Active; 'I' for Inactive)
REMARK    1  A    between atoms: C_3  and  N_4 
REMARK       I    between atoms: N_4  and  C_5 
REMARK       I    between atoms: C_5  and  N_6 
REMARK    2  A    between atoms: N_6  and  C_7 
REMARK    3  A    between atoms: C_7  and  C_8 
REMARK    4  A    between atoms: C_8  and  C_9 
REMARK    5  A    between atoms: N_15  and  C_16 
ROOT
HETATM    1  C   UNL     1       3.856  29.941  54.907  1.00  0.00     0.054 C 
HETATM    2  C   UNL     1       4.289  28.749  54.141  1.00  0.00     0.003 A 
HETATM    3  C   UNL     1       3.742  28.195  52.958  1.00  0.00     0.159 A 
HETATM    4  N   UNL     1       4.394  27.092  52.585  1.00  0.00    -0.149 NA
HETATM    5  N   UNL     1       5.391  26.924  53.499  1.00  0.00    -0.241 N 
HETATM    6  C   UNL     1       5.325  27.900  54.465  1.00  0.00     0.129 A 
ENDROOT
BRANCH   3   7
HETATM    7  N   UNL     1       2.649  28.706  52.292  1.00  0.00    -0.291 N 
HETATM    8  C   UNL     1       2.388  28.722  50.957  1.00  0.00     0.321 C 
HETATM    9  N   UNL     1       3.377  28.299  50.123  1.00  0.00    -0.343 N 
HETATM   10  O   UNL     1       1.308  29.146  50.552  1.00  0.00    -0.247 OA
HETATM   11  H   UNL     1       4.151  27.826  50.590  1.00  0.00     0.164 HD
HETATM   12  H   UNL     1       1.910  29.109  52.846  1.00  0.00     0.172 HD
BRANCH   9  13
HETATM   13  C   UNL     1       3.209  28.174  48.690  1.00  0.00     0.133 C 
BRANCH  13  14
HETATM   14  C   UNL     1       2.564  26.854  48.292  1.00  0.00     0.137 C 
BRANCH  14  15
HETATM   15  C   UNL     1       3.608  25.775  48.186  1.00  0.00     0.389 C 
HETATM   16  F   UNL     1       3.291  24.862  47.243  1.00  0.00    -0.171 F 
HETATM   17  F   UNL     1       4.810  26.299  47.863  1.00  0.00    -0.171 F 
HETATM   18  F   UNL     1       3.754  25.119  49.359  1.00  0.00    -0.171 F 
ENDBRANCH  14  15
ENDBRANCH  13  14
ENDBRANCH   9  13
ENDBRANCH   3   7
BRANCH   5  19
HETATM   19  C   UNL     1       6.261  25.798  53.405  1.00  0.00     0.079 A 
HETATM   20  C   UNL     1       6.425  24.833  54.411  1.00  0.00     0.062 A 
HETATM   21 CL   UNL     1       5.791  24.944  56.016  1.00  0.00    -0.082 Cl
HETATM   22  C   UNL     1       7.256  23.724  54.183  1.00  0.00     0.026 A 
HETATM   23  C   UNL     1       7.937  23.570  52.975  1.00  0.00     0.002 A 
HETATM   24  C   UNL     1       7.808  24.537  51.989  1.00  0.00     0.002 A 
HETATM   25  C   UNL     1       6.986  25.644  52.201  1.00  0.00     0.033 A 
ENDBRANCH   5  19
TORSDOF 5
ENDMDL
MODEL 7
REMARK VINA RESULT:      -7.9      2.873      3.545
REMARK  5 active torsions:
REMARK  status: ('A' for Active; 'I' for Inactive)
REMARK    1  A    between atoms: C_3  and  N_4 
REMARK       I    between atoms: N_4  and  C_5 
REMARK       I    between atoms: C_5  and  N_6 
REMARK    2  A    between atoms: N_6  and  C_7 
REMARK    3  A    between atoms: C_7  and  C_8 
REMARK    4  A    between atoms: C_8  and  C_9 
REMARK    5  A    between atoms: N_15  and  C_16 
ROOT
HETATM    1  C   UNL     1       6.653  25.122  56.802  1.00  0.00     0.054 C 
HETATM    2  C   UNL     1       6.883  26.583  56.899  1.00  0.00     0.003 A 
HETATM    3  C   UNL     1       6.253  27.639  56.197  1.00  0.00     0.159 A 
HETATM    4  N   UNL     1       6.758  28.827  56.539  1.00  0.00    -0.149 NA
HETATM    5  N   UNL     1       7.703  28.568  57.487  1.00  0.00    -0.241 N 
HETATM    6  C   UNL     1       7.814  27.214  57.696  1.00  0.00     0.129 A 
ENDROOT
BRANCH   3   7
HETATM    7  N   UNL     1       5.266  27.465  55.250  1.00  0.00    -0.291 N 
HETATM    8  C   UNL     1       5.361  26.939  54.000  1.00  0.00     0.321 C 
HETATM    9  N   UNL     1       6.607  26.649  53.537  1.00  0.00    -0.343 N 
HETATM   10  O   UNL     1       4.344  26.782  53.327  1.00  0.00    -0.247 OA
HETATM   11  H   UNL     1       7.339  26.674  54.247  1.00  0.00     0.164 HD
HETATM   12  H   UNL     1       4.328  27.735  55.499  1.00  0.00     0.172 HD
BRANCH   9  13
HETATM   13  C   UNL     1       6.853  26.000  52.266  1.00  0.00     0.133 C 
BRANCH  13  14
HETATM   14  C   UNL     1       8.040  25.049  52.317  1.00  0.00     0.137 C 
BRANCH  14  15
HETATM   15  C   UNL     1       7.681  23.810  53.093  1.00  0.00     0.389 C 
HETATM   16  F   UNL     1       6.358  23.747  53.353  1.00  0.00    -0.171 F 
HETATM   17  F   UNL     1       8.017  22.698  52.404  1.00  0.00    -0.171 F 
HETATM   18  F   UNL     1       8.335  23.768  54.275  1.00  0.00    -0.171 F 
ENDBRANCH  14  15
ENDBRANCH  13  14
ENDBRANCH   9  13
ENDBRANCH   3   7
BRANCH   5  19
HETATM   19  C   UNL     1       8.466  29.638  58.041  1.00  0.00     0.079 A 
HETATM   20  C   UNL     1       9.677  30.110  57.511  1.00  0.00     0.062 A 
HETATM   21 CL   UNL     1      10.575  29.352  56.241  1.00  0.00    -0.082 Cl
HETATM   22  C   UNL     1      10.309  31.218  58.098  1.00  0.00     0.026 A 
HETATM   23  C   UNL     1       9.761  31.853  59.212  1.00  0.00     0.002 A 
HETATM   24  C   UNL     1       8.583  31.371  59.765  1.00  0.00     0.002 A 
HETATM   25  C   UNL     1       7.944  30.271  59.192  1.00  0.00     0.033 A 
ENDBRANCH   5  19
TORSDOF 5
ENDMDL
MODEL 8
REMARK VINA RESULT:      -7.8      6.007      8.860
REMARK  5 active torsions:
REMARK  status: ('A' for Active; 'I' for Inactive)
REMARK    1  A    between atoms: C_3  and  N_4 
REMARK       I    between atoms: N_4  and  C_5 
REMARK       I    between atoms: C_5  and  N_6 
REMARK    2  A    between atoms: N_6  and  C_7 
REMARK    3  A    between atoms: C_7  and  C_8 
REMARK    4  A    between atoms: C_8  and  C_9 
REMARK    5  A    between atoms: N_15  and  C_16 
ROOT
HETATM    1  C   UNL     1       6.170  30.680  57.338  1.00  0.00     0.054 C 
HETATM    2  C   UNL     1       7.049  29.499  57.166  1.00  0.00     0.003 A 
HETATM    3  C   UNL     1       8.462  29.417  57.219  1.00  0.00     0.159 A 
HETATM    4  N   UNL     1       8.890  28.175  56.981  1.00  0.00    -0.149 NA
HETATM    5  N   UNL     1       7.768  27.424  56.798  1.00  0.00    -0.241 N 
HETATM    6  C   UNL     1       6.645  28.213  56.876  1.00  0.00     0.129 A 
ENDROOT
BRANCH   3   7
HETATM    7  N   UNL     1       9.296  30.490  57.450  1.00  0.00    -0.291 N 
HETATM    8  C   UNL     1       9.661  31.053  58.633  1.00  0.00     0.321 C 
HETATM    9  N   UNL     1       9.038  30.605  59.757  1.00  0.00    -0.343 N 
HETATM   10  O   UNL     1      10.494  31.957  58.646  1.00  0.00    -0.247 OA
HETATM   11  H   UNL     1       8.494  29.752  59.628  1.00  0.00     0.164 HD
HETATM   12  H   UNL     1       9.732  30.923  56.652  1.00  0.00     0.172 HD
BRANCH   9  13
HETATM   13  C   UNL     1       9.389  31.046  61.090  1.00  0.00     0.133 C 
BRANCH  13  14
HETATM   14  C   UNL     1       8.703  32.350  61.473  1.00  0.00     0.137 C 
BRANCH  14  15
HETATM   15  C   UNL     1       7.732  32.116  62.600  1.00  0.00     0.389 C 
HETATM   16  F   UNL     1       6.595  32.825  62.435  1.00  0.00    -0.171 F 
HETATM   17  F   UNL     1       7.394  30.811  62.680  1.00  0.00    -0.171 F 
HETATM   18  F   UNL     1       8.269  32.470  63.788  1.00  0.00    -0.171 F 
ENDBRANCH  14  15
ENDBRANCH  13  14
ENDBRANCH   9  13
ENDBRANCH   3   7
BRANCH   5  19
HETATM   19  C   UNL     1       7.883  26.038  56.484  1.00  0.00     0.079 A 
HETATM   20  C   UNL     1       7.513  25.467  55.256  1.00  0.00     0.062 A 
HETATM   21 CL   UNL     1       6.651  26.279  53.994  1.00  0.00    -0.082 Cl
HETATM   22  C   UNL     1       7.736  24.099  55.029  1.00  0.00     0.026 A 
HETATM   23  C   UNL     1       8.308  23.290  56.010  1.00  0.00     0.002 A 
HETATM   24  C   UNL     1       8.644  23.839  57.240  1.00  0.00     0.002 A 
HETATM   25  C   UNL     1       8.428  25.197  57.479  1.00  0.00     0.033 A 
ENDBRANCH   5  19
TORSDOF 5
ENDMDL
MODEL 9
REMARK VINA RESULT:      -7.8      2.972      4.571
REMARK  5 active torsions:
REMARK  status: ('A' for Active; 'I' for Inactive)
REMARK    1  A    between atoms: C_3  and  N_4 
REMARK       I    between atoms: N_4  and  C_5 
REMARK       I    between atoms: C_5  and  N_6 
REMARK    2  A    between atoms: N_6  and  C_7 
REMARK    3  A    between atoms: C_7  and  C_8 
REMARK    4  A    between atoms: C_8  and  C_9 
REMARK    5  A    between atoms: N_15  and  C_16 
ROOT
HETATM    1  C   UNL     1      10.578  29.652  56.330  1.00  0.00     0.054 C 
HETATM    2  C   UNL     1       9.496  29.906  57.310  1.00  0.00     0.003 A 
HETATM    3  C   UNL     1       8.124  29.562  57.241  1.00  0.00     0.159 A 
HETATM    4  N   UNL     1       7.456  29.992  58.314  1.00  0.00    -0.149 NA
HETATM    5  N   UNL     1       8.382  30.595  59.111  1.00  0.00    -0.241 N 
HETATM    6  C   UNL     1       9.617  30.579  58.507  1.00  0.00     0.129 A 
ENDROOT
BRANCH   3   7
HETATM    7  N   UNL     1       7.539  28.901  56.183  1.00  0.00    -0.291 N 
HETATM    8  C   UNL     1       7.047  27.634  56.130  1.00  0.00     0.321 C 
HETATM    9  N   UNL     1       7.258  26.837  57.211  1.00  0.00    -0.343 N 
HETATM   10  O   UNL     1       6.475  27.245  55.113  1.00  0.00    -0.247 OA
HETATM   11  H   UNL     1       7.597  27.327  58.039  1.00  0.00     0.164 HD
HETATM   12  H   UNL     1       7.423  29.410  55.321  1.00  0.00     0.172 HD
BRANCH   9  13
HETATM   13  C   UNL     1       6.714  25.500  57.333  1.00  0.00     0.133 C 
BRANCH  13  14
HETATM   14  C   UNL     1       7.721  24.424  56.953  1.00  0.00     0.137 C 
BRANCH  14  15
HETATM   15  C   UNL     1       7.437  23.911  55.566  1.00  0.00     0.389 C 
HETATM   16  F   UNL     1       6.175  24.193  55.177  1.00  0.00    -0.171 F 
HETATM   17  F   UNL     1       8.277  24.467  54.666  1.00  0.00    -0.171 F 
HETATM   18  F   UNL     1       7.598  22.571  55.499  1.00  0.00    -0.171 F 
ENDBRANCH  14  15
ENDBRANCH  13  14
ENDBRANCH   9  13
ENDBRANCH   3   7
BRANCH   5  19
HETATM   19  C   UNL     1       7.980  31.200  60.338  1.00  0.00     0.079 A 
HETATM   20  C   UNL     1       6.871  32.049  60.479  1.00  0.00     0.062 A 
HETATM   21 CL   UNL     1       5.931  32.693  59.177  1.00  0.00    -0.082 Cl
HETATM   22  C   UNL     1       6.523  32.534  61.751  1.00  0.00     0.026 A 
HETATM   23  C   UNL     1       7.272  32.199  62.879  1.00  0.00     0.002 A 
HETATM   24  C   UNL     1       8.390  31.390  62.743  1.00  0.00     0.002 A 
HETATM   25  C   UNL     1       8.747  30.900  61.485  1.00  0.00     0.033 A 
ENDBRANCH   5  19
TORSDOF 5
ENDMDL
MODEL 10
REMARK VINA RESULT:      -7.7      4.837      7.796
REMARK  5 active torsions:
REMARK  status: ('A' for Active; 'I' for Inactive)
REMARK    1  A    between atoms: C_3  and  N_4 
REMARK       I    between atoms: N_4  and  C_5 
REMARK       I    between atoms: C_5  and  N_6 
REMARK    2  A    between atoms: N_6  and  C_7 
REMARK    3  A    between atoms: C_7  and  C_8 
REMARK    4  A    between atoms: C_8  and  C_9 
REMARK    5  A    between atoms: N_15  and  C_16 
ROOT
HETATM    1  C   UNL     1       5.970  28.092  53.051  1.00  0.00     0.054 C 
HETATM    2  C   UNL     1       6.237  26.842  53.801  1.00  0.00     0.003 A 
HETATM    3  C   UNL     1       5.939  26.522  55.148  1.00  0.00     0.159 A 
HETATM    4  N   UNL     1       6.368  25.299  55.469  1.00  0.00    -0.149 NA
HETATM    5  N   UNL     1       6.924  24.792  54.333  1.00  0.00    -0.241 N 
HETATM    6  C   UNL     1       6.882  25.721  53.322  1.00  0.00     0.129 A 
ENDROOT
BRANCH   3   7
HETATM    7  N   UNL     1       5.319  27.378  56.033  1.00  0.00    -0.291 N 
HETATM    8  C   UNL     1       5.875  28.252  56.914  1.00  0.00     0.321 C 
HETATM    9  N   UNL     1       7.227  28.215  57.061  1.00  0.00    -0.343 N 
HETATM   10  O   UNL     1       5.152  29.004  57.564  1.00  0.00    -0.247 OA
HETATM   11  H   UNL     1       7.715  27.666  56.353  1.00  0.00     0.164 HD
HETATM   12  H   UNL     1       4.311  27.399  56.033  1.00  0.00     0.172 HD
BRANCH   9  13
HETATM   13  C   UNL     1       7.963  29.146  57.891  1.00  0.00     0.133 C 
BRANCH  13  14
HETATM   14  C   UNL     1       9.019  29.913  57.110  1.00  0.00     0.137 C 
BRANCH  14  15
HETATM   15  C   UNL     1      10.100  30.402  58.037  1.00  0.00     0.389 C 
HETATM   16  F   UNL     1       9.790  30.175  59.331  1.00  0.00    -0.171 F 
HETATM   17  F   UNL     1      11.271  29.779  57.781  1.00  0.00    -0.171 F 
HETATM   18  F   UNL     1      10.306  31.729  57.890  1.00  0.00    -0.171 F 
ENDBRANCH  14  15
ENDBRANCH  13  14
ENDBRANCH   9  13
ENDBRANCH   3   7
BRANCH   5  19
HETATM   19  C   UNL     1       7.517  23.495  54.350  1.00  0.00     0.079 A 
HETATM   20  C   UNL     1       8.099  22.900  55.480  1.00  0.00     0.062 A 
HETATM   21 CL   UNL     1       8.407  23.699  56.984  1.00  0.00    -0.082 Cl
HETATM   22  C   UNL     1       8.591  21.587  55.402  1.00  0.00     0.026 A 
HETATM   23  C   UNL     1       8.526  20.865  54.211  1.00  0.00     0.002 A 
HETATM   24  C   UNL     1       7.985  21.457  53.078  1.00  0.00     0.002 A 
HETATM   25  C   UNL     1       7.492  22.761  53.142  1.00  0.00     0.033 A 
ENDBRANCH   5  19
TORSDOF 5
ENDMDL
