MODEL 1
REMARK VINA RESULT:      -9.1      0.000      0.000
REMARK  5 active torsions:
REMARK  status: ('A' for Active; 'I' for Inactive)
REMARK    1  A    between atoms: C_3  and  O_4 
REMARK    2  A    between atoms: O_4  and  C_5 
REMARK    3  A    between atoms: C_5  and  C_6 
REMARK       I    between atoms: C_6  and  N_7 
REMARK    4  A    between atoms: N_7  and  N_8 
REMARK    5  A    between atoms: C_9  and  C_10 
ROOT
HETATM    1  C   UNL     1       7.398  25.805  57.179  1.00  0.00     0.261 C 
HETATM    2  N   UNL     1       8.074  26.997  57.414  1.00  0.00    -0.246 N 
HETATM    3  O   UNL     1       6.300  25.488  57.631  1.00  0.00    -0.269 OA
HETATM    4  H   UNL     1       8.876  27.192  56.816  1.00  0.00     0.192 HD
ENDROOT
BRANCH   2   5
HETATM    5  N   UNL     1       7.634  28.083  58.132  1.00  0.00    -0.184 NA
HETATM    6  C   UNL     1       7.964  29.276  57.754  1.00  0.00     0.152 C 
BRANCH   6   7
HETATM    7  C   UNL     1       7.521  30.419  58.530  1.00  0.00     0.011 A 
HETATM    8  C   UNL     1       8.063  30.870  59.779  1.00  0.00     0.004 A 
HETATM    9  C   UNL     1       7.343  32.003  60.163  1.00  0.00     0.043 A 
HETATM   10  C   UNL     1       9.095  30.412  60.625  1.00  0.00     0.014 A 
HETATM   11  C   UNL     1       7.608  32.703  61.346  1.00  0.00     0.030 A 
HETATM   12  N   UNL     1       6.402  32.234  59.187  1.00  0.00    -0.364 N 
HETATM   13  C   UNL     1       8.636  32.228  62.166  1.00  0.00     0.002 A 
HETATM   14  C   UNL     1       9.370  31.098  61.814  1.00  0.00     0.001 A 
HETATM   15  H   UNL     1       5.736  32.994  59.203  1.00  0.00     0.165 HD
HETATM   16  C   UNL     1       6.494  31.286  58.205  1.00  0.00     0.102 A 
ENDBRANCH   6   7
ENDBRANCH   2   5
BRANCH   1  17
HETATM   17  C   UNL     1       8.207  24.826  56.332  1.00  0.00     0.280 C 
BRANCH  17  18
HETATM   18  O   UNL     1       7.517  24.484  55.131  1.00  0.00    -0.342 OA
BRANCH  18  19
HETATM   19  C   UNL     1       7.658  23.168  54.765  1.00  0.00     0.075 A 
HETATM   20  C   UNL     1       7.831  22.894  53.400  1.00  0.00    -0.029 A 
HETATM   21  C   UNL     1       7.873  23.993  52.375  1.00  0.00     0.051 C 
HETATM   22  C   UNL     1       8.010  21.564  52.988  1.00  0.00     0.009 A 
HETATM   23  C   UNL     1       8.008  20.524  53.917  1.00  0.00     0.001 A 
HETATM   24  C   UNL     1       7.845  20.804  55.271  1.00  0.00     0.003 A 
HETATM   25  C   UNL     1       7.680  22.122  55.696  1.00  0.00     0.037 A 
ENDBRANCH  18  19
ENDBRANCH  17  18
ENDBRANCH   1  17
TORSDOF 5
ENDMDL
MODEL 2
REMARK VINA RESULT:      -9.0      1.652      2.631
REMARK  5 active torsions:
REMARK  status: ('A' for Active; 'I' for Inactive)
REMARK    1  A    between atoms: C_3  and  O_4 
REMARK    2  A    between atoms: O_4  and  C_5 
REMARK    3  A    between atoms: C_5  and  C_6 
REMARK       I    between atoms: C_6  and  N_7 
REMARK    4  A    between atoms: N_7  and  N_8 
REMARK    5  A    between atoms: C_9  and  C_10 
ROOT
HETATM    1  C   UNL     1       6.671  25.788  56.657  1.00  0.00     0.261 C 
HETATM    2  N   UNL     1       8.034  26.025  56.798  1.00  0.00    -0.246 N 
HETATM    3  O   UNL     1       5.761  26.501  57.073  1.00  0.00    -0.269 OA
HETATM    4  H   UNL     1       8.657  25.450  56.233  1.00  0.00     0.192 HD
ENDROOT
BRANCH   2   5
HETATM    5  N   UNL     1       8.640  27.122  57.360  1.00  0.00    -0.184 NA
HETATM    6  C   UNL     1       8.797  28.197  56.657  1.00  0.00     0.152 C 
BRANCH   6   7
HETATM    7  C   UNL     1       9.462  29.345  57.243  1.00  0.00     0.011 A 
HETATM    8  C   UNL     1       8.947  30.203  58.269  1.00  0.00     0.004 A 
HETATM    9  C   UNL     1       9.919  31.170  58.534  1.00  0.00     0.043 A 
HETATM   10  C   UNL     1       7.736  30.254  58.993  1.00  0.00     0.014 A 
HETATM   11  C   UNL     1       9.743  32.179  59.489  1.00  0.00     0.030 A 
HETATM   12  N   UNL     1      10.984  30.910  57.704  1.00  0.00    -0.364 N 
HETATM   13  C   UNL     1       8.534  32.205  60.191  1.00  0.00     0.002 A 
HETATM   14  C   UNL     1       7.543  31.259  59.947  1.00  0.00     0.001 A 
HETATM   15  H   UNL     1      11.836  31.454  57.678  1.00  0.00     0.165 HD
HETATM   16  C   UNL     1      10.719  29.821  56.919  1.00  0.00     0.102 A 
ENDBRANCH   6   7
ENDBRANCH   2   5
BRANCH   1  17
HETATM   17  C   UNL     1       6.372  24.454  55.979  1.00  0.00     0.280 C 
BRANCH  17  18
HETATM   18  O   UNL     1       7.397  23.497  56.238  1.00  0.00    -0.342 OA
BRANCH  18  19
HETATM   19  C   UNL     1       7.668  22.671  55.175  1.00  0.00     0.075 A 
HETATM   20  C   UNL     1       8.079  21.362  55.466  1.00  0.00    -0.029 A 
HETATM   21  C   UNL     1       8.207  20.872  56.881  1.00  0.00     0.051 C 
HETATM   22  C   UNL     1       8.335  20.475  54.407  1.00  0.00     0.009 A 
HETATM   23  C   UNL     1       8.194  20.889  53.082  1.00  0.00     0.001 A 
HETATM   24  C   UNL     1       7.777  22.188  52.802  1.00  0.00     0.003 A 
HETATM   25  C   UNL     1       7.506  23.074  53.844  1.00  0.00     0.037 A 
ENDBRANCH  18  19
ENDBRANCH  17  18
ENDBRANCH   1  17
TORSDOF 5
ENDMDL
MODEL 3
REMARK VINA RESULT:      -9.0      2.289      9.868
REMARK  5 active torsions:
REMARK  status: ('A' for Active; 'I' for Inactive)
REMARK    1  A    between atoms: C_3  and  O_4 
REMARK    2  A    between atoms: O_4  and  C_5 
REMARK    3  A    between atoms: C_5  and  C_6 
REMARK       I    between atoms: C_6  and  N_7 
REMARK    4  A    between atoms: N_7  and  N_8 
REMARK    5  A    between atoms: C_9  and  C_10 
ROOT
HETATM    1  C   UNL     1       8.085  29.939  58.349  1.00  0.00     0.261 C 
HETATM    2  N   UNL     1       7.334  28.783  58.170  1.00  0.00    -0.246 N 
HETATM    3  O   UNL     1       9.311  30.023  58.324  1.00  0.00    -0.269 OA
HETATM    4  H   UNL     1       6.333  28.907  58.025  1.00  0.00     0.192 HD
ENDROOT
BRANCH   2   5
HETATM    5  N   UNL     1       7.793  27.525  57.860  1.00  0.00    -0.184 NA
HETATM    6  C   UNL     1       7.393  26.948  56.773  1.00  0.00     0.152 C 
BRANCH   6   7
HETATM    7  C   UNL     1       7.857  25.609  56.462  1.00  0.00     0.011 A 
HETATM    8  C   UNL     1       7.813  24.961  55.184  1.00  0.00     0.004 A 
HETATM    9  C   UNL     1       8.369  23.690  55.339  1.00  0.00     0.043 A 
HETATM   10  C   UNL     1       7.341  25.335  53.907  1.00  0.00     0.014 A 
HETATM   11  C   UNL     1       8.481  22.778  54.282  1.00  0.00     0.030 A 
HETATM   12  N   UNL     1       8.738  23.568  56.659  1.00  0.00    -0.364 N 
HETATM   13  C   UNL     1       8.006  23.175  53.029  1.00  0.00     0.002 A 
HETATM   14  C   UNL     1       7.442  24.434  52.841  1.00  0.00     0.001 A 
HETATM   15  H   UNL     1       9.170  22.747  57.059  1.00  0.00     0.165 HD
HETATM   16  C   UNL     1       8.429  24.711  57.344  1.00  0.00     0.102 A 
ENDBRANCH   6   7
ENDBRANCH   2   5
BRANCH   1  17
HETATM   17  C   UNL     1       7.224  31.154  58.685  1.00  0.00     0.280 C 
BRANCH  17  18
HETATM   18  O   UNL     1       7.979  32.155  59.364  1.00  0.00    -0.342 OA
BRANCH  18  19
HETATM   19  C   UNL     1       7.578  32.371  60.660  1.00  0.00     0.075 A 
HETATM   20  C   UNL     1       8.535  32.184  61.669  1.00  0.00    -0.029 A 
HETATM   21  C   UNL     1       9.946  31.777  61.351  1.00  0.00     0.051 C 
HETATM   22  C   UNL     1       8.174  32.425  63.004  1.00  0.00     0.009 A 
HETATM   23  C   UNL     1       6.881  32.835  63.329  1.00  0.00     0.001 A 
HETATM   24  C   UNL     1       5.939  33.026  62.322  1.00  0.00     0.003 A 
HETATM   25  C   UNL     1       6.288  32.804  60.990  1.00  0.00     0.037 A 
ENDBRANCH  18  19
ENDBRANCH  17  18
ENDBRANCH   1  17
TORSDOF 5
ENDMDL
MODEL 4
REMARK VINA RESULT:      -8.8      2.087      9.812
REMARK  5 active torsions:
REMARK  status: ('A' for Active; 'I' for Inactive)
REMARK    1  A    between atoms: C_3  and  O_4 
REMARK    2  A    between atoms: O_4  and  C_5 
REMARK    3  A    between atoms: C_5  and  C_6 
REMARK       I    between atoms: C_6  and  N_7 
REMARK    4  A    between atoms: N_7  and  N_8 
REMARK    5  A    between atoms: C_9  and  C_10 
ROOT
HETATM    1  C   UNL     1       8.275  28.460  57.224  1.00  0.00     0.261 C 
HETATM    2  N   UNL     1       7.359  27.646  56.568  1.00  0.00    -0.246 N 
HETATM    3  O   UNL     1       9.484  28.517  57.012  1.00  0.00    -0.269 OA
HETATM    4  H   UNL     1       6.374  27.855  56.719  1.00  0.00     0.192 HD
ENDROOT
BRANCH   2   5
HETATM    5  N   UNL     1       7.597  26.799  55.512  1.00  0.00    -0.184 NA
HETATM    6  C   UNL     1       7.284  25.547  55.613  1.00  0.00     0.152 C 
BRANCH   6   7
HETATM    7  C   UNL     1       7.562  24.649  54.508  1.00  0.00     0.011 A 
HETATM    8  C   UNL     1       7.690  23.223  54.573  1.00  0.00     0.004 A 
HETATM    9  C   UNL     1       7.949  22.767  53.279  1.00  0.00     0.043 A 
HETATM   10  C   UNL     1       7.620  22.276  55.617  1.00  0.00     0.014 A 
HETATM   11  C   UNL     1       8.135  21.412  52.978  1.00  0.00     0.030 A 
HETATM   12  N   UNL     1       7.977  23.870  52.459  1.00  0.00    -0.364 N 
HETATM   13  C   UNL     1       8.060  20.496  54.031  1.00  0.00     0.002 A 
HETATM   14  C   UNL     1       7.808  20.919  55.333  1.00  0.00     0.001 A 
HETATM   15  H   UNL     1       8.145  23.839  51.463  1.00  0.00     0.165 HD
HETATM   16  C   UNL     1       7.752  25.007  53.186  1.00  0.00     0.102 A 
ENDBRANCH   6   7
ENDBRANCH   2   5
BRANCH   1  17
HETATM   17  C   UNL     1       7.642  29.267  58.355  1.00  0.00     0.280 C 
BRANCH  17  18
HETATM   18  O   UNL     1       8.112  30.614  58.360  1.00  0.00    -0.342 OA
BRANCH  18  19
HETATM   19  C   UNL     1       8.274  31.141  59.618  1.00  0.00     0.075 A 
HETATM   20  C   UNL     1       7.297  32.041  60.069  1.00  0.00    -0.029 A 
HETATM   21  C   UNL     1       6.112  32.409  59.219  1.00  0.00     0.051 C 
HETATM   22  C   UNL     1       7.408  32.578  61.361  1.00  0.00     0.009 A 
HETATM   23  C   UNL     1       8.478  32.232  62.186  1.00  0.00     0.001 A 
HETATM   24  C   UNL     1       9.438  31.331  61.736  1.00  0.00     0.003 A 
HETATM   25  C   UNL     1       9.333  30.779  60.459  1.00  0.00     0.037 A 
ENDBRANCH  18  19
ENDBRANCH  17  18
ENDBRANCH   1  17
TORSDOF 5
ENDMDL
MODEL 5
REMARK VINA RESULT:      -8.8      2.203      9.510
REMARK  5 active torsions:
REMARK  status: ('A' for Active; 'I' for Inactive)
REMARK    1  A    between atoms: C_3  and  O_4 
REMARK    2  A    between atoms: O_4  and  C_5 
REMARK    3  A    between atoms: C_5  and  C_6 
REMARK       I    between atoms: C_6  and  N_7 
REMARK    4  A    between atoms: N_7  and  N_8 
REMARK    5  A    between atoms: C_9  and  C_10 
ROOT
HETATM    1  C   UNL     1       7.461  27.615  57.076  1.00  0.00     0.261 C 
HETATM    2  N   UNL     1       6.951  27.222  55.844  1.00  0.00    -0.246 N 
HETATM    3  O   UNL     1       8.318  27.026  57.731  1.00  0.00    -0.269 OA
HETATM    4  H   UNL     1       6.394  27.911  55.340  1.00  0.00     0.192 HD
ENDROOT
BRANCH   2   5
HETATM    5  N   UNL     1       7.342  26.150  55.078  1.00  0.00    -0.184 NA
HETATM    6  C   UNL     1       6.808  24.989  55.283  1.00  0.00     0.152 C 
BRANCH   6   7
HETATM    7  C   UNL     1       7.242  23.853  54.492  1.00  0.00     0.011 A 
HETATM    8  C   UNL     1       7.708  22.591  54.988  1.00  0.00     0.004 A 
HETATM    9  C   UNL     1       8.012  21.794  53.883  1.00  0.00     0.043 A 
HETATM   10  C   UNL     1       7.911  22.055  56.278  1.00  0.00     0.014 A 
HETATM   11  C   UNL     1       8.501  20.487  54.004  1.00  0.00     0.030 A 
HETATM   12  N   UNL     1       7.740  22.539  52.759  1.00  0.00    -0.364 N 
HETATM   13  C   UNL     1       8.692  19.982  55.293  1.00  0.00     0.002 A 
HETATM   14  C   UNL     1       8.404  20.753  56.416  1.00  0.00     0.001 A 
HETATM   15  H   UNL     1       7.867  22.212  51.811  1.00  0.00     0.165 HD
HETATM   16  C   UNL     1       7.284  23.779  53.112  1.00  0.00     0.102 A 
ENDBRANCH   6   7
ENDBRANCH   2   5
BRANCH   1  17
HETATM   17  C   UNL     1       6.775  28.862  57.627  1.00  0.00     0.280 C 
BRANCH  17  18
HETATM   18  O   UNL     1       7.475  30.048  57.254  1.00  0.00    -0.342 OA
BRANCH  18  19
HETATM   19  C   UNL     1       7.871  30.818  58.321  1.00  0.00     0.075 A 
HETATM   20  C   UNL     1       9.250  30.943  58.547  1.00  0.00    -0.029 A 
HETATM   21  C   UNL     1      10.258  30.274  57.655  1.00  0.00     0.051 C 
HETATM   22  C   UNL     1       9.697  31.747  59.607  1.00  0.00     0.009 A 
HETATM   23  C   UNL     1       8.788  32.406  60.434  1.00  0.00     0.001 A 
HETATM   24  C   UNL     1       7.421  32.285  60.198  1.00  0.00     0.003 A 
HETATM   25  C   UNL     1       6.963  31.501  59.139  1.00  0.00     0.037 A 
ENDBRANCH  18  19
ENDBRANCH  17  18
ENDBRANCH   1  17
TORSDOF 5
ENDMDL
MODEL 6
REMARK VINA RESULT:      -8.6      2.132      9.435
REMARK  5 active torsions:
REMARK  status: ('A' for Active; 'I' for Inactive)
REMARK    1  A    between atoms: C_3  and  O_4 
REMARK    2  A    between atoms: O_4  and  C_5 
REMARK    3  A    between atoms: C_5  and  C_6 
REMARK       I    between atoms: C_6  and  N_7 
REMARK    4  A    between atoms: N_7  and  N_8 
REMARK    5  A    between atoms: C_9  and  C_10 
ROOT
HETATM    1  C   UNL     1       6.347  27.528  56.894  1.00  0.00     0.261 C 
HETATM    2  N   UNL     1       7.241  26.564  57.346  1.00  0.00    -0.246 N 
HETATM    3  O   UNL     1       5.413  27.349  56.116  1.00  0.00    -0.269 OA
HETATM    4  H   UNL     1       7.833  26.824  58.133  1.00  0.00     0.192 HD
ENDROOT
BRANCH   2   5
HETATM    5  N   UNL     1       7.225  25.216  57.078  1.00  0.00    -0.184 NA
HETATM    6  C   UNL     1       8.340  24.592  56.870  1.00  0.00     0.152 C 
BRANCH   6   7
HETATM    7  C   UNL     1       8.319  23.175  56.560  1.00  0.00     0.011 A 
HETATM    8  C   UNL     1       8.203  22.584  55.259  1.00  0.00     0.004 A 
HETATM    9  C   UNL     1       8.233  21.197  55.426  1.00  0.00     0.043 A 
HETATM   10  C   UNL     1       8.066  23.099  53.953  1.00  0.00     0.014 A 
HETATM   11  C   UNL     1       8.138  20.304  54.352  1.00  0.00     0.030 A 
HETATM   12  N   UNL     1       8.363  20.955  56.773  1.00  0.00    -0.364 N 
HETATM   13  C   UNL     1       8.002  20.842  53.069  1.00  0.00     0.002 A 
HETATM   14  C   UNL     1       7.964  22.219  52.869  1.00  0.00     0.001 A 
HETATM   15  H   UNL     1       8.412  20.034  57.187  1.00  0.00     0.165 HD
HETATM   16  C   UNL     1       8.409  22.134  57.465  1.00  0.00     0.102 A 
ENDBRANCH   6   7
ENDBRANCH   2   5
BRANCH   1  17
HETATM   17  C   UNL     1       6.684  28.928  57.402  1.00  0.00     0.280 C 
BRANCH  17  18
HETATM   18  O   UNL     1       8.094  29.116  57.511  1.00  0.00    -0.342 OA
BRANCH  18  19
HETATM   19  C   UNL     1       8.454  30.154  58.335  1.00  0.00     0.075 A 
HETATM   20  C   UNL     1       9.753  30.665  58.196  1.00  0.00    -0.029 A 
HETATM   21  C   UNL     1      10.713  30.112  57.181  1.00  0.00     0.051 C 
HETATM   22  C   UNL     1      10.150  31.748  58.997  1.00  0.00     0.009 A 
HETATM   23  C   UNL     1       9.272  32.305  59.927  1.00  0.00     0.001 A 
HETATM   24  C   UNL     1       7.982  31.798  60.053  1.00  0.00     0.003 A 
HETATM   25  C   UNL     1       7.569  30.732  59.254  1.00  0.00     0.037 A 
ENDBRANCH  18  19
ENDBRANCH  17  18
ENDBRANCH   1  17
TORSDOF 5
ENDMDL
MODEL 7
REMARK VINA RESULT:      -8.5      6.128      9.669
REMARK  5 active torsions:
REMARK  status: ('A' for Active; 'I' for Inactive)
REMARK    1  A    between atoms: C_3  and  O_4 
REMARK    2  A    between atoms: O_4  and  C_5 
REMARK    3  A    between atoms: C_5  and  C_6 
REMARK       I    between atoms: C_6  and  N_7 
REMARK    4  A    between atoms: N_7  and  N_8 
REMARK    5  A    between atoms: C_9  and  C_10 
ROOT
HETATM    1  C   UNL     1       5.549  27.829  51.047  1.00  0.00     0.261 C 
HETATM    2  N   UNL     1       5.828  26.469  51.121  1.00  0.00    -0.246 N 
HETATM    3  O   UNL     1       5.290  28.572  51.991  1.00  0.00    -0.269 OA
HETATM    4  H   UNL     1       6.213  26.037  50.283  1.00  0.00     0.192 HD
ENDROOT
BRANCH   2   5
HETATM    5  N   UNL     1       5.941  25.697  52.252  1.00  0.00    -0.184 NA
HETATM    6  C   UNL     1       7.074  25.137  52.534  1.00  0.00     0.152 C 
BRANCH   6   7
HETATM    7  C   UNL     1       7.184  24.300  53.714  1.00  0.00     0.011 A 
HETATM    8  C   UNL     1       7.573  22.921  53.753  1.00  0.00     0.004 A 
HETATM    9  C   UNL     1       7.549  22.518  55.090  1.00  0.00     0.043 A 
HETATM   10  C   UNL     1       7.936  21.973  52.773  1.00  0.00     0.014 A 
HETATM   11  C   UNL     1       7.875  21.217  55.494  1.00  0.00     0.030 A 
HETATM   12  N   UNL     1       7.162  23.607  55.834  1.00  0.00    -0.364 N 
HETATM   13  C   UNL     1       8.230  20.298  54.502  1.00  0.00     0.002 A 
HETATM   14  C   UNL     1       8.259  20.667  53.160  1.00  0.00     0.001 A 
HETATM   15  H   UNL     1       7.058  23.606  56.840  1.00  0.00     0.165 HD
HETATM   16  C   UNL     1       6.933  24.681  55.019  1.00  0.00     0.102 A 
ENDBRANCH   6   7
ENDBRANCH   2   5
BRANCH   1  17
HETATM   17  C   UNL     1       5.503  28.344  49.611  1.00  0.00     0.280 C 
BRANCH  17  18
HETATM   18  O   UNL     1       4.247  28.952  49.315  1.00  0.00    -0.342 OA
BRANCH  18  19
HETATM   19  C   UNL     1       3.379  28.132  48.636  1.00  0.00     0.075 A 
HETATM   20  C   UNL     1       2.009  28.304  48.880  1.00  0.00    -0.029 A 
HETATM   21  C   UNL     1       1.503  29.349  49.835  1.00  0.00     0.051 C 
HETATM   22  C   UNL     1       1.086  27.509  48.182  1.00  0.00     0.009 A 
HETATM   23  C   UNL     1       1.522  26.552  47.265  1.00  0.00     0.001 A 
HETATM   24  C   UNL     1       2.883  26.393  47.022  1.00  0.00     0.003 A 
HETATM   25  C   UNL     1       3.810  27.187  47.698  1.00  0.00     0.037 A 
ENDBRANCH  18  19
ENDBRANCH  17  18
ENDBRANCH   1  17
TORSDOF 5
ENDMDL
MODEL 8
REMARK VINA RESULT:      -8.4      5.440      8.785
REMARK  5 active torsions:
REMARK  status: ('A' for Active; 'I' for Inactive)
REMARK    1  A    between atoms: C_3  and  O_4 
REMARK    2  A    between atoms: O_4  and  C_5 
REMARK    3  A    between atoms: C_5  and  C_6 
REMARK       I    between atoms: C_6  and  N_7 
REMARK    4  A    between atoms: N_7  and  N_8 
REMARK    5  A    between atoms: C_9  and  C_10 
ROOT
HETATM    1  C   UNL     1       5.794  26.260  54.763  1.00  0.00     0.261 C 
HETATM    2  N   UNL     1       5.504  25.776  53.492  1.00  0.00    -0.246 N 
HETATM    3  O   UNL     1       5.578  27.397  55.176  1.00  0.00    -0.269 OA
HETATM    4  H   UNL     1       5.561  24.767  53.365  1.00  0.00     0.192 HD
ENDROOT
BRANCH   2   5
HETATM    5  N   UNL     1       4.861  26.434  52.471  1.00  0.00    -0.184 NA
HETATM    6  C   UNL     1       5.440  26.546  51.318  1.00  0.00     0.152 C 
BRANCH   6   7
HETATM    7  C   UNL     1       4.771  27.265  50.250  1.00  0.00     0.011 A 
HETATM    8  C   UNL     1       4.029  26.693  49.165  1.00  0.00     0.004 A 
HETATM    9  C   UNL     1       3.555  27.747  48.381  1.00  0.00     0.043 A 
HETATM   10  C   UNL     1       3.723  25.373  48.770  1.00  0.00     0.014 A 
HETATM   11  C   UNL     1       2.788  27.546  47.227  1.00  0.00     0.030 A 
HETATM   12  N   UNL     1       3.991  28.913  48.965  1.00  0.00    -0.364 N 
HETATM   13  C   UNL     1       2.500  26.229  46.859  1.00  0.00     0.002 A 
HETATM   14  C   UNL     1       2.961  25.155  47.617  1.00  0.00     0.001 A 
HETATM   15  H   UNL     1       3.795  29.839  48.610  1.00  0.00     0.165 HD
HETATM   16  C   UNL     1       4.727  28.637  50.085  1.00  0.00     0.102 A 
ENDBRANCH   6   7
ENDBRANCH   2   5
BRANCH   1  17
HETATM   17  C   UNL     1       6.520  25.237  55.632  1.00  0.00     0.280 C 
BRANCH  17  18
HETATM   18  O   UNL     1       7.730  24.798  55.017  1.00  0.00    -0.342 OA
BRANCH  18  19
HETATM   19  C   UNL     1       7.759  23.452  54.744  1.00  0.00     0.075 A 
HETATM   20  C   UNL     1       7.896  23.072  53.400  1.00  0.00    -0.029 A 
HETATM   21  C   UNL     1       8.021  24.090  52.301  1.00  0.00     0.051 C 
HETATM   22  C   UNL     1       7.962  21.706  53.081  1.00  0.00     0.009 A 
HETATM   23  C   UNL     1       7.881  20.737  54.081  1.00  0.00     0.001 A 
HETATM   24  C   UNL     1       7.754  21.122  55.412  1.00  0.00     0.003 A 
HETATM   25  C   UNL     1       7.702  22.476  55.745  1.00  0.00     0.037 A 
ENDBRANCH  18  19
ENDBRANCH  17  18
ENDBRANCH   1  17
TORSDOF 5
ENDMDL
MODEL 9
REMARK VINA RESULT:      -8.3      2.119      2.883
REMARK  5 active torsions:
REMARK  status: ('A' for Active; 'I' for Inactive)
REMARK    1  A    between atoms: C_3  and  O_4 
REMARK    2  A    between atoms: O_4  and  C_5 
REMARK    3  A    between atoms: C_5  and  C_6 
REMARK       I    between atoms: C_6  and  N_7 
REMARK    4  A    between atoms: N_7  and  N_8 
REMARK    5  A    between atoms: C_9  and  C_10 
ROOT
HETATM    1  C   UNL     1       7.113  25.591  53.721  1.00  0.00     0.261 C 
HETATM    2  N   UNL     1       6.397  26.002  54.839  1.00  0.00    -0.246 N 
HETATM    3  O   UNL     1       7.851  26.290  53.030  1.00  0.00    -0.269 OA
HETATM    4  H   UNL     1       5.990  25.267  55.415  1.00  0.00     0.192 HD
ENDROOT
BRANCH   2   5
HETATM    5  N   UNL     1       6.418  27.237  55.440  1.00  0.00    -0.184 NA
HETATM    6  C   UNL     1       6.025  27.359  56.667  1.00  0.00     0.152 C 
BRANCH   6   7
HETATM    7  C   UNL     1       6.022  28.669  57.291  1.00  0.00     0.011 A 
HETATM    8  C   UNL     1       7.164  29.401  57.752  1.00  0.00     0.004 A 
HETATM    9  C   UNL     1       6.703  30.611  58.275  1.00  0.00     0.043 A 
HETATM   10  C   UNL     1       8.552  29.143  57.783  1.00  0.00     0.014 A 
HETATM   11  C   UNL     1       7.558  31.576  58.821  1.00  0.00     0.030 A 
HETATM   12  N   UNL     1       5.334  30.615  58.137  1.00  0.00    -0.364 N 
HETATM   13  C   UNL     1       8.927  31.294  58.838  1.00  0.00     0.002 A 
HETATM   14  C   UNL     1       9.420  30.095  58.329  1.00  0.00     0.001 A 
HETATM   15  H   UNL     1       4.731  31.371  58.431  1.00  0.00     0.165 HD
HETATM   16  C   UNL     1       4.913  29.451  57.553  1.00  0.00     0.102 A 
ENDBRANCH   6   7
ENDBRANCH   2   5
BRANCH   1  17
HETATM   17  C   UNL     1       6.832  24.139  53.342  1.00  0.00     0.280 C 
BRANCH  17  18
HETATM   18  O   UNL     1       8.024  23.354  53.368  1.00  0.00    -0.342 OA
BRANCH  18  19
HETATM   19  C   UNL     1       8.122  22.528  54.461  1.00  0.00     0.075 A 
HETATM   20  C   UNL     1       8.144  21.146  54.222  1.00  0.00    -0.029 A 
HETATM   21  C   UNL     1       8.075  20.585  52.829  1.00  0.00     0.051 C 
HETATM   22  C   UNL     1       8.275  20.268  55.309  1.00  0.00     0.009 A 
HETATM   23  C   UNL     1       8.373  20.757  56.612  1.00  0.00     0.001 A 
HETATM   24  C   UNL     1       8.359  22.130  56.840  1.00  0.00     0.003 A 
HETATM   25  C   UNL     1       8.243  23.015  55.768  1.00  0.00     0.037 A 
ENDBRANCH  18  19
ENDBRANCH  17  18
ENDBRANCH   1  17
TORSDOF 5
ENDMDL
MODEL 10
REMARK VINA RESULT:      -8.3      2.062      3.264
REMARK  5 active torsions:
REMARK  status: ('A' for Active; 'I' for Inactive)
REMARK    1  A    between atoms: C_3  and  O_4 
REMARK    2  A    between atoms: O_4  and  C_5 
REMARK    3  A    between atoms: C_5  and  C_6 
REMARK       I    between atoms: C_6  and  N_7 
REMARK    4  A    between atoms: N_7  and  N_8 
REMARK    5  A    between atoms: C_9  and  C_10 
ROOT
HETATM    1  C   UNL     1       8.479  28.901  55.921  1.00  0.00     0.261 C 
HETATM    2  N   UNL     1       7.800  28.628  57.103  1.00  0.00    -0.246 N 
HETATM    3  O   UNL     1       9.432  29.664  55.788  1.00  0.00    -0.269 OA
HETATM    4  H   UNL     1       7.164  27.832  57.091  1.00  0.00     0.192 HD
ENDROOT
BRANCH   2   5
HETATM    5  N   UNL     1       8.091  29.093  58.363  1.00  0.00    -0.184 NA
HETATM    6  C   UNL     1       7.872  30.335  58.654  1.00  0.00     0.152 C 
BRANCH   6   7
HETATM    7  C   UNL     1       8.207  30.830  59.976  1.00  0.00     0.011 A 
HETATM    8  C   UNL     1       7.438  31.742  60.770  1.00  0.00     0.004 A 
HETATM    9  C   UNL     1       8.126  31.937  61.969  1.00  0.00     0.043 A 
HETATM   10  C   UNL     1       6.221  32.431  60.576  1.00  0.00     0.014 A 
HETATM   11  C   UNL     1       7.656  32.780  62.984  1.00  0.00     0.030 A 
HETATM   12  N   UNL     1       9.268  31.173  61.908  1.00  0.00    -0.364 N 
HETATM   13  C   UNL     1       6.449  33.449  62.765  1.00  0.00     0.002 A 
HETATM   14  C   UNL     1       5.740  33.281  61.579  1.00  0.00     0.001 A 
HETATM   15  H   UNL     1       9.961  31.119  62.643  1.00  0.00     0.165 HD
HETATM   16  C   UNL     1       9.331  30.509  60.714  1.00  0.00     0.102 A 
ENDBRANCH   6   7
ENDBRANCH   2   5
BRANCH   1  17
HETATM   17  C   UNL     1       7.861  28.202  54.713  1.00  0.00     0.280 C 
BRANCH  17  18
HETATM   18  O   UNL     1       7.126  27.043  55.101  1.00  0.00    -0.342 OA
BRANCH  18  19
HETATM   19  C   UNL     1       7.416  25.926  54.357  1.00  0.00     0.075 A 
HETATM   20  C   UNL     1       7.550  24.711  55.046  1.00  0.00    -0.029 A 
HETATM   21  C   UNL     1       7.374  24.626  56.536  1.00  0.00     0.051 C 
HETATM   22  C   UNL     1       7.815  23.539  54.319  1.00  0.00     0.009 A 
HETATM   23  C   UNL     1       7.953  23.579  52.931  1.00  0.00     0.001 A 
HETATM   24  C   UNL     1       7.809  24.786  52.254  1.00  0.00     0.003 A 
HETATM   25  C   UNL     1       7.533  25.955  52.962  1.00  0.00     0.037 A 
ENDBRANCH  18  19
ENDBRANCH  17  18
ENDBRANCH   1  17
TORSDOF 5
ENDMDL
