MODEL 1
REMARK VINA RESULT:      -9.6      0.000      0.000
REMARK  3 active torsions:
REMARK  status: ('A' for Active; 'I' for Inactive)
REMARK    1  A    between atoms: C_7  and  C_8 
REMARK    2  A    between atoms: N_9  and  C_11 
REMARK    3  A    between atoms: C_11  and  C_12 
ROOT
HETATM    1  C   UNL     1       6.047  26.892  56.692  1.00  0.00     0.238 C 
HETATM    2  N   UNL     1       7.011  28.070  56.716  1.00  0.00    -0.056 N 
HETATM    3  H   UNL     1       6.707  28.646  57.508  1.00  0.00     0.281 HD
HETATM    4  C   UNL     1       6.936  28.969  55.508  1.00  0.00     0.236 C 
HETATM    5  C   UNL     1       5.513  29.461  55.305  1.00  0.00     0.028 C 
HETATM    6  C   UNL     1       4.523  28.312  55.195  1.00  0.00     0.004 C 
HETATM    7  C   UNL     1       4.624  27.388  56.402  1.00  0.00     0.040 C 
ENDROOT
BRANCH   2   8
HETATM    8  C   UNL     1       8.448  27.694  57.023  1.00  0.00     0.294 C 
BRANCH   8   9
HETATM    9  C   UNL     1       9.320  28.869  57.221  1.00  0.00     0.061 A 
HETATM   10  N   UNL     1       9.110  29.854  58.167  1.00  0.00    -0.305 N 
HETATM   11  C   UNL     1      10.114  30.776  58.000  1.00  0.00     0.151 A 
HETATM   12  C   UNL     1       8.143  30.063  59.136  1.00  0.00     0.118 A 
HETATM   13  C   UNL     1      10.124  31.948  58.834  1.00  0.00     0.167 A 
HETATM   14  N   UNL     1      10.955  30.441  57.051  1.00  0.00    -0.239 NA
HETATM   15  N   UNL     1       9.195  32.149  59.731  1.00  0.00    -0.268 NA
HETATM   16  C   UNL     1       8.213  31.185  59.875  1.00  0.00     0.134 A 
HETATM   17  C   UNL     1      10.497  29.239  56.591  1.00  0.00     0.146 A 
ENDBRANCH   8   9
ENDBRANCH   2   8
BRANCH   1  18
HETATM   18  C   UNL     1       6.470  25.760  55.810  1.00  0.00     0.041 A 
HETATM   19  N   UNL     1       6.694  24.501  56.336  1.00  0.00    -0.357 N 
HETATM   20  C   UNL     1       7.159  23.644  55.367  1.00  0.00     0.042 A 
HETATM   21  H   UNL     1       6.573  24.225  57.303  1.00  0.00     0.166 HD
HETATM   22  C   UNL     1       7.149  24.341  54.163  1.00  0.00    -0.008 A 
HETATM   23  C   UNL     1       7.571  22.311  55.465  1.00  0.00     0.030 A 
HETATM   24  C   UNL     1       7.558  23.679  52.990  1.00  0.00     0.014 A 
HETATM   25  C   UNL     1       6.688  25.654  54.447  1.00  0.00     0.040 A 
HETATM   26  C   UNL     1       7.976  22.346  53.069  1.00  0.00     0.001 A 
HETATM   27  C   UNL     1       7.984  21.675  54.291  1.00  0.00     0.002 A 
ENDBRANCH   1  18
TORSDOF 3
ENDMDL
MODEL 2
REMARK VINA RESULT:      -9.5      4.606      7.575
REMARK  3 active torsions:
REMARK  status: ('A' for Active; 'I' for Inactive)
REMARK    1  A    between atoms: C_7  and  C_8 
REMARK    2  A    between atoms: N_9  and  C_11 
REMARK    3  A    between atoms: C_11  and  C_12 
ROOT
HETATM    1  C   UNL     1       7.312  26.353  53.243  1.00  0.00     0.238 C 
HETATM    2  N   UNL     1       5.972  26.762  52.649  1.00  0.00    -0.056 N 
HETATM    3  H   UNL     1       6.091  27.745  52.379  1.00  0.00     0.281 HD
HETATM    4  C   UNL     1       4.821  26.746  53.622  1.00  0.00     0.236 C 
HETATM    5  C   UNL     1       5.142  27.606  54.834  1.00  0.00     0.028 C 
HETATM    6  C   UNL     1       6.436  27.179  55.508  1.00  0.00     0.004 C 
HETATM    7  C   UNL     1       7.590  27.167  54.514  1.00  0.00     0.040 C 
ENDROOT
BRANCH   2   8
HETATM    8  C   UNL     1       5.608  26.036  51.368  1.00  0.00     0.294 C 
BRANCH   8   9
HETATM    9  C   UNL     1       5.131  26.944  50.307  1.00  0.00     0.061 A 
HETATM   10  N   UNL     1       4.346  26.560  49.237  1.00  0.00    -0.305 N 
HETATM   11  C   UNL     1       4.155  27.683  48.469  1.00  0.00     0.151 A 
HETATM   12  C   UNL     1       3.797  25.354  48.834  1.00  0.00     0.118 A 
HETATM   13  C   UNL     1       3.398  27.568  47.252  1.00  0.00     0.167 A 
HETATM   14  N   UNL     1       4.728  28.747  48.979  1.00  0.00    -0.239 NA
HETATM   15  N   UNL     1       2.903  26.422  46.866  1.00  0.00    -0.268 NA
HETATM   16  C   UNL     1       3.106  25.322  47.680  1.00  0.00     0.134 A 
HETATM   17  C   UNL     1       5.298  28.309  50.141  1.00  0.00     0.146 A 
ENDBRANCH   8   9
ENDBRANCH   2   8
BRANCH   1  18
HETATM   18  C   UNL     1       7.483  24.878  53.436  1.00  0.00     0.041 A 
HETATM   19  N   UNL     1       7.264  24.299  54.672  1.00  0.00    -0.357 N 
HETATM   20  C   UNL     1       7.565  22.958  54.641  1.00  0.00     0.042 A 
HETATM   21  H   UNL     1       6.955  24.774  55.511  1.00  0.00     0.166 HD
HETATM   22  C   UNL     1       7.901  22.642  53.328  1.00  0.00    -0.008 A 
HETATM   23  C   UNL     1       7.553  22.007  55.667  1.00  0.00     0.030 A 
HETATM   24  C   UNL     1       8.231  21.312  53.011  1.00  0.00     0.014 A 
HETATM   25  C   UNL     1       7.818  23.845  52.577  1.00  0.00     0.040 A 
HETATM   26  C   UNL     1       8.226  20.347  54.025  1.00  0.00     0.001 A 
HETATM   27  C   UNL     1       7.894  20.694  55.333  1.00  0.00     0.002 A 
ENDBRANCH   1  18
TORSDOF 3
ENDMDL
MODEL 3
REMARK VINA RESULT:      -9.4      1.528      2.347
REMARK  3 active torsions:
REMARK  status: ('A' for Active; 'I' for Inactive)
REMARK    1  A    between atoms: C_7  and  C_8 
REMARK    2  A    between atoms: N_9  and  C_11 
REMARK    3  A    between atoms: C_11  and  C_12 
ROOT
HETATM    1  C   UNL     1       5.697  26.179  54.723  1.00  0.00     0.238 C 
HETATM    2  N   UNL     1       6.611  27.383  54.902  1.00  0.00    -0.056 N 
HETATM    3  H   UNL     1       5.996  28.138  55.224  1.00  0.00     0.281 HD
HETATM    4  C   UNL     1       7.241  27.888  53.629  1.00  0.00     0.236 C 
HETATM    5  C   UNL     1       6.170  28.192  52.595  1.00  0.00     0.028 C 
HETATM    6  C   UNL     1       5.281  26.989  52.325  1.00  0.00     0.004 C 
HETATM    7  C   UNL     1       4.670  26.462  53.618  1.00  0.00     0.040 C 
ENDROOT
BRANCH   2   8
HETATM    8  C   UNL     1       7.651  27.220  55.994  1.00  0.00     0.294 C 
BRANCH   8   9
HETATM    9  C   UNL     1       7.730  28.390  56.892  1.00  0.00     0.061 A 
HETATM   10  N   UNL     1       8.853  29.176  57.061  1.00  0.00    -0.305 N 
HETATM   11  C   UNL     1       8.527  30.125  58.000  1.00  0.00     0.151 A 
HETATM   12  C   UNL     1      10.129  29.157  56.522  1.00  0.00     0.118 A 
HETATM   13  C   UNL     1       9.532  31.069  58.409  1.00  0.00     0.167 A 
HETATM   14  N   UNL     1       7.287  30.022  58.413  1.00  0.00    -0.239 NA
HETATM   15  N   UNL     1      10.740  31.030  57.912  1.00  0.00    -0.268 NA
HETATM   16  C   UNL     1      11.018  30.068  56.957  1.00  0.00     0.134 A 
HETATM   17  C   UNL     1       6.771  28.976  57.700  1.00  0.00     0.146 A 
ENDBRANCH   8   9
ENDBRANCH   2   8
BRANCH   1  18
HETATM   18  C   UNL     1       6.411  24.876  54.547  1.00  0.00     0.041 A 
HETATM   19  N   UNL     1       6.676  24.063  55.634  1.00  0.00    -0.357 N 
HETATM   20  C   UNL     1       7.416  22.969  55.255  1.00  0.00     0.042 A 
HETATM   21  H   UNL     1       6.405  24.239  56.594  1.00  0.00     0.166 HD
HETATM   22  C   UNL     1       7.556  23.026  53.872  1.00  0.00    -0.008 A 
HETATM   23  C   UNL     1       7.955  21.934  56.027  1.00  0.00     0.030 A 
HETATM   24  C   UNL     1       8.258  21.998  53.216  1.00  0.00     0.014 A 
HETATM   25  C   UNL     1       6.899  24.208  53.437  1.00  0.00     0.040 A 
HETATM   26  C   UNL     1       8.806  20.955  53.972  1.00  0.00     0.001 A 
HETATM   27  C   UNL     1       8.657  20.928  55.357  1.00  0.00     0.002 A 
ENDBRANCH   1  18
TORSDOF 3
ENDMDL
MODEL 4
REMARK VINA RESULT:      -9.2      3.613      6.340
REMARK  3 active torsions:
REMARK  status: ('A' for Active; 'I' for Inactive)
REMARK    1  A    between atoms: C_7  and  C_8 
REMARK    2  A    between atoms: N_9  and  C_11 
REMARK    3  A    between atoms: C_11  and  C_12 
ROOT
HETATM    1  C   UNL     1       7.389  26.737  54.882  1.00  0.00     0.238 C 
HETATM    2  N   UNL     1       5.975  27.236  54.621  1.00  0.00    -0.056 N 
HETATM    3  H   UNL     1       6.072  28.248  54.482  1.00  0.00     0.281 HD
HETATM    4  C   UNL     1       5.027  27.076  55.783  1.00  0.00     0.236 C 
HETATM    5  C   UNL     1       5.597  27.741  57.025  1.00  0.00     0.028 C 
HETATM    6  C   UNL     1       6.981  27.213  57.369  1.00  0.00     0.004 C 
HETATM    7  C   UNL     1       7.927  27.348  56.183  1.00  0.00     0.040 C 
ENDROOT
BRANCH   2   8
HETATM    8  C   UNL     1       5.354  26.713  53.340  1.00  0.00     0.294 C 
BRANCH   8   9
HETATM    9  C   UNL     1       5.431  27.680  52.227  1.00  0.00     0.061 A 
HETATM   10  N   UNL     1       5.143  27.385  50.908  1.00  0.00    -0.305 N 
HETATM   11  C   UNL     1       5.371  28.535  50.192  1.00  0.00     0.151 A 
HETATM   12  C   UNL     1       4.732  26.239  50.249  1.00  0.00     0.118 A 
HETATM   13  C   UNL     1       5.189  28.510  48.766  1.00  0.00     0.167 A 
HETATM   14  N   UNL     1       5.750  29.536  50.950  1.00  0.00    -0.239 NA
HETATM   15  N   UNL     1       4.823  27.418  48.148  1.00  0.00    -0.268 NA
HETATM   16  C   UNL     1       4.589  26.289  48.912  1.00  0.00     0.134 A 
HETATM   17  C   UNL     1       5.748  29.028  52.219  1.00  0.00     0.146 A 
ENDBRANCH   8   9
ENDBRANCH   2   8
BRANCH   1  18
HETATM   18  C   UNL     1       7.546  25.250  54.818  1.00  0.00     0.041 A 
HETATM   19  N   UNL     1       7.882  24.626  53.630  1.00  0.00    -0.357 N 
HETATM   20  C   UNL     1       7.882  23.260  53.782  1.00  0.00     0.042 A 
HETATM   21  H   UNL     1       8.075  25.082  52.747  1.00  0.00     0.166 HD
HETATM   22  C   UNL     1       7.629  22.995  55.124  1.00  0.00    -0.008 A 
HETATM   23  C   UNL     1       8.099  22.249  52.839  1.00  0.00     0.030 A 
HETATM   24  C   UNL     1       7.601  21.657  55.559  1.00  0.00     0.014 A 
HETATM   25  C   UNL     1       7.449  24.248  55.768  1.00  0.00     0.040 A 
HETATM   26  C   UNL     1       7.814  20.632  54.630  1.00  0.00     0.001 A 
HETATM   27  C   UNL     1       8.056  20.927  53.290  1.00  0.00     0.002 A 
ENDBRANCH   1  18
TORSDOF 3
ENDMDL
MODEL 5
REMARK VINA RESULT:      -8.9      1.815      2.879
REMARK  3 active torsions:
REMARK  status: ('A' for Active; 'I' for Inactive)
REMARK    1  A    between atoms: C_7  and  C_8 
REMARK    2  A    between atoms: N_9  and  C_11 
REMARK    3  A    between atoms: C_11  and  C_12 
ROOT
HETATM    1  C   UNL     1       5.734  25.556  54.700  1.00  0.00     0.238 C 
HETATM    2  N   UNL     1       6.517  26.804  55.080  1.00  0.00    -0.056 N 
HETATM    3  H   UNL     1       5.806  27.528  55.233  1.00  0.00     0.281 HD
HETATM    4  C   UNL     1       7.412  27.340  53.991  1.00  0.00     0.236 C 
HETATM    5  C   UNL     1       6.611  27.589  52.724  1.00  0.00     0.028 C 
HETATM    6  C   UNL     1       5.873  26.343  52.263  1.00  0.00     0.004 C 
HETATM    7  C   UNL     1       4.994  25.786  53.376  1.00  0.00     0.040 C 
ENDROOT
BRANCH   2   8
HETATM    8  C   UNL     1       7.268  26.695  56.393  1.00  0.00     0.294 C 
BRANCH   8   9
HETATM    9  C   UNL     1       7.592  28.010  56.981  1.00  0.00     0.061 A 
HETATM   10  N   UNL     1       6.657  28.960  57.345  1.00  0.00    -0.305 N 
HETATM   11  C   UNL     1       7.362  30.043  57.812  1.00  0.00     0.151 A 
HETATM   12  C   UNL     1       5.274  29.013  57.298  1.00  0.00     0.118 A 
HETATM   13  C   UNL     1       6.638  31.214  58.227  1.00  0.00     0.167 A 
HETATM   14  N   UNL     1       8.659  29.845  57.801  1.00  0.00    -0.239 NA
HETATM   15  N   UNL     1       5.334  31.264  58.159  1.00  0.00    -0.268 NA
HETATM   16  C   UNL     1       4.666  30.144  57.698  1.00  0.00     0.134 A 
HETATM   17  C   UNL     1       8.810  28.571  57.329  1.00  0.00     0.146 A 
ENDBRANCH   8   9
ENDBRANCH   2   8
BRANCH   1  18
HETATM   18  C   UNL     1       6.533  24.290  54.719  1.00  0.00     0.041 A 
HETATM   19  N   UNL     1       6.899  23.670  53.539  1.00  0.00    -0.357 N 
HETATM   20  C   UNL     1       7.544  22.483  53.794  1.00  0.00     0.042 A 
HETATM   21  H   UNL     1       6.706  24.001  52.602  1.00  0.00     0.166 HD
HETATM   22  C   UNL     1       7.680  22.376  55.174  1.00  0.00    -0.008 A 
HETATM   23  C   UNL     1       8.025  21.511  52.910  1.00  0.00     0.030 A 
HETATM   24  C   UNL     1       8.337  21.253  55.709  1.00  0.00     0.014 A 
HETATM   25  C   UNL     1       7.069  23.526  55.742  1.00  0.00     0.040 A 
HETATM   26  C   UNL     1       8.823  20.269  54.840  1.00  0.00     0.001 A 
HETATM   27  C   UNL     1       8.665  20.398  53.461  1.00  0.00     0.002 A 
ENDBRANCH   1  18
TORSDOF 3
ENDMDL
MODEL 6
REMARK VINA RESULT:      -8.8      3.568      7.137
REMARK  3 active torsions:
REMARK  status: ('A' for Active; 'I' for Inactive)
REMARK    1  A    between atoms: C_7  and  C_8 
REMARK    2  A    between atoms: N_9  and  C_11 
REMARK    3  A    between atoms: C_11  and  C_12 
ROOT
HETATM    1  C   UNL     1       5.281  26.697  53.989  1.00  0.00     0.238 C 
HETATM    2  N   UNL     1       6.668  26.314  54.485  1.00  0.00    -0.056 N 
HETATM    3  H   UNL     1       6.518  25.935  55.427  1.00  0.00     0.281 HD
HETATM    4  C   UNL     1       7.616  27.473  54.660  1.00  0.00     0.236 C 
HETATM    5  C   UNL     1       7.004  28.522  55.574  1.00  0.00     0.028 C 
HETATM    6  C   UNL     1       5.649  28.993  55.072  1.00  0.00     0.004 C 
HETATM    7  C   UNL     1       4.704  27.816  54.866  1.00  0.00     0.040 C 
ENDROOT
BRANCH   2   8
HETATM    8  C   UNL     1       7.324  25.192  53.702  1.00  0.00     0.294 C 
BRANCH   8   9
HETATM    9  C   UNL     1       7.833  24.108  54.566  1.00  0.00     0.061 A 
HETATM   10  N   UNL     1       8.020  22.802  54.160  1.00  0.00    -0.305 N 
HETATM   11  C   UNL     1       8.466  22.110  55.260  1.00  0.00     0.151 A 
HETATM   12  C   UNL     1       7.829  22.132  52.963  1.00  0.00     0.118 A 
HETATM   13  C   UNL     1       8.709  20.698  55.139  1.00  0.00     0.167 A 
HETATM   14  N   UNL     1       8.604  22.876  56.316  1.00  0.00    -0.239 NA
HETATM   15  N   UNL     1       8.505  20.070  54.012  1.00  0.00    -0.268 NA
HETATM   16  C   UNL     1       8.072  20.809  52.926  1.00  0.00     0.134 A 
HETATM   17  C   UNL     1       8.255  24.125  55.885  1.00  0.00     0.146 A 
ENDBRANCH   8   9
ENDBRANCH   2   8
BRANCH   1  18
HETATM   18  C   UNL     1       5.204  26.995  52.524  1.00  0.00     0.041 A 
HETATM   19  N   UNL     1       4.632  26.090  51.649  1.00  0.00    -0.357 N 
HETATM   20  C   UNL     1       4.751  26.526  50.351  1.00  0.00     0.042 A 
HETATM   21  H   UNL     1       4.205  25.205  51.896  1.00  0.00     0.166 HD
HETATM   22  C   UNL     1       5.334  27.789  50.394  1.00  0.00    -0.008 A 
HETATM   23  C   UNL     1       4.376  25.907  49.154  1.00  0.00     0.030 A 
HETATM   24  C   UNL     1       5.548  28.481  49.187  1.00  0.00     0.014 A 
HETATM   25  C   UNL     1       5.587  28.084  51.760  1.00  0.00     0.040 A 
HETATM   26  C   UNL     1       5.180  27.876  47.979  1.00  0.00     0.001 A 
HETATM   27  C   UNL     1       4.606  26.606  47.967  1.00  0.00     0.002 A 
ENDBRANCH   1  18
TORSDOF 3
ENDMDL
MODEL 7
REMARK VINA RESULT:      -8.1      4.513      6.974
REMARK  3 active torsions:
REMARK  status: ('A' for Active; 'I' for Inactive)
REMARK    1  A    between atoms: C_7  and  C_8 
REMARK    2  A    between atoms: N_9  and  C_11 
REMARK    3  A    between atoms: C_11  and  C_12 
ROOT
HETATM    1  C   UNL     1       6.861  27.298  53.337  1.00  0.00     0.238 C 
HETATM    2  N   UNL     1       5.672  27.438  52.399  1.00  0.00    -0.056 N 
HETATM    3  H   UNL     1       5.731  28.395  52.035  1.00  0.00     0.281 HD
HETATM    4  C   UNL     1       4.325  27.341  53.070  1.00  0.00     0.236 C 
HETATM    5  C   UNL     1       4.224  28.355  54.198  1.00  0.00     0.028 C 
HETATM    6  C   UNL     1       5.352  28.200  55.206  1.00  0.00     0.004 C 
HETATM    7  C   UNL     1       6.710  28.266  54.519  1.00  0.00     0.040 C 
ENDROOT
BRANCH   2   8
HETATM    8  C   UNL     1       5.732  26.541  51.176  1.00  0.00     0.294 C 
BRANCH   8   9
HETATM    9  C   UNL     1       4.959  27.071  50.035  1.00  0.00     0.061 A 
HETATM   10  N   UNL     1       5.016  28.376  49.585  1.00  0.00    -0.305 N 
HETATM   11  C   UNL     1       4.128  28.467  48.541  1.00  0.00     0.151 A 
HETATM   12  C   UNL     1       5.722  29.498  49.983  1.00  0.00     0.118 A 
HETATM   13  C   UNL     1       3.946  29.740  47.896  1.00  0.00     0.167 A 
HETATM   14  N   UNL     1       3.539  27.325  48.276  1.00  0.00    -0.239 NA
HETATM   15  N   UNL     1       4.599  30.800  48.293  1.00  0.00    -0.268 NA
HETATM   16  C   UNL     1       5.495  30.656  49.337  1.00  0.00     0.134 A 
HETATM   17  C   UNL     1       4.080  26.443  49.169  1.00  0.00     0.146 A 
ENDBRANCH   8   9
ENDBRANCH   2   8
BRANCH   1  18
HETATM   18  C   UNL     1       7.160  25.893  53.759  1.00  0.00     0.041 A 
HETATM   19  N   UNL     1       7.782  25.014  52.892  1.00  0.00    -0.357 N 
HETATM   20  C   UNL     1       7.874  23.762  53.452  1.00  0.00     0.042 A 
HETATM   21  H   UNL     1       8.106  25.223  51.955  1.00  0.00     0.166 HD
HETATM   22  C   UNL     1       7.383  23.855  54.750  1.00  0.00    -0.008 A 
HETATM   23  C   UNL     1       8.365  22.568  52.913  1.00  0.00     0.030 A 
HETATM   24  C   UNL     1       7.388  22.707  55.564  1.00  0.00     0.014 A 
HETATM   25  C   UNL     1       6.966  25.200  54.941  1.00  0.00     0.040 A 
HETATM   26  C   UNL     1       7.873  21.503  55.042  1.00  0.00     0.001 A 
HETATM   27  C   UNL     1       8.351  21.437  53.734  1.00  0.00     0.002 A 
ENDBRANCH   1  18
TORSDOF 3
ENDMDL
MODEL 8
REMARK VINA RESULT:      -8.1      4.224      7.849
REMARK  3 active torsions:
REMARK  status: ('A' for Active; 'I' for Inactive)
REMARK    1  A    between atoms: C_7  and  C_8 
REMARK    2  A    between atoms: N_9  and  C_11 
REMARK    3  A    between atoms: C_11  and  C_12 
ROOT
HETATM    1  C   UNL     1       5.636  25.254  54.154  1.00  0.00     0.238 C 
HETATM    2  N   UNL     1       5.534  25.694  52.701  1.00  0.00    -0.056 N 
HETATM    3  H   UNL     1       5.096  24.905  52.214  1.00  0.00     0.281 HD
HETATM    4  C   UNL     1       6.860  25.909  52.015  1.00  0.00     0.236 C 
HETATM    5  C   UNL     1       7.719  24.661  52.125  1.00  0.00     0.028 C 
HETATM    6  C   UNL     1       7.914  24.229  53.569  1.00  0.00     0.004 C 
HETATM    7  C   UNL     1       6.573  24.043  54.268  1.00  0.00     0.040 C 
ENDROOT
BRANCH   2   8
HETATM    8  C   UNL     1       4.608  26.872  52.469  1.00  0.00     0.294 C 
BRANCH   8   9
HETATM    9  C   UNL     1       5.033  27.726  51.342  1.00  0.00     0.061 A 
HETATM   10  N   UNL     1       4.870  27.405  50.008  1.00  0.00    -0.305 N 
HETATM   11  C   UNL     1       5.426  28.434  49.288  1.00  0.00     0.151 A 
HETATM   12  C   UNL     1       4.323  26.321  49.341  1.00  0.00     0.118 A 
HETATM   13  C   UNL     1       5.437  28.349  47.852  1.00  0.00     0.167 A 
HETATM   14  N   UNL     1       5.898  29.389  50.053  1.00  0.00    -0.239 NA
HETATM   15  N   UNL     1       4.939  27.312  47.232  1.00  0.00    -0.268 NA
HETATM   16  C   UNL     1       4.374  26.308  47.997  1.00  0.00     0.134 A 
HETATM   17  C   UNL     1       5.620  28.980  51.327  1.00  0.00     0.146 A 
ENDBRANCH   8   9
ENDBRANCH   2   8
BRANCH   1  18
HETATM   18  C   UNL     1       5.968  26.351  55.116  1.00  0.00     0.041 A 
HETATM   19  N   UNL     1       4.974  27.165  55.628  1.00  0.00    -0.357 N 
HETATM   20  C   UNL     1       5.514  28.155  56.415  1.00  0.00     0.042 A 
HETATM   21  H   UNL     1       3.981  27.088  55.444  1.00  0.00     0.166 HD
HETATM   22  C   UNL     1       6.883  27.923  56.487  1.00  0.00    -0.008 A 
HETATM   23  C   UNL     1       4.892  29.223  57.072  1.00  0.00     0.030 A 
HETATM   24  C   UNL     1       7.680  28.787  57.260  1.00  0.00     0.014 A 
HETATM   25  C   UNL     1       7.152  26.775  55.694  1.00  0.00     0.040 A 
HETATM   26  C   UNL     1       7.077  29.861  57.924  1.00  0.00     0.001 A 
HETATM   27  C   UNL     1       5.703  30.075  57.826  1.00  0.00     0.002 A 
ENDBRANCH   1  18
TORSDOF 3
ENDMDL
MODEL 9
REMARK VINA RESULT:      -7.9      3.184      7.510
REMARK  3 active torsions:
REMARK  status: ('A' for Active; 'I' for Inactive)
REMARK    1  A    between atoms: C_7  and  C_8 
REMARK    2  A    between atoms: N_9  and  C_11 
REMARK    3  A    between atoms: C_11  and  C_12 
ROOT
HETATM    1  C   UNL     1       5.962  27.057  56.111  1.00  0.00     0.238 C 
HETATM    2  N   UNL     1       6.202  26.679  54.657  1.00  0.00    -0.056 N 
HETATM    3  H   UNL     1       5.327  26.240  54.348  1.00  0.00     0.281 HD
HETATM    4  C   UNL     1       7.273  25.638  54.445  1.00  0.00     0.236 C 
HETATM    5  C   UNL     1       6.971  24.396  55.267  1.00  0.00     0.028 C 
HETATM    6  C   UNL     1       6.802  24.717  56.743  1.00  0.00     0.004 C 
HETATM    7  C   UNL     1       5.741  25.791  56.950  1.00  0.00     0.040 C 
ENDROOT
BRANCH   2   8
HETATM    8  C   UNL     1       6.406  27.861  53.730  1.00  0.00     0.294 C 
BRANCH   8   9
HETATM    9  C   UNL     1       5.156  28.310  53.085  1.00  0.00     0.061 A 
HETATM   10  N   UNL     1       4.808  28.044  51.775  1.00  0.00    -0.305 N 
HETATM   11  C   UNL     1       3.600  28.663  51.558  1.00  0.00     0.151 A 
HETATM   12  C   UNL     1       5.418  27.354  50.740  1.00  0.00     0.118 A 
HETATM   13  C   UNL     1       3.009  28.587  50.250  1.00  0.00     0.167 A 
HETATM   14  N   UNL     1       3.144  29.270  52.628  1.00  0.00    -0.239 NA
HETATM   15  N   UNL     1       3.602  27.954  49.273  1.00  0.00    -0.268 NA
HETATM   16  C   UNL     1       4.808  27.332  49.542  1.00  0.00     0.134 A 
HETATM   17  C   UNL     1       4.080  29.020  53.592  1.00  0.00     0.146 A 
ENDBRANCH   8   9
ENDBRANCH   2   8
BRANCH   1  18
HETATM   18  C   UNL     1       6.987  27.979  56.692  1.00  0.00     0.041 A 
HETATM   19  N   UNL     1       6.627  28.944  57.614  1.00  0.00    -0.357 N 
HETATM   20  C   UNL     1       7.705  29.732  57.942  1.00  0.00     0.042 A 
HETATM   21  H   UNL     1       5.699  29.097  57.992  1.00  0.00     0.166 HD
HETATM   22  C   UNL     1       8.812  29.206  57.284  1.00  0.00    -0.008 A 
HETATM   23  C   UNL     1       7.782  30.853  58.775  1.00  0.00     0.030 A 
HETATM   24  C   UNL     1      10.067  29.816  57.469  1.00  0.00     0.014 A 
HETATM   25  C   UNL     1       8.357  28.093  56.528  1.00  0.00     0.040 A 
HETATM   26  C   UNL     1      10.164  30.940  58.298  1.00  0.00     0.001 A 
HETATM   27  C   UNL     1       9.035  31.450  58.938  1.00  0.00     0.002 A 
ENDBRANCH   1  18
TORSDOF 3
ENDMDL
MODEL 10
REMARK VINA RESULT:      -7.8      4.157      7.712
REMARK  3 active torsions:
REMARK  status: ('A' for Active; 'I' for Inactive)
REMARK    1  A    between atoms: C_7  and  C_8 
REMARK    2  A    between atoms: N_9  and  C_11 
REMARK    3  A    between atoms: C_11  and  C_12 
ROOT
HETATM    1  C   UNL     1       5.862  25.839  54.432  1.00  0.00     0.238 C 
HETATM    2  N   UNL     1       6.269  26.007  52.976  1.00  0.00    -0.056 N 
HETATM    3  H   UNL     1       5.703  25.324  52.461  1.00  0.00     0.281 HD
HETATM    4  C   UNL     1       7.704  25.650  52.678  1.00  0.00     0.236 C 
HETATM    5  C   UNL     1       8.003  24.236  53.146  1.00  0.00     0.028 C 
HETATM    6  C   UNL     1       7.685  24.045  54.621  1.00  0.00     0.004 C 
HETATM    7  C   UNL     1       6.244  24.436  54.923  1.00  0.00     0.040 C 
ENDROOT
BRANCH   2   8
HETATM    8  C   UNL     1       5.912  27.355  52.379  1.00  0.00     0.294 C 
BRANCH   8   9
HETATM    9  C   UNL     1       5.387  27.254  51.002  1.00  0.00     0.061 A 
HETATM   10  N   UNL     1       5.292  28.310  50.118  1.00  0.00    -0.305 N 
HETATM   11  C   UNL     1       4.724  27.810  48.971  1.00  0.00     0.151 A 
HETATM   12  C   UNL     1       5.612  29.656  50.192  1.00  0.00     0.118 A 
HETATM   13  C   UNL     1       4.464  28.708  47.878  1.00  0.00     0.167 A 
HETATM   14  N   UNL     1       4.482  26.523  49.047  1.00  0.00    -0.239 NA
HETATM   15  N   UNL     1       4.748  29.980  47.965  1.00  0.00    -0.268 NA
HETATM   16  C   UNL     1       5.334  30.436  49.132  1.00  0.00     0.134 A 
HETATM   17  C   UNL     1       4.930  26.160  50.286  1.00  0.00     0.146 A 
ENDBRANCH   8   9
ENDBRANCH   2   8
BRANCH   1  18
HETATM   18  C   UNL     1       6.333  26.932  55.340  1.00  0.00     0.041 A 
HETATM   19  N   UNL     1       7.683  27.135  55.558  1.00  0.00    -0.357 N 
HETATM   20  C   UNL     1       7.882  28.125  56.491  1.00  0.00     0.042 A 
HETATM   21  H   UNL     1       8.444  26.621  55.131  1.00  0.00     0.166 HD
HETATM   22  C   UNL     1       6.631  28.639  56.818  1.00  0.00    -0.008 A 
HETATM   23  C   UNL     1       9.068  28.608  57.054  1.00  0.00     0.030 A 
HETATM   24  C   UNL     1       6.550  29.696  57.743  1.00  0.00     0.014 A 
HETATM   25  C   UNL     1       5.671  27.904  56.070  1.00  0.00     0.040 A 
HETATM   26  C   UNL     1       7.726  30.191  58.319  1.00  0.00     0.001 A 
HETATM   27  C   UNL     1       8.965  29.651  57.979  1.00  0.00     0.002 A 
ENDBRANCH   1  18
TORSDOF 3
ENDMDL
