MODEL 1
REMARK VINA RESULT:      -9.5      0.000      0.000
REMARK  4 active torsions:
REMARK  status: ('A' for Active; 'I' for Inactive)
REMARK    1  A    between atoms: C_5  and  C_6 
REMARK    2  A    between atoms: C_6  and  N_7 
REMARK    3  A    between atoms: C_6  and  C_18 
REMARK    4  A    between atoms: N_7  and  C_8 
ROOT
HETATM    1  C   UNL     1       7.141  24.175  55.128  1.00  0.00     0.290 C 
ENDROOT
BRANCH   1   2
HETATM    2  C   UNL     1       7.661  22.736  55.134  1.00  0.00     0.021 A 
HETATM    3  C   UNL     1       7.714  21.958  53.962  1.00  0.00     0.055 A 
HETATM    4  C   UNL     1       8.246  20.668  53.977  1.00  0.00     0.117 A 
HETATM    5  C   UNL     1       8.778  20.123  55.136  1.00  0.00     0.045 A 
HETATM    6  F   UNL     1       8.252  19.949  52.848  1.00  0.00    -0.206 F 
HETATM    7  C   UNL     1       8.790  20.889  56.295  1.00  0.00     0.046 A 
HETATM    8  C   UNL     1       8.251  22.179  56.285  1.00  0.00     0.125 A 
HETATM    9  F   UNL     1       8.319  22.876  57.427  1.00  0.00    -0.205 F 
ENDBRANCH   1   2
BRANCH   1  10
HETATM   10  N   UNL     1       6.248  24.545  56.252  1.00  0.00     0.101 NA
HETATM   11  H   UNL     1       6.230  23.742  56.882  1.00  0.00     0.317 HD
BRANCH  10  12
HETATM   12  C   UNL     1       6.504  25.769  57.015  1.00  0.00     0.225 C 
HETATM   13  C   UNL     1       7.878  26.407  56.728  1.00  0.00     0.069 C 
HETATM   14  C   UNL     1       7.995  27.732  57.457  1.00  0.00     0.190 C 
HETATM   15  N   UNL     1       6.897  28.639  56.977  1.00  0.00    -0.067 N 
HETATM   16  C   UNL     1       9.221  28.572  57.166  1.00  0.00     0.035 C 
HETATM   17  H   UNL     1       6.946  28.677  55.948  1.00  0.00     0.280 HD
HETATM   18  C   UNL     1       5.542  28.124  57.334  1.00  0.00     0.237 C 
HETATM   19  C   UNL     1       7.266  30.015  57.465  1.00  0.00     0.235 C 
HETATM   20  C   UNL     1       5.366  26.762  56.668  1.00  0.00     0.063 C 
HETATM   21  C   UNL     1       8.787  29.967  57.614  1.00  0.00     0.030 C 
ENDBRANCH  10  12
ENDBRANCH   1  10
BRANCH   1  22
HETATM   22  C   UNL     1       6.620  24.751  53.810  1.00  0.00    -0.018 A 
HETATM   23  C   UNL     1       5.238  24.780  53.570  1.00  0.00     0.029 A 
HETATM   24  C   UNL     1       4.774  25.250  52.351  1.00  0.00     0.116 A 
HETATM   25  N   UNL     1       5.580  25.681  51.362  1.00  0.00    -0.273 NA
HETATM   26  C   UNL     1       6.905  25.661  51.602  1.00  0.00     0.116 A 
HETATM   27  C   UNL     1       7.465  25.202  52.785  1.00  0.00     0.029 A 
ENDBRANCH   1  22
TORSDOF 4
ENDMDL
MODEL 2
REMARK VINA RESULT:      -8.8      3.043      6.761
REMARK  4 active torsions:
REMARK  status: ('A' for Active; 'I' for Inactive)
REMARK    1  A    between atoms: C_5  and  C_6 
REMARK    2  A    between atoms: C_6  and  N_7 
REMARK    3  A    between atoms: C_6  and  C_18 
REMARK    4  A    between atoms: N_7  and  C_8 
ROOT
HETATM    1  C   UNL     1       7.447  27.204  56.383  1.00  0.00     0.290 C 
ENDROOT
BRANCH   1   2
HETATM    2  C   UNL     1       7.995  28.404  57.160  1.00  0.00     0.021 A 
HETATM    3  C   UNL     1       9.355  28.766  57.110  1.00  0.00     0.055 A 
HETATM    4  C   UNL     1       9.823  29.897  57.779  1.00  0.00     0.117 A 
HETATM    5  C   UNL     1       8.962  30.727  58.480  1.00  0.00     0.045 A 
HETATM    6  F   UNL     1      11.129  30.191  57.731  1.00  0.00    -0.206 F 
HETATM    7  C   UNL     1       7.605  30.426  58.499  1.00  0.00     0.046 A 
HETATM    8  C   UNL     1       7.134  29.289  57.836  1.00  0.00     0.125 A 
HETATM    9  F   UNL     1       5.812  29.070  57.869  1.00  0.00    -0.205 F 
ENDBRANCH   1   2
BRANCH   1  10
HETATM   10  N   UNL     1       8.393  26.084  56.172  1.00  0.00     0.101 NA
HETATM   11  H   UNL     1       9.016  26.076  56.981  1.00  0.00     0.317 HD
BRANCH  10  12
HETATM   12  C   UNL     1       7.882  24.733  55.927  1.00  0.00     0.225 C 
HETATM   13  C   UNL     1       8.052  24.257  54.470  1.00  0.00     0.069 C 
HETATM   14  C   UNL     1       7.620  22.809  54.345  1.00  0.00     0.190 C 
HETATM   15  N   UNL     1       8.472  21.976  55.262  1.00  0.00    -0.067 N 
HETATM   16  C   UNL     1       7.865  22.129  53.015  1.00  0.00     0.035 C 
HETATM   17  H   UNL     1       9.460  22.180  55.045  1.00  0.00     0.280 HD
HETATM   18  C   UNL     1       8.258  22.318  56.699  1.00  0.00     0.237 C 
HETATM   19  C   UNL     1       8.238  20.548  54.847  1.00  0.00     0.235 C 
HETATM   20  C   UNL     1       8.633  23.785  56.895  1.00  0.00     0.063 C 
HETATM   21  C   UNL     1       7.816  20.646  53.380  1.00  0.00     0.030 C 
ENDBRANCH  10  12
ENDBRANCH   1  10
BRANCH   1  22
HETATM   22  C   UNL     1       6.633  27.473  55.116  1.00  0.00    -0.018 A 
HETATM   23  C   UNL     1       5.257  27.197  55.112  1.00  0.00     0.029 A 
HETATM   24  C   UNL     1       4.533  27.389  53.945  1.00  0.00     0.116 A 
HETATM   25  N   UNL     1       5.079  27.823  52.792  1.00  0.00    -0.273 NA
HETATM   26  C   UNL     1       6.398  28.095  52.805  1.00  0.00     0.116 A 
HETATM   27  C   UNL     1       7.205  27.929  53.920  1.00  0.00     0.029 A 
ENDBRANCH   1  22
TORSDOF 4
ENDMDL
MODEL 3
REMARK VINA RESULT:      -8.7      2.238      5.087
REMARK  4 active torsions:
REMARK  status: ('A' for Active; 'I' for Inactive)
REMARK    1  A    between atoms: C_5  and  C_6 
REMARK    2  A    between atoms: C_6  and  N_7 
REMARK    3  A    between atoms: C_6  and  C_18 
REMARK    4  A    between atoms: N_7  and  C_8 
ROOT
HETATM    1  C   UNL     1       5.907  25.462  55.303  1.00  0.00     0.290 C 
ENDROOT
BRANCH   1   2
HETATM    2  C   UNL     1       6.881  24.300  55.099  1.00  0.00     0.021 A 
HETATM    3  C   UNL     1       7.043  23.673  53.849  1.00  0.00     0.055 A 
HETATM    4  C   UNL     1       7.979  22.655  53.670  1.00  0.00     0.117 A 
HETATM    5  C   UNL     1       8.811  22.252  54.703  1.00  0.00     0.045 A 
HETATM    6  F   UNL     1       8.082  22.064  52.473  1.00  0.00    -0.206 F 
HETATM    7  C   UNL     1       8.713  22.891  55.933  1.00  0.00     0.046 A 
HETATM    8  C   UNL     1       7.771  23.908  56.118  1.00  0.00     0.125 A 
HETATM    9  F   UNL     1       7.747  24.504  57.318  1.00  0.00    -0.205 F 
ENDBRANCH   1   2
BRANCH   1  10
HETATM   10  N   UNL     1       4.842  25.600  54.282  1.00  0.00     0.101 NA
HETATM   11  H   UNL     1       3.986  25.834  54.788  1.00  0.00     0.317 HD
BRANCH  10  12
HETATM   12  C   UNL     1       5.023  26.524  53.160  1.00  0.00     0.225 C 
HETATM   13  C   UNL     1       4.902  25.854  51.776  1.00  0.00     0.069 C 
HETATM   14  C   UNL     1       4.968  26.906  50.685  1.00  0.00     0.190 C 
HETATM   15  N   UNL     1       3.838  27.876  50.889  1.00  0.00    -0.067 N 
HETATM   16  C   UNL     1       4.710  26.445  49.267  1.00  0.00     0.035 C 
HETATM   17  H   UNL     1       2.963  27.333  50.948  1.00  0.00     0.280 HD
HETATM   18  C   UNL     1       3.970  28.638  52.165  1.00  0.00     0.237 C 
HETATM   19  C   UNL     1       3.752  28.670  49.612  1.00  0.00     0.235 C 
HETATM   20  C   UNL     1       3.955  27.636  53.316  1.00  0.00     0.063 C 
HETATM   21  C   UNL     1       4.346  27.744  48.550  1.00  0.00     0.030 C 
ENDBRANCH  10  12
ENDBRANCH   1  10
BRANCH   1  22
HETATM   22  C   UNL     1       6.479  26.830  55.679  1.00  0.00    -0.018 A 
HETATM   23  C   UNL     1       5.822  27.609  56.644  1.00  0.00     0.029 A 
HETATM   24  C   UNL     1       6.312  28.871  56.941  1.00  0.00     0.116 A 
HETATM   25  N   UNL     1       7.394  29.410  56.345  1.00  0.00    -0.273 NA
HETATM   26  C   UNL     1       8.026  28.654  55.427  1.00  0.00     0.116 A 
HETATM   27  C   UNL     1       7.608  27.384  55.059  1.00  0.00     0.029 A 
ENDBRANCH   1  22
TORSDOF 4
ENDMDL
MODEL 4
REMARK VINA RESULT:      -8.5      3.028      6.583
REMARK  4 active torsions:
REMARK  status: ('A' for Active; 'I' for Inactive)
REMARK    1  A    between atoms: C_5  and  C_6 
REMARK    2  A    between atoms: C_6  and  N_7 
REMARK    3  A    between atoms: C_6  and  C_18 
REMARK    4  A    between atoms: N_7  and  C_8 
ROOT
HETATM    1  C   UNL     1       6.242  26.695  53.435  1.00  0.00     0.290 C 
ENDROOT
BRANCH   1   2
HETATM    2  C   UNL     1       6.449  27.740  54.534  1.00  0.00     0.021 A 
HETATM    3  C   UNL     1       7.725  28.241  54.856  1.00  0.00     0.055 A 
HETATM    4  C   UNL     1       7.885  29.236  55.821  1.00  0.00     0.117 A 
HETATM    5  C   UNL     1       6.793  29.795  56.466  1.00  0.00     0.045 A 
HETATM    6  F   UNL     1       9.118  29.665  56.119  1.00  0.00    -0.206 F 
HETATM    7  C   UNL     1       5.517  29.361  56.127  1.00  0.00     0.046 A 
HETATM    8  C   UNL     1       5.354  28.359  55.166  1.00  0.00     0.125 A 
HETATM    9  F   UNL     1       4.097  28.004  54.865  1.00  0.00    -0.205 F 
ENDBRANCH   1   2
BRANCH   1  10
HETATM   10  N   UNL     1       7.350  25.729  53.244  1.00  0.00     0.101 NA
HETATM   11  H   UNL     1       8.199  26.199  53.563  1.00  0.00     0.317 HD
BRANCH  10  12
HETATM   12  C   UNL     1       7.267  24.394  53.841  1.00  0.00     0.225 C 
HETATM   13  C   UNL     1       7.850  23.277  52.954  1.00  0.00     0.069 C 
HETATM   14  C   UNL     1       7.842  21.961  53.708  1.00  0.00     0.190 C 
HETATM   15  N   UNL     1       8.673  22.118  54.951  1.00  0.00    -0.067 N 
HETATM   16  C   UNL     1       8.523  20.782  53.044  1.00  0.00     0.035 C 
HETATM   17  H   UNL     1       9.597  22.478  54.669  1.00  0.00     0.280 HD
HETATM   18  C   UNL     1       8.086  23.107  55.901  1.00  0.00     0.237 C 
HETATM   19  C   UNL     1       8.906  20.720  55.461  1.00  0.00     0.235 C 
HETATM   20  C   UNL     1       8.020  24.458  55.194  1.00  0.00     0.063 C 
HETATM   21  C   UNL     1       8.784  19.839  54.217  1.00  0.00     0.030 C 
ENDBRANCH  10  12
ENDBRANCH   1  10
BRANCH   1  22
HETATM   22  C   UNL     1       5.691  27.161  52.087  1.00  0.00    -0.018 A 
HETATM   23  C   UNL     1       5.251  26.207  51.157  1.00  0.00     0.029 A 
HETATM   24  C   UNL     1       4.805  26.631  49.914  1.00  0.00     0.116 A 
HETATM   25  N   UNL     1       4.774  27.923  49.534  1.00  0.00    -0.273 NA
HETATM   26  C   UNL     1       5.187  28.835  50.435  1.00  0.00     0.116 A 
HETATM   27  C   UNL     1       5.657  28.508  51.698  1.00  0.00     0.029 A 
ENDBRANCH   1  22
TORSDOF 4
ENDMDL
MODEL 5
REMARK VINA RESULT:      -8.4      3.041      7.508
REMARK  4 active torsions:
REMARK  status: ('A' for Active; 'I' for Inactive)
REMARK    1  A    between atoms: C_5  and  C_6 
REMARK    2  A    between atoms: C_6  and  N_7 
REMARK    3  A    between atoms: C_6  and  C_18 
REMARK    4  A    between atoms: N_7  and  C_8 
ROOT
HETATM    1  C   UNL     1       7.281  28.207  56.627  1.00  0.00     0.290 C 
ENDROOT
BRANCH   1   2
HETATM    2  C   UNL     1       5.938  28.867  56.308  1.00  0.00     0.021 A 
HETATM    3  C   UNL     1       5.136  29.448  57.308  1.00  0.00     0.055 A 
HETATM    4  C   UNL     1       3.942  30.096  56.988  1.00  0.00     0.117 A 
HETATM    5  C   UNL     1       3.525  30.227  55.673  1.00  0.00     0.045 A 
HETATM    6  F   UNL     1       3.193  30.609  57.972  1.00  0.00    -0.206 F 
HETATM    7  C   UNL     1       4.325  29.713  54.659  1.00  0.00     0.046 A 
HETATM    8  C   UNL     1       5.518  29.057  54.977  1.00  0.00     0.125 A 
HETATM    9  F   UNL     1       6.258  28.610  53.953  1.00  0.00    -0.205 F 
ENDBRANCH   1   2
BRANCH   1  10
HETATM   10  N   UNL     1       7.224  27.019  57.510  1.00  0.00     0.101 NA
HETATM   11  H   UNL     1       6.400  27.138  58.101  1.00  0.00     0.317 HD
BRANCH  10  12
HETATM   12  C   UNL     1       7.228  25.675  56.927  1.00  0.00     0.225 C 
HETATM   13  C   UNL     1       7.303  25.664  55.387  1.00  0.00     0.069 C 
HETATM   14  C   UNL     1       7.437  24.238  54.886  1.00  0.00     0.190 C 
HETATM   15  N   UNL     1       8.689  23.644  55.467  1.00  0.00    -0.067 N 
HETATM   16  C   UNL     1       7.680  24.049  53.404  1.00  0.00     0.035 C 
HETATM   17  H   UNL     1       9.471  24.281  55.250  1.00  0.00     0.280 HD
HETATM   18  C   UNL     1       8.621  23.524  56.953  1.00  0.00     0.237 C 
HETATM   19  C   UNL     1       8.943  22.386  54.681  1.00  0.00     0.235 C 
HETATM   20  C   UNL     1       8.441  24.925  57.532  1.00  0.00     0.063 C 
HETATM   21  C   UNL     1       8.261  22.637  53.335  1.00  0.00     0.030 C 
ENDBRANCH  10  12
ENDBRANCH   1  10
BRANCH   1  22
HETATM   22  C   UNL     1       8.458  29.108  57.006  1.00  0.00    -0.018 A 
HETATM   23  C   UNL     1       9.501  29.300  56.086  1.00  0.00     0.029 A 
HETATM   24  C   UNL     1      10.592  30.072  56.454  1.00  0.00     0.116 A 
HETATM   25  N   UNL     1      10.721  30.652  57.663  1.00  0.00    -0.273 NA
HETATM   26  C   UNL     1       9.714  30.473  58.538  1.00  0.00     0.116 A 
HETATM   27  C   UNL     1       8.586  29.714  58.264  1.00  0.00     0.029 A 
ENDBRANCH   1  22
TORSDOF 4
ENDMDL
MODEL 6
REMARK VINA RESULT:      -8.4      3.030      6.637
REMARK  4 active torsions:
REMARK  status: ('A' for Active; 'I' for Inactive)
REMARK    1  A    between atoms: C_5  and  C_6 
REMARK    2  A    between atoms: C_6  and  N_7 
REMARK    3  A    between atoms: C_6  and  C_18 
REMARK    4  A    between atoms: N_7  and  C_8 
ROOT
HETATM    1  C   UNL     1       6.980  25.589  53.734  1.00  0.00     0.290 C 
ENDROOT
BRANCH   1   2
HETATM    2  C   UNL     1       6.902  26.532  54.937  1.00  0.00     0.021 A 
HETATM    3  C   UNL     1       7.667  27.712  55.010  1.00  0.00     0.055 A 
HETATM    4  C   UNL     1       7.537  28.588  56.088  1.00  0.00     0.117 A 
HETATM    5  C   UNL     1       6.624  28.350  57.104  1.00  0.00     0.045 A 
HETATM    6  F   UNL     1       8.304  29.685  56.135  1.00  0.00    -0.206 F 
HETATM    7  C   UNL     1       5.815  27.222  57.029  1.00  0.00     0.046 A 
HETATM    8  C   UNL     1       5.948  26.339  55.954  1.00  0.00     0.125 A 
HETATM    9  F   UNL     1       5.119  25.285  55.926  1.00  0.00    -0.205 F 
ENDBRANCH   1   2
BRANCH   1  10
HETATM   10  N   UNL     1       5.756  25.494  52.906  1.00  0.00     0.101 NA
HETATM   11  H   UNL     1       4.970  25.450  53.557  1.00  0.00     0.317 HD
BRANCH  10  12
HETATM   12  C   UNL     1       5.490  26.501  51.876  1.00  0.00     0.225 C 
HETATM   13  C   UNL     1       4.981  25.912  50.545  1.00  0.00     0.069 C 
HETATM   14  C   UNL     1       4.608  27.033  49.593  1.00  0.00     0.190 C 
HETATM   15  N   UNL     1       3.532  27.864  50.234  1.00  0.00    -0.067 N 
HETATM   16  C   UNL     1       3.942  26.638  48.292  1.00  0.00     0.035 C 
HETATM   17  H   UNL     1       2.769  27.230  50.515  1.00  0.00     0.280 HD
HETATM   18  C   UNL     1       4.009  28.553  51.468  1.00  0.00     0.237 C 
HETATM   19  C   UNL     1       2.975  28.725  49.131  1.00  0.00     0.235 C 
HETATM   20  C   UNL     1       4.447  27.484  52.465  1.00  0.00     0.063 C 
HETATM   21  C   UNL     1       3.264  27.935  47.853  1.00  0.00     0.030 C 
ENDBRANCH  10  12
ENDBRANCH   1  10
BRANCH   1  22
HETATM   22  C   UNL     1       7.607  24.209  53.937  1.00  0.00    -0.018 A 
HETATM   23  C   UNL     1       8.374  23.964  55.087  1.00  0.00     0.029 A 
HETATM   24  C   UNL     1       8.987  22.730  55.239  1.00  0.00     0.116 A 
HETATM   25  N   UNL     1       8.899  21.736  54.333  1.00  0.00    -0.273 NA
HETATM   26  C   UNL     1       8.154  21.973  53.237  1.00  0.00     0.116 A 
HETATM   27  C   UNL     1       7.508  23.177  52.993  1.00  0.00     0.029 A 
ENDBRANCH   1  22
TORSDOF 4
ENDMDL
MODEL 7
REMARK VINA RESULT:      -8.3      2.754      6.016
REMARK  4 active torsions:
REMARK  status: ('A' for Active; 'I' for Inactive)
REMARK    1  A    between atoms: C_5  and  C_6 
REMARK    2  A    between atoms: C_6  and  N_7 
REMARK    3  A    between atoms: C_6  and  C_18 
REMARK    4  A    between atoms: N_7  and  C_8 
ROOT
HETATM    1  C   UNL     1       5.332  26.990  54.589  1.00  0.00     0.290 C 
ENDROOT
BRANCH   1   2
HETATM    2  C   UNL     1       6.566  27.567  55.285  1.00  0.00     0.021 A 
HETATM    3  C   UNL     1       7.596  28.207  54.569  1.00  0.00     0.055 A 
HETATM    4  C   UNL     1       8.684  28.778  55.229  1.00  0.00     0.117 A 
HETATM    5  C   UNL     1       8.772  28.772  56.612  1.00  0.00     0.045 A 
HETATM    6  F   UNL     1       9.657  29.352  54.510  1.00  0.00    -0.206 F 
HETATM    7  C   UNL     1       7.742  28.197  57.348  1.00  0.00     0.046 A 
HETATM    8  C   UNL     1       6.653  27.618  56.690  1.00  0.00     0.125 A 
HETATM    9  F   UNL     1       5.681  27.106  57.457  1.00  0.00    -0.205 F 
ENDBRANCH   1   2
BRANCH   1  10
HETATM   10  N   UNL     1       5.295  25.515  54.454  1.00  0.00     0.101 NA
HETATM   11  H   UNL     1       4.739  25.316  53.621  1.00  0.00     0.317 HD
BRANCH  10  12
HETATM   12  C   UNL     1       6.546  24.754  54.410  1.00  0.00     0.225 C 
HETATM   13  C   UNL     1       6.725  23.780  55.591  1.00  0.00     0.069 C 
HETATM   14  C   UNL     1       7.975  22.946  55.388  1.00  0.00     0.190 C 
HETATM   15  N   UNL     1       7.833  22.178  54.103  1.00  0.00    -0.067 N 
HETATM   16  C   UNL     1       8.224  21.826  56.376  1.00  0.00     0.035 C 
HETATM   17  H   UNL     1       6.940  21.662  54.141  1.00  0.00     0.280 HD
HETATM   18  C   UNL     1       7.773  23.074  52.912  1.00  0.00     0.237 C 
HETATM   19  C   UNL     1       8.919  21.135  54.132  1.00  0.00     0.235 C 
HETATM   20  C   UNL     1       6.555  23.982  53.066  1.00  0.00     0.063 C 
HETATM   21  C   UNL     1       9.196  20.920  55.621  1.00  0.00     0.030 C 
ENDBRANCH  10  12
ENDBRANCH   1  10
BRANCH   1  22
HETATM   22  C   UNL     1       4.844  27.665  53.305  1.00  0.00    -0.018 A 
HETATM   23  C   UNL     1       3.885  28.687  53.388  1.00  0.00     0.029 A 
HETATM   24  C   UNL     1       3.404  29.257  52.219  1.00  0.00     0.116 A 
HETATM   25  N   UNL     1       3.799  28.878  50.988  1.00  0.00    -0.273 NA
HETATM   26  C   UNL     1       4.725  27.904  50.915  1.00  0.00     0.116 A 
HETATM   27  C   UNL     1       5.261  27.270  52.026  1.00  0.00     0.029 A 
ENDBRANCH   1  22
TORSDOF 4
ENDMDL
MODEL 8
REMARK VINA RESULT:      -8.2      3.039      7.313
REMARK  4 active torsions:
REMARK  status: ('A' for Active; 'I' for Inactive)
REMARK    1  A    between atoms: C_5  and  C_6 
REMARK    2  A    between atoms: C_6  and  N_7 
REMARK    3  A    between atoms: C_6  and  C_18 
REMARK    4  A    between atoms: N_7  and  C_8 
ROOT
HETATM    1  C   UNL     1       7.784  28.115  57.636  1.00  0.00     0.290 C 
ENDROOT
BRANCH   1   2
HETATM    2  C   UNL     1       8.515  29.399  58.036  1.00  0.00     0.021 A 
HETATM    3  C   UNL     1       8.134  30.152  59.164  1.00  0.00     0.055 A 
HETATM    4  C   UNL     1       8.850  31.287  59.545  1.00  0.00     0.117 A 
HETATM    5  C   UNL     1       9.982  31.690  58.855  1.00  0.00     0.045 A 
HETATM    6  F   UNL     1       8.439  31.993  60.606  1.00  0.00    -0.206 F 
HETATM    7  C   UNL     1      10.414  30.934  57.772  1.00  0.00     0.046 A 
HETATM    8  C   UNL     1       9.695  29.800  57.383  1.00  0.00     0.125 A 
HETATM    9  F   UNL     1      10.180  29.098  56.349  1.00  0.00    -0.205 F 
ENDBRANCH   1   2
BRANCH   1  10
HETATM   10  N   UNL     1       8.647  26.959  57.295  1.00  0.00     0.101 NA
HETATM   11  H   UNL     1       9.218  26.773  58.121  1.00  0.00     0.317 HD
BRANCH  10  12
HETATM   12  C   UNL     1       8.043  25.713  56.817  1.00  0.00     0.225 C 
HETATM   13  C   UNL     1       8.098  25.541  55.286  1.00  0.00     0.069 C 
HETATM   14  C   UNL     1       7.575  24.171  54.901  1.00  0.00     0.190 C 
HETATM   15  N   UNL     1       8.430  23.129  55.567  1.00  0.00    -0.067 N 
HETATM   16  C   UNL     1       7.700  23.769  53.446  1.00  0.00     0.035 C 
HETATM   17  H   UNL     1       9.413  23.328  55.328  1.00  0.00     0.280 HD
HETATM   18  C   UNL     1       8.322  23.176  57.055  1.00  0.00     0.237 C 
HETATM   19  C   UNL     1       8.088  21.829  54.888  1.00  0.00     0.235 C 
HETATM   20  C   UNL     1       8.793  24.552  57.518  1.00  0.00     0.063 C 
HETATM   21  C   UNL     1       7.585  22.247  53.505  1.00  0.00     0.030 C 
ENDBRANCH  10  12
ENDBRANCH   1  10
BRANCH   1  22
HETATM   22  C   UNL     1       6.612  28.224  56.659  1.00  0.00    -0.018 A 
HETATM   23  C   UNL     1       6.825  28.784  55.390  1.00  0.00     0.029 A 
HETATM   24  C   UNL     1       5.749  28.932  54.529  1.00  0.00     0.116 A 
HETATM   25  N   UNL     1       4.488  28.575  54.842  1.00  0.00    -0.273 NA
HETATM   26  C   UNL     1       4.292  28.030  56.057  1.00  0.00     0.116 A 
HETATM   27  C   UNL     1       5.303  27.846  56.989  1.00  0.00     0.029 A 
ENDBRANCH   1  22
TORSDOF 4
ENDMDL
MODEL 9
REMARK VINA RESULT:      -8.0      2.915      6.607
REMARK  4 active torsions:
REMARK  status: ('A' for Active; 'I' for Inactive)
REMARK    1  A    between atoms: C_5  and  C_6 
REMARK    2  A    between atoms: C_6  and  N_7 
REMARK    3  A    between atoms: C_6  and  C_18 
REMARK    4  A    between atoms: N_7  and  C_8 
ROOT
HETATM    1  C   UNL     1       6.251  28.520  57.289  1.00  0.00     0.290 C 
ENDROOT
BRANCH   1   2
HETATM    2  C   UNL     1       7.703  28.935  57.038  1.00  0.00     0.021 A 
HETATM    3  C   UNL     1       8.262  28.950  55.746  1.00  0.00     0.055 A 
HETATM    4  C   UNL     1       9.569  29.388  55.532  1.00  0.00     0.117 A 
HETATM    5  C   UNL     1      10.350  29.860  56.576  1.00  0.00     0.045 A 
HETATM    6  F   UNL     1      10.074  29.359  54.292  1.00  0.00    -0.206 F 
HETATM    7  C   UNL     1       9.805  29.910  57.854  1.00  0.00     0.046 A 
HETATM    8  C   UNL     1       8.498  29.466  58.072  1.00  0.00     0.125 A 
HETATM    9  F   UNL     1       8.022  29.566  59.321  1.00  0.00    -0.205 F 
ENDBRANCH   1   2
BRANCH   1  10
HETATM   10  N   UNL     1       5.943  27.086  57.079  1.00  0.00     0.101 NA
HETATM   11  H   UNL     1       4.931  27.024  56.956  1.00  0.00     0.317 HD
BRANCH  10  12
HETATM   12  C   UNL     1       6.619  26.342  56.014  1.00  0.00     0.225 C 
HETATM   13  C   UNL     1       7.521  25.201  56.527  1.00  0.00     0.069 C 
HETATM   14  C   UNL     1       8.067  24.408  55.355  1.00  0.00     0.190 C 
HETATM   15  N   UNL     1       6.910  23.841  54.582  1.00  0.00    -0.067 N 
HETATM   16  C   UNL     1       8.851  23.153  55.678  1.00  0.00     0.035 C 
HETATM   17  H   UNL     1       6.310  23.325  55.244  1.00  0.00     0.280 HD
HETATM   18  C   UNL     1       6.067  24.906  53.964  1.00  0.00     0.237 C 
HETATM   19  C   UNL     1       7.505  22.807  53.663  1.00  0.00     0.235 C 
HETATM   20  C   UNL     1       5.512  25.779  55.086  1.00  0.00     0.063 C 
HETATM   21  C   UNL     1       8.791  22.371  54.366  1.00  0.00     0.030 C 
ENDBRANCH  10  12
ENDBRANCH   1  10
BRANCH   1  22
HETATM   22  C   UNL     1       5.138  29.403  56.721  1.00  0.00    -0.018 A 
HETATM   23  C   UNL     1       4.375  30.193  57.595  1.00  0.00     0.029 A 
HETATM   24  C   UNL     1       3.331  30.949  57.084  1.00  0.00     0.116 A 
HETATM   25  N   UNL     1       2.992  30.966  55.780  1.00  0.00    -0.273 NA
HETATM   26  C   UNL     1       3.733  30.214  54.946  1.00  0.00     0.116 A 
HETATM   27  C   UNL     1       4.792  29.420  55.363  1.00  0.00     0.029 A 
ENDBRANCH   1  22
TORSDOF 4
ENDMDL
MODEL 10
REMARK VINA RESULT:      -7.8      3.052      5.764
REMARK  4 active torsions:
REMARK  status: ('A' for Active; 'I' for Inactive)
REMARK    1  A    between atoms: C_5  and  C_6 
REMARK    2  A    between atoms: C_6  and  N_7 
REMARK    3  A    between atoms: C_6  and  C_18 
REMARK    4  A    between atoms: N_7  and  C_8 
ROOT
HETATM    1  C   UNL     1       7.372  26.907  56.236  1.00  0.00     0.290 C 
ENDROOT
BRANCH   1   2
HETATM    2  C   UNL     1       6.506  27.578  55.168  1.00  0.00     0.021 A 
HETATM    3  C   UNL     1       5.311  28.250  55.491  1.00  0.00     0.055 A 
HETATM    4  C   UNL     1       4.567  28.906  54.510  1.00  0.00     0.117 A 
HETATM    5  C   UNL     1       4.996  28.955  53.193  1.00  0.00     0.045 A 
HETATM    6  F   UNL     1       3.421  29.508  54.852  1.00  0.00    -0.206 F 
HETATM    7  C   UNL     1       6.200  28.349  52.855  1.00  0.00     0.046 A 
HETATM    8  C   UNL     1       6.945  27.685  53.834  1.00  0.00     0.125 A 
HETATM    9  F   UNL     1       8.111  27.146  53.451  1.00  0.00    -0.205 F 
ENDBRANCH   1   2
BRANCH   1  10
HETATM   10  N   UNL     1       8.677  27.552  56.511  1.00  0.00     0.101 NA
HETATM   11  H   UNL     1       9.244  27.425  55.671  1.00  0.00     0.317 HD
BRANCH  10  12
HETATM   12  C   UNL     1       8.723  28.954  56.934  1.00  0.00     0.225 C 
HETATM   13  C   UNL     1       7.966  29.234  58.248  1.00  0.00     0.069 C 
HETATM   14  C   UNL     1       8.183  30.673  58.673  1.00  0.00     0.190 C 
HETATM   15  N   UNL     1       9.657  30.895  58.871  1.00  0.00    -0.067 N 
HETATM   16  C   UNL     1       7.638  31.082  60.025  1.00  0.00     0.035 C 
HETATM   17  H   UNL     1      10.001  30.169  59.519  1.00  0.00     0.280 HD
HETATM   18  C   UNL     1      10.426  30.751  57.600  1.00  0.00     0.237 C 
HETATM   19  C   UNL     1       9.774  32.203  59.608  1.00  0.00     0.235 C 
HETATM   20  C   UNL     1      10.219  29.329  57.084  1.00  0.00     0.063 C 
HETATM   21  C   UNL     1       8.442  32.341  60.346  1.00  0.00     0.030 C 
ENDBRANCH  10  12
ENDBRANCH   1  10
BRANCH   1  22
HETATM   22  C   UNL     1       7.517  25.384  56.198  1.00  0.00    -0.018 A 
HETATM   23  C   UNL     1       8.336  24.748  57.144  1.00  0.00     0.029 A 
HETATM   24  C   UNL     1       8.509  23.374  57.071  1.00  0.00     0.116 A 
HETATM   25  N   UNL     1       7.939  22.600  56.128  1.00  0.00    -0.273 NA
HETATM   26  C   UNL     1       7.147  23.214  55.229  1.00  0.00     0.116 A 
HETATM   27  C   UNL     1       6.918  24.582  55.216  1.00  0.00     0.029 A 
ENDBRANCH   1  22
TORSDOF 4
ENDMDL
