MODEL 1
REMARK VINA RESULT:     -10.3      0.000      0.000
REMARK  7 active torsions:
REMARK  status: ('A' for Active; 'I' for Inactive)
REMARK    1  A    between atoms: O_2  and  C_3 
REMARK    2  A    between atoms: C_3  and  C_4 
REMARK    3  A    between atoms: C_5  and  N_6 
REMARK       I    between atoms: N_6  and  C_7 
REMARK    4  A    between atoms: C_7  and  C_8 
REMARK    5  A    between atoms: C_8  and  N_9 
REMARK    6  A    between atoms: C_11  and  C_12 
REMARK    7  A    between atoms: C_20  and  O_21 
ROOT
HETATM    1  N   UNL     1       7.444  26.064  56.773  1.00  0.00    -0.054 N 
HETATM    2  H   UNL     1       7.736  25.504  57.595  1.00  0.00     0.281 HD
HETATM    3  C   UNL     1       7.796  25.267  55.514  1.00  0.00     0.228 C 
HETATM    4  C   UNL     1       7.040  25.847  54.282  1.00  0.00     0.055 C 
HETATM    5  C   UNL     1       5.532  26.060  54.506  1.00  0.00     0.065 C 
HETATM    6  C   UNL     1       5.313  26.910  55.761  1.00  0.00     0.066 C 
HETATM    7  C   UNL     1       5.966  26.281  56.979  1.00  0.00     0.239 C 
HETATM    8  C   UNL     1       7.309  25.080  52.975  1.00  0.00     0.010 C 
HETATM    9  C   UNL     1       6.695  25.808  51.779  1.00  0.00     0.001 C 
HETATM   10  C   UNL     1       5.201  26.049  51.962  1.00  0.00     0.003 C 
HETATM   11  C   UNL     1       4.887  26.751  53.287  1.00  0.00     0.038 C 
ENDROOT
BRANCH   1  12
HETATM   12  C   UNL     1       8.338  27.321  56.903  1.00  0.00     0.338 C 
BRANCH  12  13
HETATM   13  C   UNL     1       8.107  28.489  55.937  1.00  0.00     0.248 C 
HETATM   14  N   UNL     1       8.193  29.778  56.366  1.00  0.00    -0.319 N 
HETATM   15  H   UNL     1       8.514  30.433  55.659  1.00  0.00     0.169 HD
HETATM   16  O   UNL     1       8.033  28.283  54.722  1.00  0.00    -0.271 OA
BRANCH  14  17
HETATM   17  C   UNL     1       8.033  30.285  57.630  1.00  0.00     0.094 A 
HETATM   18  C   UNL     1       6.985  30.871  58.320  1.00  0.00     0.080 A 
HETATM   19  C   UNL     1       7.446  31.311  59.631  1.00  0.00    -0.026 A 
HETATM   20  C   UNL     1       8.782  31.014  59.833  1.00  0.00    -0.008 A 
HETATM   21  C   UNL     1       6.638  31.996  60.706  1.00  0.00     0.041 C 
HETATM   22  S   UNL     1       9.517  30.359  58.455  1.00  0.00    -0.075 SA
HETATM   23  C   UNL     1       9.571  31.308  61.074  1.00  0.00     0.047 C 
HETATM   24  C   UNL     1       8.633  31.644  62.240  1.00  0.00     0.005 C 
HETATM   25  C   UNL     1       7.527  32.608  61.802  1.00  0.00     0.005 C 
BRANCH  18  26
HETATM   26  C   UNL     1       5.662  31.119  57.744  1.00  0.00     0.296 C 
HETATM   27  O   UNL     1       5.174  32.241  57.639  1.00  0.00    -0.259 OA
BRANCH  26  28
HETATM   28  O   UNL     1       5.030  29.969  57.392  1.00  0.00    -0.322 OA
HETATM   29  C   UNL     1       3.769  30.133  56.741  1.00  0.00     0.213 C 
ENDBRANCH  26  28
ENDBRANCH  18  26
ENDBRANCH  14  17
ENDBRANCH  12  13
ENDBRANCH   1  12
BRANCH   3  30
HETATM   30  C   UNL     1       7.838  23.749  55.668  1.00  0.00    -0.027 A 
HETATM   31  C   UNL     1       7.590  22.841  54.628  1.00  0.00     0.012 A 
HETATM   32  C   UNL     1       7.722  21.461  54.825  1.00  0.00     0.043 A 
HETATM   33  C   UNL     1       8.104  20.970  56.064  1.00  0.00     0.116 A 
HETATM   34  F   UNL     1       8.246  19.652  56.241  1.00  0.00    -0.206 F 
HETATM   35  C   UNL     1       8.353  21.836  57.117  1.00  0.00     0.043 A 
HETATM   36  C   UNL     1       8.218  23.213  56.921  1.00  0.00     0.012 A 
ENDBRANCH   3  30
BRANCH   5  37
HETATM   37  O   UNL     1       4.883  24.812  54.739  1.00  0.00    -0.389 OA
HETATM   38  H   UNL     1       4.770  24.330  53.898  1.00  0.00     0.210 HD
ENDBRANCH   5  37
TORSDOF 7
ENDMDL
MODEL 2
REMARK VINA RESULT:     -10.0      4.482      7.083
REMARK  7 active torsions:
REMARK  status: ('A' for Active; 'I' for Inactive)
REMARK    1  A    between atoms: O_2  and  C_3 
REMARK    2  A    between atoms: C_3  and  C_4 
REMARK    3  A    between atoms: C_5  and  N_6 
REMARK       I    between atoms: N_6  and  C_7 
REMARK    4  A    between atoms: C_7  and  C_8 
REMARK    5  A    between atoms: C_8  and  N_9 
REMARK    6  A    between atoms: C_11  and  C_12 
REMARK    7  A    between atoms: C_20  and  O_21 
ROOT
HETATM    1  N   UNL     1       4.012  27.651  52.000  1.00  0.00    -0.054 N 
HETATM    2  H   UNL     1       3.413  26.808  51.915  1.00  0.00     0.281 HD
HETATM    3  C   UNL     1       4.433  28.070  50.589  1.00  0.00     0.228 C 
HETATM    4  C   UNL     1       4.985  29.526  50.603  1.00  0.00     0.055 C 
HETATM    5  C   UNL     1       4.082  30.539  51.330  1.00  0.00     0.065 C 
HETATM    6  C   UNL     1       3.774  30.033  52.743  1.00  0.00     0.066 C 
HETATM    7  C   UNL     1       3.140  28.654  52.712  1.00  0.00     0.239 C 
HETATM    8  C   UNL     1       5.400  30.043  49.214  1.00  0.00     0.010 C 
HETATM    9  C   UNL     1       6.105  31.395  49.323  1.00  0.00     0.001 C 
HETATM   10  C   UNL     1       5.249  32.429  50.047  1.00  0.00     0.003 C 
HETATM   11  C   UNL     1       4.759  31.924  51.407  1.00  0.00     0.038 C 
ENDROOT
BRANCH   1  12
HETATM   12  C   UNL     1       5.220  27.112  52.804  1.00  0.00     0.338 C 
BRANCH  12  13
HETATM   13  C   UNL     1       5.004  25.917  53.740  1.00  0.00     0.248 C 
HETATM   14  N   UNL     1       5.046  26.072  55.092  1.00  0.00    -0.319 N 
HETATM   15  H   UNL     1       4.446  25.432  55.605  1.00  0.00     0.169 HD
HETATM   16  O   UNL     1       4.597  24.842  53.290  1.00  0.00    -0.271 OA
BRANCH  14  17
HETATM   17  C   UNL     1       5.676  27.037  55.836  1.00  0.00     0.094 A 
HETATM   18  C   UNL     1       6.881  27.114  56.514  1.00  0.00     0.080 A 
HETATM   19  C   UNL     1       6.965  28.386  57.221  1.00  0.00    -0.026 A 
HETATM   20  C   UNL     1       5.841  29.166  57.014  1.00  0.00    -0.008 A 
HETATM   21  C   UNL     1       8.101  28.885  58.081  1.00  0.00     0.041 C 
HETATM   22  S   UNL     1       4.648  28.361  56.121  1.00  0.00    -0.075 SA
HETATM   23  C   UNL     1       5.605  30.536  57.576  1.00  0.00     0.047 C 
HETATM   24  C   UNL     1       6.914  31.132  58.108  1.00  0.00     0.005 C 
HETATM   25  C   UNL     1       7.699  30.104  58.928  1.00  0.00     0.005 C 
BRANCH  18  26
HETATM   26  C   UNL     1       7.845  26.016  56.598  1.00  0.00     0.296 C 
HETATM   27  O   UNL     1       8.515  25.786  57.602  1.00  0.00    -0.259 OA
BRANCH  26  28
HETATM   28  O   UNL     1       7.941  25.323  55.433  1.00  0.00    -0.322 OA
HETATM   29  C   UNL     1       8.308  23.948  55.562  1.00  0.00     0.213 C 
ENDBRANCH  26  28
ENDBRANCH  18  26
ENDBRANCH  14  17
ENDBRANCH  12  13
ENDBRANCH   1  12
BRANCH   3  30
HETATM   30  C   UNL     1       3.481  27.685  49.459  1.00  0.00    -0.027 A 
HETATM   31  C   UNL     1       2.181  28.190  49.313  1.00  0.00     0.012 A 
HETATM   32  C   UNL     1       1.392  27.849  48.208  1.00  0.00     0.043 A 
HETATM   33  C   UNL     1       1.893  26.999  47.234  1.00  0.00     0.116 A 
HETATM   34  F   UNL     1       1.141  26.691  46.170  1.00  0.00    -0.206 F 
HETATM   35  C   UNL     1       3.170  26.476  47.346  1.00  0.00     0.043 A 
HETATM   36  C   UNL     1       3.957  26.813  48.451  1.00  0.00     0.012 A 
ENDBRANCH   3  30
BRANCH   5  37
HETATM   37  O   UNL     1       2.832  30.663  50.658  1.00  0.00    -0.389 OA
HETATM   38  H   UNL     1       2.460  31.553  50.800  1.00  0.00     0.210 HD
ENDBRANCH   5  37
TORSDOF 7
ENDMDL
MODEL 3
REMARK VINA RESULT:      -9.9      5.173      8.796
REMARK  7 active torsions:
REMARK  status: ('A' for Active; 'I' for Inactive)
REMARK    1  A    between atoms: O_2  and  C_3 
REMARK    2  A    between atoms: C_3  and  C_4 
REMARK    3  A    between atoms: C_5  and  N_6 
REMARK       I    between atoms: N_6  and  C_7 
REMARK    4  A    between atoms: C_7  and  C_8 
REMARK    5  A    between atoms: C_8  and  N_9 
REMARK    6  A    between atoms: C_11  and  C_12 
REMARK    7  A    between atoms: C_20  and  O_21 
ROOT
HETATM    1  N   UNL     1       4.834  28.319  50.946  1.00  0.00    -0.054 N 
HETATM    2  H   UNL     1       5.612  28.942  51.234  1.00  0.00     0.281 HD
HETATM    3  C   UNL     1       3.838  29.157  50.140  1.00  0.00     0.228 C 
HETATM    4  C   UNL     1       2.871  28.227  49.347  1.00  0.00     0.055 C 
HETATM    5  C   UNL     1       3.575  27.118  48.543  1.00  0.00     0.065 C 
HETATM    6  C   UNL     1       4.501  26.322  49.468  1.00  0.00     0.066 C 
HETATM    7  C   UNL     1       5.509  27.226  50.156  1.00  0.00     0.239 C 
HETATM    8  C   UNL     1       1.855  28.990  48.478  1.00  0.00     0.010 C 
HETATM    9  C   UNL     1       0.822  28.033  47.881  1.00  0.00     0.001 C 
HETATM   10  C   UNL     1       1.476  26.911  47.083  1.00  0.00     0.003 C 
HETATM   11  C   UNL     1       2.544  26.172  47.894  1.00  0.00     0.038 C 
ENDROOT
BRANCH   1  12
HETATM   12  C   UNL     1       4.232  27.898  52.308  1.00  0.00     0.338 C 
BRANCH  12  13
HETATM   13  C   UNL     1       4.749  28.579  53.581  1.00  0.00     0.248 C 
HETATM   14  N   UNL     1       5.772  28.037  54.297  1.00  0.00    -0.319 N 
HETATM   15  H   UNL     1       6.355  28.719  54.776  1.00  0.00     0.169 HD
HETATM   16  O   UNL     1       4.381  29.723  53.865  1.00  0.00    -0.271 OA
BRANCH  14  17
HETATM   17  C   UNL     1       6.195  26.734  54.358  1.00  0.00     0.094 A 
HETATM   18  C   UNL     1       6.168  25.744  55.327  1.00  0.00     0.080 A 
HETATM   19  C   UNL     1       6.870  24.564  54.841  1.00  0.00    -0.026 A 
HETATM   20  C   UNL     1       7.354  24.744  53.557  1.00  0.00    -0.008 A 
HETATM   21  C   UNL     1       7.081  23.257  55.568  1.00  0.00     0.041 C 
HETATM   22  S   UNL     1       7.110  26.319  52.987  1.00  0.00    -0.075 SA
HETATM   23  C   UNL     1       8.107  23.729  52.750  1.00  0.00     0.047 C 
HETATM   24  C   UNL     1       7.960  22.333  53.369  1.00  0.00     0.005 C 
HETATM   25  C   UNL     1       8.145  22.379  54.889  1.00  0.00     0.005 C 
BRANCH  18  26
HETATM   26  C   UNL     1       5.625  25.931  56.674  1.00  0.00     0.296 C 
HETATM   27  O   UNL     1       4.762  25.204  57.157  1.00  0.00    -0.259 OA
BRANCH  26  28
HETATM   28  O   UNL     1       6.150  27.020  57.295  1.00  0.00    -0.322 OA
HETATM   29  C   UNL     1       7.512  26.897  57.709  1.00  0.00     0.213 C 
ENDBRANCH  26  28
ENDBRANCH  18  26
ENDBRANCH  14  17
ENDBRANCH  12  13
ENDBRANCH   1  12
BRANCH   3  30
HETATM   30  C   UNL     1       4.411  30.368  49.409  1.00  0.00    -0.027 A 
HETATM   31  C   UNL     1       3.722  31.104  48.434  1.00  0.00     0.012 A 
HETATM   32  C   UNL     1       4.284  32.251  47.860  1.00  0.00     0.043 A 
HETATM   33  C   UNL     1       5.543  32.678  48.255  1.00  0.00     0.116 A 
HETATM   34  F   UNL     1       6.068  33.785  47.718  1.00  0.00    -0.206 F 
HETATM   35  C   UNL     1       6.256  31.974  49.212  1.00  0.00     0.043 A 
HETATM   36  C   UNL     1       5.696  30.827  49.782  1.00  0.00     0.012 A 
ENDBRANCH   3  30
BRANCH   5  37
HETATM   37  O   UNL     1       4.398  27.687  47.529  1.00  0.00    -0.389 OA
HETATM   38  H   UNL     1       5.089  28.246  47.930  1.00  0.00     0.210 HD
ENDBRANCH   5  37
TORSDOF 7
ENDMDL
MODEL 4
REMARK VINA RESULT:      -9.8      4.387      8.195
REMARK  7 active torsions:
REMARK  status: ('A' for Active; 'I' for Inactive)
REMARK    1  A    between atoms: O_2  and  C_3 
REMARK    2  A    between atoms: C_3  and  C_4 
REMARK    3  A    between atoms: C_5  and  N_6 
REMARK       I    between atoms: N_6  and  C_7 
REMARK    4  A    between atoms: C_7  and  C_8 
REMARK    5  A    between atoms: C_8  and  N_9 
REMARK    6  A    between atoms: C_11  and  C_12 
REMARK    7  A    between atoms: C_20  and  O_21 
ROOT
HETATM    1  N   UNL     1       3.852  27.615  52.279  1.00  0.00    -0.054 N 
HETATM    2  H   UNL     1       3.285  26.751  52.192  1.00  0.00     0.281 HD
HETATM    3  C   UNL     1       4.522  27.875  50.928  1.00  0.00     0.228 C 
HETATM    4  C   UNL     1       5.052  29.338  50.863  1.00  0.00     0.055 C 
HETATM    5  C   UNL     1       4.024  30.404  51.285  1.00  0.00     0.065 C 
HETATM    6  C   UNL     1       3.466  30.060  52.670  1.00  0.00     0.066 C 
HETATM    7  C   UNL     1       2.857  28.670  52.694  1.00  0.00     0.239 C 
HETATM    8  C   UNL     1       5.711  29.698  49.520  1.00  0.00     0.010 C 
HETATM    9  C   UNL     1       6.375  31.074  49.589  1.00  0.00     0.001 C 
HETATM   10  C   UNL     1       5.394  32.161  50.013  1.00  0.00     0.003 C 
HETATM   11  C   UNL     1       4.666  31.807  51.313  1.00  0.00     0.038 C 
ENDROOT
BRANCH   1  12
HETATM   12  C   UNL     1       4.896  27.211  53.349  1.00  0.00     0.338 C 
BRANCH  12  13
HETATM   13  C   UNL     1       6.349  27.665  53.164  1.00  0.00     0.248 C 
HETATM   14  N   UNL     1       7.357  26.756  53.068  1.00  0.00    -0.319 N 
HETATM   15  H   UNL     1       8.136  27.055  52.487  1.00  0.00     0.169 HD
HETATM   16  O   UNL     1       6.602  28.845  52.904  1.00  0.00    -0.271 OA
BRANCH  14  17
HETATM   17  C   UNL     1       7.412  25.466  53.531  1.00  0.00     0.094 A 
HETATM   18  C   UNL     1       7.278  24.870  54.774  1.00  0.00     0.080 A 
HETATM   19  C   UNL     1       7.539  23.441  54.664  1.00  0.00    -0.026 A 
HETATM   20  C   UNL     1       7.830  23.070  53.362  1.00  0.00    -0.008 A 
HETATM   21  C   UNL     1       7.504  22.412  55.768  1.00  0.00     0.041 C 
HETATM   22  S   UNL     1       7.934  24.397  52.316  1.00  0.00    -0.075 SA
HETATM   23  C   UNL     1       8.130  21.679  52.890  1.00  0.00     0.047 C 
HETATM   24  C   UNL     1       7.714  20.650  53.949  1.00  0.00     0.005 C 
HETATM   25  C   UNL     1       8.157  21.085  55.349  1.00  0.00     0.005 C 
BRANCH  18  26
HETATM   26  C   UNL     1       7.042  25.609  56.016  1.00  0.00     0.296 C 
HETATM   27  O   UNL     1       6.118  25.355  56.783  1.00  0.00    -0.259 OA
BRANCH  26  28
HETATM   28  O   UNL     1       7.928  26.625  56.188  1.00  0.00    -0.322 OA
HETATM   29  C   UNL     1       7.385  27.831  56.728  1.00  0.00     0.213 C 
ENDBRANCH  26  28
ENDBRANCH  18  26
ENDBRANCH  14  17
ENDBRANCH  12  13
ENDBRANCH   1  12
BRANCH   3  30
HETATM   30  C   UNL     1       3.796  27.331  49.700  1.00  0.00    -0.027 A 
HETATM   31  C   UNL     1       2.575  27.825  49.218  1.00  0.00     0.012 A 
HETATM   32  C   UNL     1       2.006  27.326  48.041  1.00  0.00     0.043 A 
HETATM   33  C   UNL     1       2.650  26.325  47.329  1.00  0.00     0.116 A 
HETATM   34  F   UNL     1       2.111  25.865  46.194  1.00  0.00    -0.206 F 
HETATM   35  C   UNL     1       3.855  25.808  47.776  1.00  0.00     0.043 A 
HETATM   36  C   UNL     1       4.422  26.305  48.953  1.00  0.00     0.012 A 
ENDBRANCH   3  30
BRANCH   5  37
HETATM   37  O   UNL     1       2.917  30.410  50.387  1.00  0.00    -0.389 OA
HETATM   38  H   UNL     1       3.233  30.412  49.464  1.00  0.00     0.210 HD
ENDBRANCH   5  37
TORSDOF 7
ENDMDL
MODEL 5
REMARK VINA RESULT:      -9.8      2.964      5.459
REMARK  7 active torsions:
REMARK  status: ('A' for Active; 'I' for Inactive)
REMARK    1  A    between atoms: O_2  and  C_3 
REMARK    2  A    between atoms: C_3  and  C_4 
REMARK    3  A    between atoms: C_5  and  N_6 
REMARK       I    between atoms: N_6  and  C_7 
REMARK    4  A    between atoms: C_7  and  C_8 
REMARK    5  A    between atoms: C_8  and  N_9 
REMARK    6  A    between atoms: C_11  and  C_12 
REMARK    7  A    between atoms: C_20  and  O_21 
ROOT
HETATM    1  N   UNL     1       4.592  28.593  54.049  1.00  0.00    -0.054 N 
HETATM    2  H   UNL     1       4.712  27.874  54.785  1.00  0.00     0.281 HD
HETATM    3  C   UNL     1       5.650  28.342  52.971  1.00  0.00     0.228 C 
HETATM    4  C   UNL     1       5.284  29.112  51.668  1.00  0.00     0.055 C 
HETATM    5  C   UNL     1       3.831  28.911  51.199  1.00  0.00     0.065 C 
HETATM    6  C   UNL     1       2.871  29.241  52.345  1.00  0.00     0.066 C 
HETATM    7  C   UNL     1       3.171  28.408  53.579  1.00  0.00     0.239 C 
HETATM    8  C   UNL     1       6.281  28.886  50.516  1.00  0.00     0.010 C 
HETATM    9  C   UNL     1       5.972  29.812  49.339  1.00  0.00     0.001 C 
HETATM   10  C   UNL     1       4.538  29.653  48.847  1.00  0.00     0.003 C 
HETATM   11  C   UNL     1       3.518  29.803  49.980  1.00  0.00     0.038 C 
ENDROOT
BRANCH   1  12
HETATM   12  C   UNL     1       4.885  29.902  54.821  1.00  0.00     0.338 C 
BRANCH  12  13
HETATM   13  C   UNL     1       4.440  30.006  56.285  1.00  0.00     0.248 C 
HETATM   14  N   UNL     1       5.108  29.340  57.267  1.00  0.00    -0.319 N 
HETATM   15  H   UNL     1       5.097  29.807  58.170  1.00  0.00     0.169 HD
HETATM   16  O   UNL     1       3.596  30.843  56.619  1.00  0.00    -0.271 OA
BRANCH  14  17
HETATM   17  C   UNL     1       5.887  28.215  57.179  1.00  0.00     0.094 A 
HETATM   18  C   UNL     1       7.240  27.953  57.313  1.00  0.00     0.080 A 
HETATM   19  C   UNL     1       7.501  26.553  57.005  1.00  0.00    -0.026 A 
HETATM   20  C   UNL     1       6.341  25.871  56.681  1.00  0.00    -0.008 A 
HETATM   21  C   UNL     1       8.832  25.841  57.026  1.00  0.00     0.041 C 
HETATM   22  S   UNL     1       4.990  26.890  56.603  1.00  0.00    -0.075 SA
HETATM   23  C   UNL     1       6.243  24.417  56.330  1.00  0.00     0.047 C 
HETATM   24  C   UNL     1       7.527  23.679  56.730  1.00  0.00     0.005 C 
HETATM   25  C   UNL     1       8.772  24.473  56.324  1.00  0.00     0.005 C 
BRANCH  18  26
HETATM   26  C   UNL     1       8.249  28.976  57.593  1.00  0.00     0.296 C 
HETATM   27  O   UNL     1       8.453  29.428  58.717  1.00  0.00    -0.259 OA
BRANCH  26  28
HETATM   28  O   UNL     1       8.887  29.393  56.468  1.00  0.00    -0.322 OA
HETATM   29  C   UNL     1      10.265  29.731  56.631  1.00  0.00     0.213 C 
ENDBRANCH  26  28
ENDBRANCH  18  26
ENDBRANCH  14  17
ENDBRANCH  12  13
ENDBRANCH   1  12
BRANCH   3  30
HETATM   30  C   UNL     1       6.139  26.903  52.829  1.00  0.00    -0.027 A 
HETATM   31  C   UNL     1       7.486  26.515  52.880  1.00  0.00     0.012 A 
HETATM   32  C   UNL     1       7.854  25.166  52.818  1.00  0.00     0.043 A 
HETATM   33  C   UNL     1       6.880  24.186  52.704  1.00  0.00     0.116 A 
HETATM   34  F   UNL     1       7.236  22.897  52.665  1.00  0.00    -0.206 F 
HETATM   35  C   UNL     1       5.539  24.530  52.646  1.00  0.00     0.043 A 
HETATM   36  C   UNL     1       5.172  25.878  52.704  1.00  0.00     0.012 A 
ENDBRANCH   3  30
BRANCH   5  37
HETATM   37  O   UNL     1       3.605  27.546  50.856  1.00  0.00    -0.389 OA
HETATM   38  H   UNL     1       3.539  27.450  49.887  1.00  0.00     0.210 HD
ENDBRANCH   5  37
TORSDOF 7
ENDMDL
MODEL 6
REMARK VINA RESULT:      -9.6      3.302      4.899
REMARK  7 active torsions:
REMARK  status: ('A' for Active; 'I' for Inactive)
REMARK    1  A    between atoms: O_2  and  C_3 
REMARK    2  A    between atoms: C_3  and  C_4 
REMARK    3  A    between atoms: C_5  and  N_6 
REMARK       I    between atoms: N_6  and  C_7 
REMARK    4  A    between atoms: C_7  and  C_8 
REMARK    5  A    between atoms: C_8  and  N_9 
REMARK    6  A    between atoms: C_11  and  C_12 
REMARK    7  A    between atoms: C_20  and  O_21 
ROOT
HETATM    1  N   UNL     1       5.483  27.942  56.041  1.00  0.00    -0.054 N 
HETATM    2  H   UNL     1       5.629  28.699  56.733  1.00  0.00     0.281 HD
HETATM    3  C   UNL     1       6.681  27.942  55.087  1.00  0.00     0.228 C 
HETATM    4  C   UNL     1       6.732  26.606  54.287  1.00  0.00     0.055 C 
HETATM    5  C   UNL     1       6.603  25.342  55.156  1.00  0.00     0.065 C 
HETATM    6  C   UNL     1       5.344  25.439  56.023  1.00  0.00     0.066 C 
HETATM    7  C   UNL     1       5.354  26.694  56.878  1.00  0.00     0.239 C 
HETATM    8  C   UNL     1       7.930  26.507  53.327  1.00  0.00     0.010 C 
HETATM    9  C   UNL     1       7.817  25.266  52.440  1.00  0.00     0.001 C 
HETATM   10  C   UNL     1       7.677  23.988  53.259  1.00  0.00     0.003 C 
HETATM   11  C   UNL     1       6.535  24.075  54.276  1.00  0.00     0.038 C 
ENDROOT
BRANCH   1  12
HETATM   12  C   UNL     1       4.197  28.407  55.316  1.00  0.00     0.338 C 
BRANCH  12  13
HETATM   13  C   UNL     1       4.325  29.415  54.168  1.00  0.00     0.248 C 
HETATM   14  N   UNL     1       4.612  30.722  54.415  1.00  0.00    -0.319 N 
HETATM   15  H   UNL     1       5.143  31.180  53.679  1.00  0.00     0.169 HD
HETATM   16  O   UNL     1       4.363  29.022  52.998  1.00  0.00    -0.271 OA
BRANCH  14  17
HETATM   17  C   UNL     1       4.401  31.459  55.553  1.00  0.00     0.094 A 
HETATM   18  C   UNL     1       3.423  32.344  55.974  1.00  0.00     0.080 A 
HETATM   19  C   UNL     1       3.791  32.903  57.268  1.00  0.00    -0.026 A 
HETATM   20  C   UNL     1       4.994  32.394  57.725  1.00  0.00    -0.008 A 
HETATM   21  C   UNL     1       3.016  33.903  58.091  1.00  0.00     0.041 C 
HETATM   22  S   UNL     1       5.745  31.385  56.591  1.00  0.00    -0.075 SA
HETATM   23  C   UNL     1       5.659  32.738  59.025  1.00  0.00     0.047 C 
HETATM   24  C   UNL     1       4.671  33.441  59.964  1.00  0.00     0.005 C 
HETATM   25  C   UNL     1       3.864  34.510  59.221  1.00  0.00     0.005 C 
BRANCH  18  26
HETATM   26  C   UNL     1       2.271  32.739  55.161  1.00  0.00     0.296 C 
HETATM   27  O   UNL     1       1.109  32.624  55.543  1.00  0.00    -0.259 OA
BRANCH  26  28
HETATM   28  O   UNL     1       2.636  33.195  53.935  1.00  0.00    -0.322 OA
HETATM   29  C   UNL     1       1.612  33.176  52.939  1.00  0.00     0.213 C 
ENDBRANCH  26  28
ENDBRANCH  18  26
ENDBRANCH  14  17
ENDBRANCH  12  13
ENDBRANCH   1  12
BRANCH   3  30
HETATM   30  C   UNL     1       7.994  28.476  55.655  1.00  0.00    -0.027 A 
HETATM   31  C   UNL     1       9.029  29.018  54.879  1.00  0.00     0.012 A 
HETATM   32  C   UNL     1      10.174  29.559  55.476  1.00  0.00     0.043 A 
HETATM   33  C   UNL     1      10.299  29.566  56.856  1.00  0.00     0.116 A 
HETATM   34  F   UNL     1      11.387  30.102  57.422  1.00  0.00    -0.206 F 
HETATM   35  C   UNL     1       9.300  29.036  57.656  1.00  0.00     0.043 A 
HETATM   36  C   UNL     1       8.158  28.493  57.060  1.00  0.00     0.012 A 
ENDBRANCH   3  30
BRANCH   5  37
HETATM   37  O   UNL     1       7.708  25.237  56.048  1.00  0.00    -0.389 OA
HETATM   38  H   UNL     1       7.707  24.365  56.485  1.00  0.00     0.210 HD
ENDBRANCH   5  37
TORSDOF 7
ENDMDL
MODEL 7
REMARK VINA RESULT:      -9.5      3.336      7.906
REMARK  7 active torsions:
REMARK  status: ('A' for Active; 'I' for Inactive)
REMARK    1  A    between atoms: O_2  and  C_3 
REMARK    2  A    between atoms: C_3  and  C_4 
REMARK    3  A    between atoms: C_5  and  N_6 
REMARK       I    between atoms: N_6  and  C_7 
REMARK    4  A    between atoms: C_7  and  C_8 
REMARK    5  A    between atoms: C_8  and  N_9 
REMARK    6  A    between atoms: C_11  and  C_12 
REMARK    7  A    between atoms: C_20  and  O_21 
ROOT
HETATM    1  N   UNL     1       5.633  29.810  56.278  1.00  0.00    -0.054 N 
HETATM    2  H   UNL     1       5.650  28.884  55.811  1.00  0.00     0.281 HD
HETATM    3  C   UNL     1       5.223  30.853  55.236  1.00  0.00     0.228 C 
HETATM    4  C   UNL     1       4.791  32.174  55.938  1.00  0.00     0.055 C 
HETATM    5  C   UNL     1       3.782  31.982  57.085  1.00  0.00     0.065 C 
HETATM    6  C   UNL     1       4.328  30.957  58.084  1.00  0.00     0.066 C 
HETATM    7  C   UNL     1       4.648  29.637  57.406  1.00  0.00     0.239 C 
HETATM    8  C   UNL     1       4.327  33.270  54.962  1.00  0.00     0.010 C 
HETATM    9  C   UNL     1       4.102  34.593  55.695  1.00  0.00     0.001 C 
HETATM   10  C   UNL     1       3.115  34.448  56.848  1.00  0.00     0.003 C 
HETATM   11  C   UNL     1       3.507  33.319  57.805  1.00  0.00     0.038 C 
ENDROOT
BRANCH   1  12
HETATM   12  C   UNL     1       7.113  29.991  56.694  1.00  0.00     0.338 C 
BRANCH  12  13
HETATM   13  C   UNL     1       7.848  28.805  57.330  1.00  0.00     0.248 C 
HETATM   14  N   UNL     1       8.007  27.637  56.650  1.00  0.00    -0.319 N 
HETATM   15  H   UNL     1       8.856  27.129  56.885  1.00  0.00     0.169 HD
HETATM   16  O   UNL     1       8.472  28.956  58.384  1.00  0.00    -0.271 OA
BRANCH  14  17
HETATM   17  C   UNL     1       7.263  27.122  55.620  1.00  0.00     0.094 A 
HETATM   18  C   UNL     1       6.340  26.095  55.502  1.00  0.00     0.080 A 
HETATM   19  C   UNL     1       5.946  25.948  54.107  1.00  0.00    -0.026 A 
HETATM   20  C   UNL     1       6.581  26.869  53.293  1.00  0.00    -0.008 A 
HETATM   21  C   UNL     1       4.966  24.956  53.529  1.00  0.00     0.041 C 
HETATM   22  S   UNL     1       7.724  27.797  54.130  1.00  0.00    -0.075 SA
HETATM   23  C   UNL     1       6.395  27.010  51.812  1.00  0.00     0.047 C 
HETATM   24  C   UNL     1       5.139  26.258  51.353  1.00  0.00     0.005 C 
HETATM   25  C   UNL     1       5.059  24.870  51.997  1.00  0.00     0.005 C 
BRANCH  18  26
HETATM   26  C   UNL     1       5.940  25.222  56.607  1.00  0.00     0.296 C 
HETATM   27  O   UNL     1       4.793  25.173  57.044  1.00  0.00    -0.259 OA
BRANCH  26  28
HETATM   28  O   UNL     1       6.987  24.520  57.115  1.00  0.00    -0.322 OA
HETATM   29  C   UNL     1       7.549  23.536  56.245  1.00  0.00     0.213 C 
ENDBRANCH  26  28
ENDBRANCH  18  26
ENDBRANCH  14  17
ENDBRANCH  12  13
ENDBRANCH   1  12
BRANCH   3  30
HETATM   30  C   UNL     1       4.358  30.350  54.083  1.00  0.00    -0.027 A 
HETATM   31  C   UNL     1       4.060  31.095  52.933  1.00  0.00     0.012 A 
HETATM   32  C   UNL     1       3.321  30.540  51.881  1.00  0.00     0.043 A 
HETATM   33  C   UNL     1       2.871  29.231  51.965  1.00  0.00     0.116 A 
HETATM   34  F   UNL     1       2.183  28.699  50.949  1.00  0.00    -0.206 F 
HETATM   35  C   UNL     1       3.142  28.465  53.087  1.00  0.00     0.043 A 
HETATM   36  C   UNL     1       3.876  29.021  54.139  1.00  0.00     0.012 A 
ENDBRANCH   3  30
BRANCH   5  37
HETATM   37  O   UNL     1       2.557  31.454  56.586  1.00  0.00    -0.389 OA
HETATM   38  H   UNL     1       2.254  31.975  55.818  1.00  0.00     0.210 HD
ENDBRANCH   5  37
TORSDOF 7
ENDMDL
MODEL 8
REMARK VINA RESULT:      -9.4      2.462      3.830
REMARK  7 active torsions:
REMARK  status: ('A' for Active; 'I' for Inactive)
REMARK    1  A    between atoms: O_2  and  C_3 
REMARK    2  A    between atoms: C_3  and  C_4 
REMARK    3  A    between atoms: C_5  and  N_6 
REMARK       I    between atoms: N_6  and  C_7 
REMARK    4  A    between atoms: C_7  and  C_8 
REMARK    5  A    between atoms: C_8  and  N_9 
REMARK    6  A    between atoms: C_11  and  C_12 
REMARK    7  A    between atoms: C_20  and  O_21 
ROOT
HETATM    1  N   UNL     1       6.416  27.896  55.548  1.00  0.00    -0.054 N 
HETATM    2  H   UNL     1       6.922  27.205  56.133  1.00  0.00     0.281 HD
HETATM    3  C   UNL     1       6.708  27.570  54.080  1.00  0.00     0.228 C 
HETATM    4  C   UNL     1       5.685  28.294  53.155  1.00  0.00     0.055 C 
HETATM    5  C   UNL     1       4.214  28.112  53.573  1.00  0.00     0.065 C 
HETATM    6  C   UNL     1       4.042  28.518  55.040  1.00  0.00     0.066 C 
HETATM    7  C   UNL     1       4.971  27.730  55.946  1.00  0.00     0.239 C 
HETATM    8  C   UNL     1       5.884  27.992  51.659  1.00  0.00     0.010 C 
HETATM    9  C   UNL     1       4.978  28.875  50.800  1.00  0.00     0.001 C 
HETATM   10  C   UNL     1       3.510  28.735  51.186  1.00  0.00     0.003 C 
HETATM   11  C   UNL     1       3.281  28.961  52.683  1.00  0.00     0.038 C 
ENDROOT
BRANCH   1  12
HETATM   12  C   UNL     1       7.085  29.228  55.965  1.00  0.00     0.338 C 
BRANCH  12  13
HETATM   13  C   UNL     1       8.054  29.221  57.153  1.00  0.00     0.248 C 
HETATM   14  N   UNL     1       7.743  29.864  58.312  1.00  0.00    -0.319 N 
HETATM   15  H   UNL     1       8.136  29.437  59.147  1.00  0.00     0.169 HD
HETATM   16  O   UNL     1       9.038  28.475  57.148  1.00  0.00    -0.271 OA
BRANCH  14  17
HETATM   17  C   UNL     1       6.884  30.913  58.520  1.00  0.00     0.094 A 
HETATM   18  C   UNL     1       6.731  31.866  59.514  1.00  0.00     0.080 A 
HETATM   19  C   UNL     1       5.556  32.681  59.235  1.00  0.00    -0.026 A 
HETATM   20  C   UNL     1       4.930  32.298  58.061  1.00  0.00    -0.008 A 
HETATM   21  C   UNL     1       5.021  33.831  60.053  1.00  0.00     0.041 C 
HETATM   22  S   UNL     1       5.627  30.916  57.375  1.00  0.00    -0.075 SA
HETATM   23  C   UNL     1       3.708  32.932  57.468  1.00  0.00     0.047 C 
HETATM   24  C   UNL     1       3.441  34.297  58.117  1.00  0.00     0.005 C 
HETATM   25  C   UNL     1       3.593  34.226  59.639  1.00  0.00     0.005 C 
BRANCH  18  26
HETATM   26  C   UNL     1       7.560  31.933  60.718  1.00  0.00     0.296 C 
HETATM   27  O   UNL     1       7.795  32.981  61.315  1.00  0.00    -0.259 OA
BRANCH  26  28
HETATM   28  O   UNL     1       8.070  30.722  61.062  1.00  0.00    -0.322 OA
HETATM   29  C   UNL     1       9.416  30.733  61.543  1.00  0.00     0.213 C 
ENDBRANCH  26  28
ENDBRANCH  18  26
ENDBRANCH  14  17
ENDBRANCH  12  13
ENDBRANCH   1  12
BRANCH   3  30
HETATM   30  C   UNL     1       7.038  26.113  53.766  1.00  0.00    -0.027 A 
HETATM   31  C   UNL     1       6.586  25.019  54.518  1.00  0.00     0.012 A 
HETATM   32  C   UNL     1       6.866  23.705  54.126  1.00  0.00     0.043 A 
HETATM   33  C   UNL     1       7.603  23.467  52.975  1.00  0.00     0.116 A 
HETATM   34  F   UNL     1       7.852  22.209  52.594  1.00  0.00    -0.206 F 
HETATM   35  C   UNL     1       8.071  24.522  52.209  1.00  0.00     0.043 A 
HETATM   36  C   UNL     1       7.794  25.835  52.603  1.00  0.00     0.012 A 
ENDBRANCH   3  30
BRANCH   5  37
HETATM   37  O   UNL     1       3.837  26.742  53.479  1.00  0.00    -0.389 OA
HETATM   38  H   UNL     1       3.205  26.517  54.188  1.00  0.00     0.210 HD
ENDBRANCH   5  37
TORSDOF 7
ENDMDL
MODEL 9
REMARK VINA RESULT:      -9.3      2.932      5.185
REMARK  7 active torsions:
REMARK  status: ('A' for Active; 'I' for Inactive)
REMARK    1  A    between atoms: O_2  and  C_3 
REMARK    2  A    between atoms: C_3  and  C_4 
REMARK    3  A    between atoms: C_5  and  N_6 
REMARK       I    between atoms: N_6  and  C_7 
REMARK    4  A    between atoms: C_7  and  C_8 
REMARK    5  A    between atoms: C_8  and  N_9 
REMARK    6  A    between atoms: C_11  and  C_12 
REMARK    7  A    between atoms: C_20  and  O_21 
ROOT
HETATM    1  N   UNL     1       5.173  29.691  56.292  1.00  0.00    -0.054 N 
HETATM    2  H   UNL     1       4.761  30.366  55.620  1.00  0.00     0.281 HD
HETATM    3  C   UNL     1       4.857  28.280  55.790  1.00  0.00     0.228 C 
HETATM    4  C   UNL     1       5.766  27.238  56.508  1.00  0.00     0.055 C 
HETATM    5  C   UNL     1       7.263  27.598  56.510  1.00  0.00     0.065 C 
HETATM    6  C   UNL     1       7.452  29.008  57.079  1.00  0.00     0.066 C 
HETATM    7  C   UNL     1       6.641  30.032  56.305  1.00  0.00     0.239 C 
HETATM    8  C   UNL     1       5.538  25.791  56.037  1.00  0.00     0.010 C 
HETATM    9  C   UNL     1       6.317  24.805  56.908  1.00  0.00     0.001 C 
HETATM   10  C   UNL     1       7.806  25.129  56.947  1.00  0.00     0.003 C 
HETATM   11  C   UNL     1       8.071  26.584  57.346  1.00  0.00     0.038 C 
ENDROOT
BRANCH   1  12
HETATM   12  C   UNL     1       4.392  30.008  57.590  1.00  0.00     0.338 C 
BRANCH  12  13
HETATM   13  C   UNL     1       3.714  31.377  57.724  1.00  0.00     0.248 C 
HETATM   14  N   UNL     1       4.282  32.368  58.463  1.00  0.00    -0.319 N 
HETATM   15  H   UNL     1       4.083  33.307  58.127  1.00  0.00     0.169 HD
HETATM   16  O   UNL     1       2.749  31.663  57.009  1.00  0.00    -0.271 OA
BRANCH  14  17
HETATM   17  C   UNL     1       5.173  32.276  59.502  1.00  0.00     0.094 A 
HETATM   18  C   UNL     1       5.069  32.315  60.882  1.00  0.00     0.080 A 
HETATM   19  C   UNL     1       6.399  32.264  61.476  1.00  0.00    -0.026 A 
HETATM   20  C   UNL     1       7.389  32.176  60.514  1.00  0.00    -0.008 A 
HETATM   21  C   UNL     1       6.750  32.282  62.944  1.00  0.00     0.041 C 
HETATM   22  S   UNL     1       6.777  32.295  58.939  1.00  0.00    -0.075 SA
HETATM   23  C   UNL     1       8.863  32.087  60.774  1.00  0.00     0.047 C 
HETATM   24  C   UNL     1       9.130  31.731  62.241  1.00  0.00     0.005 C 
HETATM   25  C   UNL     1       8.245  32.555  63.182  1.00  0.00     0.005 C 
BRANCH  18  26
HETATM   26  C   UNL     1       3.810  32.513  61.603  1.00  0.00     0.296 C 
HETATM   27  O   UNL     1       3.169  31.591  62.100  1.00  0.00    -0.259 OA
BRANCH  26  28
HETATM   28  O   UNL     1       3.420  33.814  61.613  1.00  0.00    -0.322 OA
HETATM   29  C   UNL     1       2.227  34.106  60.884  1.00  0.00     0.213 C 
ENDBRANCH  26  28
ENDBRANCH  18  26
ENDBRANCH  14  17
ENDBRANCH  12  13
ENDBRANCH   1  12
BRANCH   3  30
HETATM   30  C   UNL     1       4.660  28.127  54.284  1.00  0.00    -0.027 A 
HETATM   31  C   UNL     1       4.259  29.165  53.430  1.00  0.00     0.012 A 
HETATM   32  C   UNL     1       4.172  28.970  52.046  1.00  0.00     0.043 A 
HETATM   33  C   UNL     1       4.486  27.736  51.498  1.00  0.00     0.116 A 
HETATM   34  F   UNL     1       4.420  27.561  50.173  1.00  0.00    -0.206 F 
HETATM   35  C   UNL     1       4.881  26.686  52.311  1.00  0.00     0.043 A 
HETATM   36  C   UNL     1       4.964  26.879  53.693  1.00  0.00     0.012 A 
ENDBRANCH   3  30
BRANCH   5  37
HETATM   37  O   UNL     1       7.769  27.622  55.179  1.00  0.00    -0.389 OA
HETATM   38  H   UNL     1       7.823  26.715  54.823  1.00  0.00     0.210 HD
ENDBRANCH   5  37
TORSDOF 7
ENDMDL
MODEL 10
REMARK VINA RESULT:      -9.1      9.122     12.886
REMARK  7 active torsions:
REMARK  status: ('A' for Active; 'I' for Inactive)
REMARK    1  A    between atoms: O_2  and  C_3 
REMARK    2  A    between atoms: C_3  and  C_4 
REMARK    3  A    between atoms: C_5  and  N_6 
REMARK       I    between atoms: N_6  and  C_7 
REMARK    4  A    between atoms: C_7  and  C_8 
REMARK    5  A    between atoms: C_8  and  N_9 
REMARK    6  A    between atoms: C_11  and  C_12 
REMARK    7  A    between atoms: C_20  and  O_21 
ROOT
HETATM    1  N   UNL     1       3.628  36.813  60.684  1.00  0.00    -0.054 N 
HETATM    2  H   UNL     1       4.413  36.261  61.078  1.00  0.00     0.281 HD
HETATM    3  C   UNL     1       3.611  38.172  61.389  1.00  0.00     0.228 C 
HETATM    4  C   UNL     1       2.737  39.182  60.588  1.00  0.00     0.055 C 
HETATM    5  C   UNL     1       3.058  39.244  59.083  1.00  0.00     0.065 C 
HETATM    6  C   UNL     1       2.994  37.835  58.485  1.00  0.00     0.066 C 
HETATM    7  C   UNL     1       3.929  36.882  59.208  1.00  0.00     0.239 C 
HETATM    8  C   UNL     1       2.692  40.589  61.209  1.00  0.00     0.010 C 
HETATM    9  C   UNL     1       1.674  41.472  60.487  1.00  0.00     0.001 C 
HETATM   10  C   UNL     1       1.948  41.555  58.990  1.00  0.00     0.003 C 
HETATM   11  C   UNL     1       2.068  40.170  58.347  1.00  0.00     0.038 C 
ENDROOT
BRANCH   1  12
HETATM   12  C   UNL     1       2.399  35.962  61.086  1.00  0.00     0.338 C 
BRANCH  12  13
HETATM   13  C   UNL     1       2.130  34.657  60.327  1.00  0.00     0.248 C 
HETATM   14  N   UNL     1       2.682  33.483  60.739  1.00  0.00    -0.319 N 
HETATM   15  H   UNL     1       2.117  32.662  60.539  1.00  0.00     0.169 HD
HETATM   16  O   UNL     1       1.259  34.616  59.453  1.00  0.00    -0.271 OA
BRANCH  14  17
HETATM   17  C   UNL     1       3.812  33.269  61.486  1.00  0.00     0.094 A 
HETATM   18  C   UNL     1       4.147  33.444  62.819  1.00  0.00     0.080 A 
HETATM   19  C   UNL     1       5.557  33.130  63.015  1.00  0.00    -0.026 A 
HETATM   20  C   UNL     1       6.165  32.734  61.837  1.00  0.00    -0.008 A 
HETATM   21  C   UNL     1       6.339  33.184  64.305  1.00  0.00     0.041 C 
HETATM   22  S   UNL     1       5.135  32.865  60.499  1.00  0.00    -0.075 SA
HETATM   23  C   UNL     1       7.598  32.323  61.681  1.00  0.00     0.047 C 
HETATM   24  C   UNL     1       8.227  32.035  63.050  1.00  0.00     0.005 C 
HETATM   25  C   UNL     1       7.857  33.117  64.069  1.00  0.00     0.005 C 
BRANCH  18  26
HETATM   26  C   UNL     1       3.238  33.990  63.828  1.00  0.00     0.296 C 
HETATM   27  O   UNL     1       2.074  33.618  63.954  1.00  0.00    -0.259 OA
BRANCH  26  28
HETATM   28  O   UNL     1       3.814  34.975  64.564  1.00  0.00    -0.322 OA
HETATM   29  C   UNL     1       3.347  35.095  65.908  1.00  0.00     0.213 C 
ENDBRANCH  26  28
ENDBRANCH  18  26
ENDBRANCH  14  17
ENDBRANCH  12  13
ENDBRANCH   1  12
BRANCH   3  30
HETATM   30  C   UNL     1       4.949  38.668  61.930  1.00  0.00    -0.027 A 
HETATM   31  C   UNL     1       6.024  39.077  61.127  1.00  0.00     0.012 A 
HETATM   32  C   UNL     1       7.196  39.593  61.694  1.00  0.00     0.043 A 
HETATM   33  C   UNL     1       7.308  39.707  63.071  1.00  0.00     0.116 A 
HETATM   34  F   UNL     1       8.422  40.219  63.607  1.00  0.00    -0.206 F 
HETATM   35  C   UNL     1       6.269  39.310  63.896  1.00  0.00     0.043 A 
HETATM   36  C   UNL     1       5.101  38.791  63.331  1.00  0.00     0.012 A 
ENDBRANCH   3  30
BRANCH   5  37
HETATM   37  O   UNL     1       4.387  39.716  58.878  1.00  0.00    -0.389 OA
HETATM   38  H   UNL     1       4.760  40.044  59.717  1.00  0.00     0.210 HD
ENDBRANCH   5  37
TORSDOF 7
ENDMDL
