MODEL 1
REMARK VINA RESULT:     -10.8      0.000      0.000
REMARK  6 active torsions:
REMARK  status: ('A' for Active; 'I' for Inactive)
REMARK    1  A    between atoms: C_6  and  O_7 
REMARK    2  A    between atoms: O_7  and  C_8 
REMARK    3  A    between atoms: C_8  and  C_9 
REMARK       I    between atoms: C_9  and  N_10 
REMARK    4  A    between atoms: N_10  and  N_11 
REMARK       I    between atoms: N_11  and  C_12 
REMARK    5  A    between atoms: C_12  and  C_13 
REMARK    6  A    between atoms: C_17  and  C_18 
ROOT
HETATM    1  N   UNL     1       7.728  28.479  57.802  1.00  0.00    -0.262 N 
HETATM    2  C   UNL     1       8.561  29.553  57.546  1.00  0.00     0.288 C 
HETATM    3  O   UNL     1       9.288  29.606  56.557  1.00  0.00    -0.264 OA
HETATM    4  H   UNL     1       6.909  28.608  58.389  1.00  0.00     0.190 HD
ENDROOT
BRANCH   1   5
HETATM    5  N   UNL     1       7.630  27.472  56.834  1.00  0.00    -0.265 N 
HETATM    6  C   UNL     1       6.375  27.024  56.465  1.00  0.00     0.260 C 
HETATM    7  O   UNL     1       5.346  27.338  57.061  1.00  0.00    -0.269 OA
HETATM    8  H   UNL     1       8.406  27.378  56.181  1.00  0.00     0.190 HD
BRANCH   6   9
HETATM    9  C   UNL     1       6.383  26.136  55.224  1.00  0.00     0.280 C 
BRANCH   9  10
HETATM   10  O   UNL     1       7.734  25.754  54.946  1.00  0.00    -0.341 OA
BRANCH  10  11
HETATM   11  C   UNL     1       7.802  24.456  54.510  1.00  0.00     0.081 A 
HETATM   12  C   UNL     1       7.736  24.205  53.130  1.00  0.00    -0.028 A 
HETATM   13  C   UNL     1       7.845  22.883  52.676  1.00  0.00     0.016 A 
HETATM   14  C   UNL     1       7.533  25.317  52.141  1.00  0.00     0.051 C 
HETATM   15  C   UNL     1       8.052  21.830  53.575  1.00  0.00    -0.061 A 
HETATM   16  C   UNL     1       8.184  20.416  53.090  1.00  0.00     0.048 C 
HETATM   17  C   UNL     1       8.151  22.107  54.944  1.00  0.00     0.016 A 
HETATM   18  C   UNL     1       8.054  23.422  55.424  1.00  0.00    -0.028 A 
HETATM   19  C   UNL     1       8.189  23.671  56.900  1.00  0.00     0.051 C 
ENDBRANCH  10  11
ENDBRANCH   9  10
ENDBRANCH   6   9
ENDBRANCH   1   5
BRANCH   2  20
HETATM   20  C   UNL     1       8.522  30.594  58.537  1.00  0.00     0.121 A 
HETATM   21  N   UNL     1       9.482  31.560  58.615  1.00  0.00    -0.272 N 
HETATM   22  H   UNL     1      10.282  31.679  58.000  1.00  0.00     0.189 HD
HETATM   23  N   UNL     1       9.324  32.409  59.640  1.00  0.00    -0.174 NA
HETATM   24  C   UNL     1       8.223  31.978  60.278  1.00  0.00     0.089 A 
HETATM   25  C   UNL     1       7.673  30.856  59.593  1.00  0.00     0.071 A 
BRANCH  24  26
HETATM   26  C   UNL     1       7.751  32.607  61.519  1.00  0.00    -0.006 A 
HETATM   27  C   UNL     1       6.663  33.494  61.520  1.00  0.00     0.014 A 
HETATM   28  C   UNL     1       6.198  34.056  62.713  1.00  0.00     0.001 A 
HETATM   29  C   UNL     1       6.814  33.739  63.922  1.00  0.00     0.000 A 
HETATM   30  C   UNL     1       7.899  32.867  63.938  1.00  0.00     0.001 A 
HETATM   31  C   UNL     1       8.364  32.306  62.745  1.00  0.00     0.014 A 
ENDBRANCH  24  26
ENDBRANCH   2  20
TORSDOF 6
ENDMDL
MODEL 2
REMARK VINA RESULT:     -10.5      1.399      2.202
REMARK  6 active torsions:
REMARK  status: ('A' for Active; 'I' for Inactive)
REMARK    1  A    between atoms: C_6  and  O_7 
REMARK    2  A    between atoms: O_7  and  C_8 
REMARK    3  A    between atoms: C_8  and  C_9 
REMARK       I    between atoms: C_9  and  N_10 
REMARK    4  A    between atoms: N_10  and  N_11 
REMARK       I    between atoms: N_11  and  C_12 
REMARK    5  A    between atoms: C_12  and  C_13 
REMARK    6  A    between atoms: C_17  and  C_18 
ROOT
HETATM    1  N   UNL     1       7.407  29.131  58.516  1.00  0.00    -0.262 N 
HETATM    2  C   UNL     1       8.493  29.933  58.816  1.00  0.00     0.288 C 
HETATM    3  O   UNL     1       9.476  30.016  58.084  1.00  0.00    -0.264 OA
HETATM    4  H   UNL     1       6.499  29.346  58.919  1.00  0.00     0.190 HD
ENDROOT
BRANCH   1   5
HETATM    5  N   UNL     1       7.384  28.483  57.276  1.00  0.00    -0.265 N 
HETATM    6  C   UNL     1       7.620  27.121  57.232  1.00  0.00     0.260 C 
HETATM    7  O   UNL     1       8.018  26.475  58.199  1.00  0.00    -0.269 OA
HETATM    8  H   UNL     1       6.840  28.920  56.534  1.00  0.00     0.190 HD
BRANCH   6   9
HETATM    9  C   UNL     1       7.301  26.489  55.880  1.00  0.00     0.280 C 
BRANCH   9  10
HETATM   10  O   UNL     1       6.594  25.265  56.105  1.00  0.00    -0.341 OA
BRANCH  10  11
HETATM   11  C   UNL     1       7.066  24.264  55.294  1.00  0.00     0.081 A 
HETATM   12  C   UNL     1       7.946  23.316  55.839  1.00  0.00    -0.028 A 
HETATM   13  C   UNL     1       8.400  22.268  55.025  1.00  0.00     0.016 A 
HETATM   14  C   UNL     1       8.423  23.415  57.261  1.00  0.00     0.051 C 
HETATM   15  C   UNL     1       7.960  22.143  53.703  1.00  0.00    -0.061 A 
HETATM   16  C   UNL     1       8.433  21.013  52.836  1.00  0.00     0.048 C 
HETATM   17  C   UNL     1       7.053  23.079  53.192  1.00  0.00     0.016 A 
HETATM   18  C   UNL     1       6.576  24.133  53.986  1.00  0.00    -0.028 A 
HETATM   19  C   UNL     1       5.587  25.099  53.399  1.00  0.00     0.051 C 
ENDBRANCH  10  11
ENDBRANCH   9  10
ENDBRANCH   6   9
ENDBRANCH   1   5
BRANCH   2  20
HETATM   20  C   UNL     1       8.389  30.648  60.059  1.00  0.00     0.121 A 
HETATM   21  N   UNL     1       8.960  30.191  61.211  1.00  0.00    -0.272 N 
HETATM   22  H   UNL     1       9.524  29.353  61.323  1.00  0.00     0.189 HD
HETATM   23  N   UNL     1       8.705  30.947  62.287  1.00  0.00    -0.174 NA
HETATM   24  C   UNL     1       7.919  31.938  61.834  1.00  0.00     0.089 A 
HETATM   25  C   UNL     1       7.726  31.800  60.429  1.00  0.00     0.071 A 
BRANCH  24  26
HETATM   26  C   UNL     1       7.352  32.951  62.735  1.00  0.00    -0.006 A 
HETATM   27  C   UNL     1       6.452  33.921  62.268  1.00  0.00     0.014 A 
HETATM   28  C   UNL     1       5.889  34.856  63.144  1.00  0.00     0.001 A 
HETATM   29  C   UNL     1       6.219  34.833  64.497  1.00  0.00     0.000 A 
HETATM   30  C   UNL     1       7.117  33.883  64.976  1.00  0.00     0.001 A 
HETATM   31  C   UNL     1       7.679  32.949  64.100  1.00  0.00     0.014 A 
ENDBRANCH  24  26
ENDBRANCH   2  20
TORSDOF 6
ENDMDL
MODEL 3
REMARK VINA RESULT:     -10.3      1.527     10.642
REMARK  6 active torsions:
REMARK  status: ('A' for Active; 'I' for Inactive)
REMARK    1  A    between atoms: C_6  and  O_7 
REMARK    2  A    between atoms: O_7  and  C_8 
REMARK    3  A    between atoms: C_8  and  C_9 
REMARK       I    between atoms: C_9  and  N_10 
REMARK    4  A    between atoms: N_10  and  N_11 
REMARK       I    between atoms: N_11  and  C_12 
REMARK    5  A    between atoms: C_12  and  C_13 
REMARK    6  A    between atoms: C_17  and  C_18 
ROOT
HETATM    1  N   UNL     1       8.125  28.101  57.663  1.00  0.00    -0.262 N 
HETATM    2  C   UNL     1       7.013  27.637  56.983  1.00  0.00     0.288 C 
HETATM    3  O   UNL     1       5.890  28.104  57.154  1.00  0.00    -0.264 OA
HETATM    4  H   UNL     1       9.049  27.967  57.263  1.00  0.00     0.190 HD
ENDROOT
BRANCH   1   5
HETATM    5  N   UNL     1       7.976  29.221  58.490  1.00  0.00    -0.265 N 
HETATM    6  C   UNL     1       8.742  30.343  58.235  1.00  0.00     0.260 C 
HETATM    7  O   UNL     1       9.670  30.355  57.429  1.00  0.00    -0.269 OA
HETATM    8  H   UNL     1       7.088  29.322  58.978  1.00  0.00     0.190 HD
BRANCH   6   9
HETATM    9  C   UNL     1       8.300  31.576  59.019  1.00  0.00     0.280 C 
BRANCH   9  10
HETATM   10  O   UNL     1       7.219  31.204  59.880  1.00  0.00    -0.341 OA
BRANCH  10  11
HETATM   11  C   UNL     1       7.280  31.881  61.071  1.00  0.00     0.081 A 
HETATM   12  C   UNL     1       6.325  32.878  61.329  1.00  0.00    -0.028 A 
HETATM   13  C   UNL     1       6.359  33.545  62.561  1.00  0.00     0.016 A 
HETATM   14  C   UNL     1       5.288  33.252  60.307  1.00  0.00     0.051 C 
HETATM   15  C   UNL     1       7.302  33.205  63.537  1.00  0.00    -0.061 A 
HETATM   16  C   UNL     1       7.330  33.908  64.863  1.00  0.00     0.048 C 
HETATM   17  C   UNL     1       8.222  32.183  63.272  1.00  0.00     0.016 A 
HETATM   18  C   UNL     1       8.206  31.493  62.051  1.00  0.00    -0.028 A 
HETATM   19  C   UNL     1       9.199  30.389  61.823  1.00  0.00     0.051 C 
ENDBRANCH  10  11
ENDBRANCH   9  10
ENDBRANCH   6   9
ENDBRANCH   1   5
BRANCH   2  20
HETATM   20  C   UNL     1       7.273  26.555  56.073  1.00  0.00     0.121 A 
HETATM   21  N   UNL     1       7.313  26.735  54.720  1.00  0.00    -0.272 N 
HETATM   22  H   UNL     1       7.203  27.611  54.217  1.00  0.00     0.189 HD
HETATM   23  N   UNL     1       7.500  25.607  54.022  1.00  0.00    -0.174 NA
HETATM   24  C   UNL     1       7.570  24.636  54.948  1.00  0.00     0.089 A 
HETATM   25  C   UNL     1       7.463  25.200  56.252  1.00  0.00     0.071 A 
BRANCH  24  26
HETATM   26  C   UNL     1       7.696  23.220  54.577  1.00  0.00    -0.006 A 
HETATM   27  C   UNL     1       7.900  22.830  53.243  1.00  0.00     0.014 A 
HETATM   28  C   UNL     1       8.058  21.481  52.909  1.00  0.00     0.001 A 
HETATM   29  C   UNL     1       8.015  20.504  53.901  1.00  0.00     0.000 A 
HETATM   30  C   UNL     1       7.806  20.873  55.228  1.00  0.00     0.001 A 
HETATM   31  C   UNL     1       7.647  22.221  55.562  1.00  0.00     0.014 A 
ENDBRANCH  24  26
ENDBRANCH   2  20
TORSDOF 6
ENDMDL
MODEL 4
REMARK VINA RESULT:      -9.9      1.783     10.788
REMARK  6 active torsions:
REMARK  status: ('A' for Active; 'I' for Inactive)
REMARK    1  A    between atoms: C_6  and  O_7 
REMARK    2  A    between atoms: O_7  and  C_8 
REMARK    3  A    between atoms: C_8  and  C_9 
REMARK       I    between atoms: C_9  and  N_10 
REMARK    4  A    between atoms: N_10  and  N_11 
REMARK       I    between atoms: N_11  and  C_12 
REMARK    5  A    between atoms: C_12  and  C_13 
REMARK    6  A    between atoms: C_17  and  C_18 
ROOT
HETATM    1  N   UNL     1       7.021  27.828  57.144  1.00  0.00    -0.262 N 
HETATM    2  C   UNL     1       6.158  26.845  56.694  1.00  0.00     0.288 C 
HETATM    3  O   UNL     1       4.963  26.834  56.978  1.00  0.00    -0.264 OA
HETATM    4  H   UNL     1       7.875  28.019  56.627  1.00  0.00     0.190 HD
ENDROOT
BRANCH   1   5
HETATM    5  N   UNL     1       6.483  28.910  57.851  1.00  0.00    -0.265 N 
HETATM    6  C   UNL     1       7.252  30.047  58.014  1.00  0.00     0.260 C 
HETATM    7  O   UNL     1       8.445  30.101  57.721  1.00  0.00    -0.269 OA
HETATM    8  H   UNL     1       5.468  28.984  57.883  1.00  0.00     0.190 HD
BRANCH   6   9
HETATM    9  C   UNL     1       6.470  31.242  58.553  1.00  0.00     0.280 C 
BRANCH   9  10
HETATM   10  O   UNL     1       7.400  32.252  58.956  1.00  0.00    -0.341 OA
BRANCH  10  11
HETATM   11  C   UNL     1       7.377  32.432  60.316  1.00  0.00     0.081 A 
HETATM   12  C   UNL     1       8.535  32.137  61.053  1.00  0.00    -0.028 A 
HETATM   13  C   UNL     1       8.530  32.358  62.438  1.00  0.00     0.016 A 
HETATM   14  C   UNL     1       9.763  31.577  60.392  1.00  0.00     0.051 C 
HETATM   15  C   UNL     1       7.406  32.894  63.075  1.00  0.00    -0.061 A 
HETATM   16  C   UNL     1       7.404  33.145  64.555  1.00  0.00     0.048 C 
HETATM   17  C   UNL     1       6.275  33.215  62.314  1.00  0.00     0.016 A 
HETATM   18  C   UNL     1       6.256  33.013  60.926  1.00  0.00    -0.028 A 
HETATM   19  C   UNL     1       5.027  33.392  60.150  1.00  0.00     0.051 C 
ENDBRANCH  10  11
ENDBRANCH   9  10
ENDBRANCH   6   9
ENDBRANCH   1   5
BRANCH   2  20
HETATM   20  C   UNL     1       6.773  25.829  55.885  1.00  0.00     0.121 A 
HETATM   21  N   UNL     1       7.212  26.076  54.616  1.00  0.00    -0.272 N 
HETATM   22  H   UNL     1       7.190  26.964  54.124  1.00  0.00     0.189 HD
HETATM   23  N   UNL     1       7.696  24.998  53.984  1.00  0.00    -0.174 NA
HETATM   24  C   UNL     1       7.557  23.992  54.862  1.00  0.00     0.089 A 
HETATM   25  C   UNL     1       7.009  24.483  56.082  1.00  0.00     0.071 A 
BRANCH  24  26
HETATM   26  C   UNL     1       7.908  22.607  54.516  1.00  0.00    -0.006 A 
HETATM   27  C   UNL     1       7.925  22.170  53.181  1.00  0.00     0.014 A 
HETATM   28  C   UNL     1       8.298  20.861  52.862  1.00  0.00     0.001 A 
HETATM   29  C   UNL     1       8.659  19.970  53.871  1.00  0.00     0.000 A 
HETATM   30  C   UNL     1       8.640  20.385  55.200  1.00  0.00     0.001 A 
HETATM   31  C   UNL     1       8.267  21.693  55.519  1.00  0.00     0.014 A 
ENDBRANCH  24  26
ENDBRANCH   2  20
TORSDOF 6
ENDMDL
MODEL 5
REMARK VINA RESULT:      -9.8      2.010     10.553
REMARK  6 active torsions:
REMARK  status: ('A' for Active; 'I' for Inactive)
REMARK    1  A    between atoms: C_6  and  O_7 
REMARK    2  A    between atoms: O_7  and  C_8 
REMARK    3  A    between atoms: C_8  and  C_9 
REMARK       I    between atoms: C_9  and  N_10 
REMARK    4  A    between atoms: N_10  and  N_11 
REMARK       I    between atoms: N_11  and  C_12 
REMARK    5  A    between atoms: C_12  and  C_13 
REMARK    6  A    between atoms: C_17  and  C_18 
ROOT
HETATM    1  N   UNL     1       6.181  28.158  56.907  1.00  0.00    -0.262 N 
HETATM    2  C   UNL     1       7.144  27.200  57.167  1.00  0.00     0.288 C 
HETATM    3  O   UNL     1       7.932  27.292  58.104  1.00  0.00    -0.264 OA
HETATM    4  H   UNL     1       5.347  27.902  56.386  1.00  0.00     0.190 HD
ENDROOT
BRANCH   1   5
HETATM    5  N   UNL     1       6.029  29.210  57.819  1.00  0.00    -0.265 N 
HETATM    6  C   UNL     1       5.673  30.458  57.341  1.00  0.00     0.260 C 
HETATM    7  O   UNL     1       5.649  30.740  56.145  1.00  0.00    -0.269 OA
HETATM    8  H   UNL     1       5.808  28.961  58.781  1.00  0.00     0.190 HD
BRANCH   6   9
HETATM    9  C   UNL     1       5.274  31.441  58.439  1.00  0.00     0.280 C 
BRANCH   9  10
HETATM   10  O   UNL     1       6.299  32.434  58.556  1.00  0.00    -0.341 OA
BRANCH  10  11
HETATM   11  C   UNL     1       6.706  32.574  59.858  1.00  0.00     0.081 A 
HETATM   12  C   UNL     1       5.849  33.216  60.766  1.00  0.00    -0.028 A 
HETATM   13  C   UNL     1       6.243  33.328  62.107  1.00  0.00     0.016 A 
HETATM   14  C   UNL     1       4.535  33.799  60.325  1.00  0.00     0.051 C 
HETATM   15  C   UNL     1       7.453  32.780  62.547  1.00  0.00    -0.061 A 
HETATM   16  C   UNL     1       7.870  32.884  63.985  1.00  0.00     0.048 C 
HETATM   17  C   UNL     1       8.275  32.111  61.632  1.00  0.00     0.016 A 
HETATM   18  C   UNL     1       7.901  31.978  60.286  1.00  0.00    -0.028 A 
HETATM   19  C   UNL     1       8.807  31.233  59.347  1.00  0.00     0.051 C 
ENDBRANCH  10  11
ENDBRANCH   9  10
ENDBRANCH   6   9
ENDBRANCH   1   5
BRANCH   2  20
HETATM   20  C   UNL     1       7.162  26.099  56.243  1.00  0.00     0.121 A 
HETATM   21  N   UNL     1       6.358  26.061  55.141  1.00  0.00    -0.272 N 
HETATM   22  H   UNL     1       5.708  26.778  54.833  1.00  0.00     0.189 HD
HETATM   23  N   UNL     1       6.457  24.929  54.429  1.00  0.00    -0.174 NA
HETATM   24  C   UNL     1       7.349  24.179  55.096  1.00  0.00     0.089 A 
HETATM   25  C   UNL     1       7.839  24.896  56.226  1.00  0.00     0.071 A 
BRANCH  24  26
HETATM   26  C   UNL     1       7.682  22.812  54.672  1.00  0.00    -0.006 A 
HETATM   27  C   UNL     1       7.814  21.771  55.605  1.00  0.00     0.014 A 
HETATM   28  C   UNL     1       8.093  20.466  55.185  1.00  0.00     0.001 A 
HETATM   29  C   UNL     1       8.243  20.184  53.829  1.00  0.00     0.000 A 
HETATM   30  C   UNL     1       8.123  21.206  52.892  1.00  0.00     0.001 A 
HETATM   31  C   UNL     1       7.846  22.510  53.311  1.00  0.00     0.014 A 
ENDBRANCH  24  26
ENDBRANCH   2  20
TORSDOF 6
ENDMDL
MODEL 6
REMARK VINA RESULT:      -9.7      1.743      2.477
REMARK  6 active torsions:
REMARK  status: ('A' for Active; 'I' for Inactive)
REMARK    1  A    between atoms: C_6  and  O_7 
REMARK    2  A    between atoms: O_7  and  C_8 
REMARK    3  A    between atoms: C_8  and  C_9 
REMARK       I    between atoms: C_9  and  N_10 
REMARK    4  A    between atoms: N_10  and  N_11 
REMARK       I    between atoms: N_11  and  C_12 
REMARK    5  A    between atoms: C_12  and  C_13 
REMARK    6  A    between atoms: C_17  and  C_18 
ROOT
HETATM    1  N   UNL     1       7.386  29.844  58.456  1.00  0.00    -0.262 N 
HETATM    2  C   UNL     1       7.020  31.135  58.792  1.00  0.00     0.288 C 
HETATM    3  O   UNL     1       6.643  31.954  57.959  1.00  0.00    -0.264 OA
HETATM    4  H   UNL     1       7.341  29.111  59.159  1.00  0.00     0.190 HD
ENDROOT
BRANCH   1   5
HETATM    5  N   UNL     1       7.206  29.428  57.131  1.00  0.00    -0.265 N 
HETATM    6  C   UNL     1       8.100  28.521  56.591  1.00  0.00     0.260 C 
HETATM    7  O   UNL     1       9.142  28.189  57.151  1.00  0.00    -0.269 OA
HETATM    8  H   UNL     1       6.264  29.489  56.750  1.00  0.00     0.190 HD
BRANCH   6   9
HETATM    9  C   UNL     1       7.649  27.942  55.253  1.00  0.00     0.280 C 
BRANCH   9  10
HETATM   10  O   UNL     1       6.603  26.995  55.495  1.00  0.00    -0.341 OA
BRANCH  10  11
HETATM   11  C   UNL     1       6.891  25.782  54.924  1.00  0.00     0.081 A 
HETATM   12  C   UNL     1       6.665  25.616  53.549  1.00  0.00    -0.028 A 
HETATM   13  C   UNL     1       6.995  24.390  52.952  1.00  0.00     0.016 A 
HETATM   14  C   UNL     1       6.063  26.712  52.715  1.00  0.00     0.051 C 
HETATM   15  C   UNL     1       7.571  23.359  53.701  1.00  0.00    -0.061 A 
HETATM   16  C   UNL     1       7.939  22.052  53.061  1.00  0.00     0.048 C 
HETATM   17  C   UNL     1       7.822  23.560  55.064  1.00  0.00     0.016 A 
HETATM   18  C   UNL     1       7.510  24.779  55.685  1.00  0.00    -0.028 A 
HETATM   19  C   UNL     1       7.817  24.954  57.145  1.00  0.00     0.051 C 
ENDBRANCH  10  11
ENDBRANCH   9  10
ENDBRANCH   6   9
ENDBRANCH   1   5
BRANCH   2  20
HETATM   20  C   UNL     1       7.133  31.446  60.191  1.00  0.00     0.121 A 
HETATM   21  N   UNL     1       7.948  30.743  61.030  1.00  0.00    -0.272 N 
HETATM   22  H   UNL     1       8.565  29.975  60.781  1.00  0.00     0.189 HD
HETATM   23  N   UNL     1       7.877  31.127  62.312  1.00  0.00    -0.174 NA
HETATM   24  C   UNL     1       6.967  32.114  62.327  1.00  0.00     0.089 A 
HETATM   25  C   UNL     1       6.501  32.365  61.005  1.00  0.00     0.071 A 
BRANCH  24  26
HETATM   26  C   UNL     1       6.544  32.758  63.579  1.00  0.00    -0.006 A 
HETATM   27  C   UNL     1       7.477  33.145  64.553  1.00  0.00     0.014 A 
HETATM   28  C   UNL     1       7.065  33.792  65.722  1.00  0.00     0.001 A 
HETATM   29  C   UNL     1       5.714  34.061  65.934  1.00  0.00     0.000 A 
HETATM   30  C   UNL     1       4.774  33.677  64.981  1.00  0.00     0.001 A 
HETATM   31  C   UNL     1       5.186  33.030  63.813  1.00  0.00     0.014 A 
ENDBRANCH  24  26
ENDBRANCH   2  20
TORSDOF 6
ENDMDL
MODEL 7
REMARK VINA RESULT:      -9.7      2.193     10.855
REMARK  6 active torsions:
REMARK  status: ('A' for Active; 'I' for Inactive)
REMARK    1  A    between atoms: C_6  and  O_7 
REMARK    2  A    between atoms: O_7  and  C_8 
REMARK    3  A    between atoms: C_8  and  C_9 
REMARK       I    between atoms: C_9  and  N_10 
REMARK    4  A    between atoms: N_10  and  N_11 
REMARK       I    between atoms: N_11  and  C_12 
REMARK    5  A    between atoms: C_12  and  C_13 
REMARK    6  A    between atoms: C_17  and  C_18 
ROOT
HETATM    1  N   UNL     1       6.664  30.014  58.296  1.00  0.00    -0.262 N 
HETATM    2  C   UNL     1       7.802  29.269  58.042  1.00  0.00     0.288 C 
HETATM    3  O   UNL     1       8.842  29.412  58.680  1.00  0.00    -0.264 OA
HETATM    4  H   UNL     1       5.756  29.648  58.027  1.00  0.00     0.190 HD
ENDROOT
BRANCH   1   5
HETATM    5  N   UNL     1       6.670  30.878  59.398  1.00  0.00    -0.265 N 
HETATM    6  C   UNL     1       6.270  32.189  59.218  1.00  0.00     0.260 C 
HETATM    7  O   UNL     1       6.072  32.686  58.112  1.00  0.00    -0.269 OA
HETATM    8  H   UNL     1       6.591  30.453  60.321  1.00  0.00     0.190 HD
BRANCH   6   9
HETATM    9  C   UNL     1       6.057  32.948  60.525  1.00  0.00     0.280 C 
BRANCH   9  10
HETATM   10  O   UNL     1       5.720  32.006  61.549  1.00  0.00    -0.341 OA
BRANCH  10  11
HETATM   11  C   UNL     1       5.970  32.519  62.796  1.00  0.00     0.081 A 
HETATM   12  C   UNL     1       7.282  32.470  63.293  1.00  0.00    -0.028 A 
HETATM   13  C   UNL     1       7.551  33.029  64.551  1.00  0.00     0.016 A 
HETATM   14  C   UNL     1       8.391  31.818  62.516  1.00  0.00     0.051 C 
HETATM   15  C   UNL     1       6.542  33.657  65.288  1.00  0.00    -0.061 A 
HETATM   16  C   UNL     1       6.831  34.269  66.628  1.00  0.00     0.048 C 
HETATM   17  C   UNL     1       5.247  33.726  64.757  1.00  0.00     0.016 A 
HETATM   18  C   UNL     1       4.953  33.183  63.497  1.00  0.00    -0.028 A 
HETATM   19  C   UNL     1       3.554  33.302  62.961  1.00  0.00     0.051 C 
ENDBRANCH  10  11
ENDBRANCH   9  10
ENDBRANCH   6   9
ENDBRANCH   1   5
BRANCH   2  20
HETATM   20  C   UNL     1       7.677  28.329  56.962  1.00  0.00     0.121 A 
HETATM   21  N   UNL     1       7.072  28.652  55.783  1.00  0.00    -0.272 N 
HETATM   22  H   UNL     1       6.684  29.555  55.521  1.00  0.00     0.189 HD
HETATM   23  N   UNL     1       6.983  27.635  54.915  1.00  0.00    -0.174 NA
HETATM   24  C   UNL     1       7.538  26.590  55.550  1.00  0.00     0.089 A 
HETATM   25  C   UNL     1       8.015  26.998  56.830  1.00  0.00     0.071 A 
BRANCH  24  26
HETATM   26  C   UNL     1       7.568  25.248  54.954  1.00  0.00    -0.006 A 
HETATM   27  C   UNL     1       7.390  24.096  55.738  1.00  0.00     0.014 A 
HETATM   28  C   UNL     1       7.382  22.826  55.152  1.00  0.00     0.001 A 
HETATM   29  C   UNL     1       7.551  22.689  53.776  1.00  0.00     0.000 A 
HETATM   30  C   UNL     1       7.736  23.820  52.985  1.00  0.00     0.001 A 
HETATM   31  C   UNL     1       7.745  25.089  53.570  1.00  0.00     0.014 A 
ENDBRANCH  24  26
ENDBRANCH   2  20
TORSDOF 6
ENDMDL
MODEL 8
REMARK VINA RESULT:      -9.7      2.337     10.845
REMARK  6 active torsions:
REMARK  status: ('A' for Active; 'I' for Inactive)
REMARK    1  A    between atoms: C_6  and  O_7 
REMARK    2  A    between atoms: O_7  and  C_8 
REMARK    3  A    between atoms: C_8  and  C_9 
REMARK       I    between atoms: C_9  and  N_10 
REMARK    4  A    between atoms: N_10  and  N_11 
REMARK       I    between atoms: N_11  and  C_12 
REMARK    5  A    between atoms: C_12  and  C_13 
REMARK    6  A    between atoms: C_17  and  C_18 
ROOT
HETATM    1  N   UNL     1       6.638  30.374  58.460  1.00  0.00    -0.262 N 
HETATM    2  C   UNL     1       7.738  29.539  58.382  1.00  0.00     0.288 C 
HETATM    3  O   UNL     1       8.667  29.594  59.184  1.00  0.00    -0.264 OA
HETATM    4  H   UNL     1       5.759  30.084  58.040  1.00  0.00     0.190 HD
ENDROOT
BRANCH   1   5
HETATM    5  N   UNL     1       6.532  31.230  59.563  1.00  0.00    -0.265 N 
HETATM    6  C   UNL     1       6.052  32.512  59.366  1.00  0.00     0.260 C 
HETATM    7  O   UNL     1       5.874  33.000  58.252  1.00  0.00    -0.269 OA
HETATM    8  H   UNL     1       6.439  30.796  60.479  1.00  0.00     0.190 HD
BRANCH   6   9
HETATM    9  C   UNL     1       5.726  33.248  60.663  1.00  0.00     0.280 C 
BRANCH   9  10
HETATM   10  O   UNL     1       5.536  32.280  61.700  1.00  0.00    -0.341 OA
BRANCH  10  11
HETATM   11  C   UNL     1       5.867  32.797  62.927  1.00  0.00     0.081 A 
HETATM   12  C   UNL     1       4.854  33.365  63.714  1.00  0.00    -0.028 A 
HETATM   13  C   UNL     1       5.180  33.858  64.985  1.00  0.00     0.016 A 
HETATM   14  C   UNL     1       3.440  33.470  63.215  1.00  0.00     0.051 C 
HETATM   15  C   UNL     1       6.485  33.758  65.481  1.00  0.00    -0.061 A 
HETATM   16  C   UNL     1       6.833  34.272  66.848  1.00  0.00     0.048 C 
HETATM   17  C   UNL     1       7.473  33.155  64.692  1.00  0.00     0.016 A 
HETATM   18  C   UNL     1       7.172  32.645  63.421  1.00  0.00    -0.028 A 
HETATM   19  C   UNL     1       8.261  31.987  62.621  1.00  0.00     0.051 C 
ENDBRANCH  10  11
ENDBRANCH   9  10
ENDBRANCH   6   9
ENDBRANCH   1   5
BRANCH   2  20
HETATM   20  C   UNL     1       7.717  28.616  57.280  1.00  0.00     0.121 A 
HETATM   21  N   UNL     1       7.515  29.024  55.994  1.00  0.00    -0.272 N 
HETATM   22  H   UNL     1       7.393  29.978  55.666  1.00  0.00     0.189 HD
HETATM   23  N   UNL     1       7.458  28.023  55.104  1.00  0.00    -0.174 NA
HETATM   24  C   UNL     1       7.611  26.906  55.832  1.00  0.00     0.089 A 
HETATM   25  C   UNL     1       7.810  27.242  57.202  1.00  0.00     0.071 A 
BRANCH  24  26
HETATM   26  C   UNL     1       7.532  25.569  55.226  1.00  0.00    -0.006 A 
HETATM   27  C   UNL     1       7.470  24.411  56.017  1.00  0.00     0.014 A 
HETATM   28  C   UNL     1       7.355  23.147  55.428  1.00  0.00     0.001 A 
HETATM   29  C   UNL     1       7.300  23.024  54.041  1.00  0.00     0.000 A 
HETATM   30  C   UNL     1       7.367  24.162  53.242  1.00  0.00     0.001 A 
HETATM   31  C   UNL     1       7.483  25.425  53.830  1.00  0.00     0.014 A 
ENDBRANCH  24  26
ENDBRANCH   2  20
TORSDOF 6
ENDMDL
MODEL 9
REMARK VINA RESULT:      -9.4      1.751      2.559
REMARK  6 active torsions:
REMARK  status: ('A' for Active; 'I' for Inactive)
REMARK    1  A    between atoms: C_6  and  O_7 
REMARK    2  A    between atoms: O_7  and  C_8 
REMARK    3  A    between atoms: C_8  and  C_9 
REMARK       I    between atoms: C_9  and  N_10 
REMARK    4  A    between atoms: N_10  and  N_11 
REMARK       I    between atoms: N_11  and  C_12 
REMARK    5  A    between atoms: C_12  and  C_13 
REMARK    6  A    between atoms: C_17  and  C_18 
ROOT
HETATM    1  N   UNL     1       7.292  29.633  57.543  1.00  0.00    -0.262 N 
HETATM    2  C   UNL     1       6.423  30.700  57.401  1.00  0.00     0.288 C 
HETATM    3  O   UNL     1       5.885  30.977  56.333  1.00  0.00    -0.264 OA
HETATM    4  H   UNL     1       7.429  29.217  58.460  1.00  0.00     0.190 HD
ENDROOT
BRANCH   1   5
HETATM    5  N   UNL     1       7.468  28.773  56.453  1.00  0.00    -0.265 N 
HETATM    6  C   UNL     1       7.690  27.429  56.694  1.00  0.00     0.260 C 
HETATM    7  O   UNL     1       7.912  26.975  57.814  1.00  0.00    -0.269 OA
HETATM    8  H   UNL     1       7.062  29.061  55.565  1.00  0.00     0.190 HD
BRANCH   6   9
HETATM    9  C   UNL     1       7.593  26.560  55.444  1.00  0.00     0.280 C 
BRANCH   9  10
HETATM   10  O   UNL     1       6.804  25.406  55.751  1.00  0.00    -0.341 OA
BRANCH  10  11
HETATM   11  C   UNL     1       7.253  24.303  55.072  1.00  0.00     0.081 A 
HETATM   12  C   UNL     1       8.121  23.416  55.729  1.00  0.00    -0.028 A 
HETATM   13  C   UNL     1       8.552  22.266  55.053  1.00  0.00     0.016 A 
HETATM   14  C   UNL     1       8.607  23.686  57.125  1.00  0.00     0.051 C 
HETATM   15  C   UNL     1       8.102  21.982  53.759  1.00  0.00    -0.061 A 
HETATM   16  C   UNL     1       8.550  20.744  53.039  1.00  0.00     0.048 C 
HETATM   17  C   UNL     1       7.208  22.863  53.136  1.00  0.00     0.016 A 
HETATM   18  C   UNL     1       6.754  24.016  53.793  1.00  0.00    -0.028 A 
HETATM   19  C   UNL     1       5.778  24.918  53.092  1.00  0.00     0.051 C 
ENDBRANCH  10  11
ENDBRANCH   9  10
ENDBRANCH   6   9
ENDBRANCH   1   5
BRANCH   2  20
HETATM   20  C   UNL     1       6.214  31.469  58.598  1.00  0.00     0.121 A 
HETATM   21  N   UNL     1       5.337  32.513  58.648  1.00  0.00    -0.272 N 
HETATM   22  H   UNL     1       4.732  32.840  57.900  1.00  0.00     0.189 HD
HETATM   23  N   UNL     1       5.320  33.159  59.822  1.00  0.00    -0.174 NA
HETATM   24  C   UNL     1       6.235  32.529  60.576  1.00  0.00     0.089 A 
HETATM   25  C   UNL     1       6.796  31.439  59.849  1.00  0.00     0.071 A 
BRANCH  24  26
HETATM   26  C   UNL     1       6.575  32.990  61.929  1.00  0.00    -0.006 A 
HETATM   27  C   UNL     1       7.597  32.380  62.674  1.00  0.00     0.014 A 
HETATM   28  C   UNL     1       7.936  32.854  63.945  1.00  0.00     0.001 A 
HETATM   29  C   UNL     1       7.260  33.944  64.489  1.00  0.00     0.000 A 
HETATM   30  C   UNL     1       6.239  34.556  63.768  1.00  0.00     0.001 A 
HETATM   31  C   UNL     1       5.899  34.082  62.498  1.00  0.00     0.014 A 
ENDBRANCH  24  26
ENDBRANCH   2  20
TORSDOF 6
ENDMDL
MODEL 10
REMARK VINA RESULT:      -9.1      6.792     10.714
REMARK  6 active torsions:
REMARK  status: ('A' for Active; 'I' for Inactive)
REMARK    1  A    between atoms: C_6  and  O_7 
REMARK    2  A    between atoms: O_7  and  C_8 
REMARK    3  A    between atoms: C_8  and  C_9 
REMARK       I    between atoms: C_9  and  N_10 
REMARK    4  A    between atoms: N_10  and  N_11 
REMARK       I    between atoms: N_11  and  C_12 
REMARK    5  A    between atoms: C_12  and  C_13 
REMARK    6  A    between atoms: C_17  and  C_18 
ROOT
HETATM    1  N   UNL     1       4.627  26.501  52.121  1.00  0.00    -0.262 N 
HETATM    2  C   UNL     1       5.152  26.703  53.385  1.00  0.00     0.288 C 
HETATM    3  O   UNL     1       5.093  27.787  53.960  1.00  0.00    -0.264 OA
HETATM    4  H   UNL     1       4.369  25.562  51.830  1.00  0.00     0.190 HD
ENDROOT
BRANCH   1   5
HETATM    5  N   UNL     1       3.900  27.542  51.531  1.00  0.00    -0.265 N 
HETATM    6  C   UNL     1       4.467  28.236  50.478  1.00  0.00     0.260 C 
HETATM    7  O   UNL     1       5.641  28.104  50.139  1.00  0.00    -0.269 OA
HETATM    8  H   UNL     1       2.886  27.508  51.620  1.00  0.00     0.190 HD
BRANCH   6   9
HETATM    9  C   UNL     1       3.485  29.150  49.749  1.00  0.00     0.280 C 
BRANCH   9  10
HETATM   10  O   UNL     1       3.727  29.050  48.342  1.00  0.00    -0.341 OA
BRANCH  10  11
HETATM   11  C   UNL     1       2.580  28.726  47.664  1.00  0.00     0.081 A 
HETATM   12  C   UNL     1       1.805  29.763  47.120  1.00  0.00    -0.028 A 
HETATM   13  C   UNL     1       0.653  29.435  46.391  1.00  0.00     0.016 A 
HETATM   14  C   UNL     1       2.175  31.206  47.320  1.00  0.00     0.051 C 
HETATM   15  C   UNL     1       0.295  28.100  46.176  1.00  0.00    -0.061 A 
HETATM   16  C   UNL     1      -0.930  27.747  45.383  1.00  0.00     0.048 C 
HETATM   17  C   UNL     1       1.103  27.082  46.697  1.00  0.00     0.016 A 
HETATM   18  C   UNL     1       2.265  27.381  47.422  1.00  0.00    -0.028 A 
HETATM   19  C   UNL     1       3.112  26.253  47.942  1.00  0.00     0.051 C 
ENDBRANCH  10  11
ENDBRANCH   9  10
ENDBRANCH   6   9
ENDBRANCH   1   5
BRANCH   2  20
HETATM   20  C   UNL     1       5.789  25.551  53.963  1.00  0.00     0.121 A 
HETATM   21  N   UNL     1       6.178  25.514  55.270  1.00  0.00    -0.272 N 
HETATM   22  H   UNL     1       6.047  26.241  55.968  1.00  0.00     0.189 HD
HETATM   23  N   UNL     1       6.815  24.389  55.621  1.00  0.00    -0.174 NA
HETATM   24  C   UNL     1       6.866  23.656  54.497  1.00  0.00     0.089 A 
HETATM   25  C   UNL     1       6.201  24.342  53.440  1.00  0.00     0.071 A 
BRANCH  24  26
HETATM   26  C   UNL     1       7.563  22.364  54.446  1.00  0.00    -0.006 A 
HETATM   27  C   UNL     1       7.803  21.617  55.610  1.00  0.00     0.014 A 
HETATM   28  C   UNL     1       8.433  20.369  55.543  1.00  0.00     0.001 A 
HETATM   29  C   UNL     1       8.831  19.852  54.312  1.00  0.00     0.000 A 
HETATM   30  C   UNL     1       8.607  20.583  53.148  1.00  0.00     0.001 A 
HETATM   31  C   UNL     1       7.979  21.830  53.216  1.00  0.00     0.014 A 
ENDBRANCH  24  26
ENDBRANCH   2  20
TORSDOF 6
ENDMDL
