MODEL 1
REMARK VINA RESULT:     -10.9      0.000      0.000
REMARK  9 active torsions:
REMARK  status: ('A' for Active; 'I' for Inactive)
REMARK    1  A    between atoms: C_2  and  O_3 
REMARK    2  A    between atoms: O_3  and  C_4 
REMARK    3  A    between atoms: C_4  and  C_5 
REMARK    4  A    between atoms: C_8  and  N_9 
REMARK       I    between atoms: N_9  and  C_10 
REMARK    5  A    between atoms: C_10  and  C_11 
REMARK    6  A    between atoms: C_11  and  C_12 
REMARK    7  A    between atoms: N_13  and  C_14 
REMARK    8  A    between atoms: C_14  and  C_15 
REMARK    9  A    between atoms: N_23  and  C_24 
ROOT
HETATM    1  C   UNL     1       7.273  27.132  55.119  1.00  0.00     0.191 C 
HETATM    2  N   UNL     1       7.689  26.989  56.502  1.00  0.00    -0.315 N 
HETATM    3  C   UNL     1       7.887  25.655  56.844  1.00  0.00     0.333 C 
HETATM    4  O   UNL     1       8.037  25.295  58.002  1.00  0.00    -0.246 OA
HETATM    5  N   UNL     1       7.834  24.892  55.695  1.00  0.00    -0.232 N 
HETATM    6  C   UNL     1       7.553  25.712  54.621  1.00  0.00     0.256 C 
HETATM    7  O   UNL     1       7.464  25.423  53.432  1.00  0.00    -0.270 OA
ENDROOT
BRANCH   1   8
HETATM    8  C   UNL     1       5.789  27.398  54.884  1.00  0.00     0.138 C 
BRANCH   8   9
HETATM    9  C   UNL     1       5.511  28.804  54.444  1.00  0.00     0.224 C 
HETATM   10  N   UNL     1       5.454  29.211  53.154  1.00  0.00    -0.327 N 
HETATM   11  H   UNL     1       5.374  30.224  53.136  1.00  0.00     0.169 HD
HETATM   12  O   UNL     1       5.361  29.681  55.306  1.00  0.00    -0.273 OA
BRANCH  10  13
HETATM   13  C   UNL     1       5.373  28.598  51.894  1.00  0.00     0.034 A 
HETATM   14  C   UNL     1       5.107  27.255  51.641  1.00  0.00     0.030 A 
HETATM   15  C   UNL     1       4.918  26.805  50.321  1.00  0.00     0.020 A 
HETATM   16  C   UNL     1       4.994  27.692  49.239  1.00  0.00     0.039 A 
HETATM   17  C   UNL     1       5.317  29.026  49.484  1.00  0.00     0.020 A 
HETATM   18  C   UNL     1       5.505  29.468  50.797  1.00  0.00     0.030 A 
BRANCH  16  19
HETATM   19  C   UNL     1       4.675  27.190  47.873  1.00  0.00     0.293 C 
HETATM   20  O   UNL     1       5.522  26.900  47.043  1.00  0.00    -0.259 OA
BRANCH  19  21
HETATM   21  O   UNL     1       3.333  27.038  47.736  1.00  0.00    -0.318 OA
BRANCH  21  22
HETATM   22  C   UNL     1       2.895  25.853  47.057  1.00  0.00     0.174 C 
HETATM   23  C   UNL     1       2.955  24.654  47.981  1.00  0.00     0.034 C 
ENDBRANCH  21  22
ENDBRANCH  19  21
ENDBRANCH  16  19
ENDBRANCH  10  13
ENDBRANCH   8   9
ENDBRANCH   1   8
BRANCH   2  24
HETATM   24  C   UNL     1       7.537  28.008  57.533  1.00  0.00     0.168 C 
BRANCH  24  25
HETATM   25  C   UNL     1       8.652  29.011  57.615  1.00  0.00    -0.023 A 
HETATM   26  C   UNL     1       8.546  30.172  58.371  1.00  0.00     0.125 A 
HETATM   27  N   UNL     1       9.509  31.119  58.449  1.00  0.00    -0.273 NA
HETATM   28  C   UNL     1      10.620  30.922  57.709  1.00  0.00     0.116 A 
HETATM   29  C   UNL     1      10.814  29.818  56.898  1.00  0.00     0.020 A 
HETATM   30  C   UNL     1       9.813  28.854  56.849  1.00  0.00     0.012 A 
ENDBRANCH  24  25
ENDBRANCH   2  24
BRANCH   5  31
HETATM   31  C   UNL     1       7.989  23.470  55.652  1.00  0.00     0.047 A 
HETATM   32  C   UNL     1       7.864  22.753  54.447  1.00  0.00     0.037 A 
HETATM   33  C   UNL     1       8.066  21.363  54.375  1.00  0.00    -0.060 A 
HETATM   34  C   UNL     1       7.906  20.632  53.073  1.00  0.00     0.048 C 
HETATM   35  C   UNL     1       8.374  20.661  55.539  1.00  0.00     0.007 A 
HETATM   36  C   UNL     1       8.489  21.341  56.747  1.00  0.00     0.003 A 
HETATM   37  C   UNL     1       8.296  22.728  56.801  1.00  0.00     0.030 A 
ENDBRANCH   5  31
TORSDOF 9
ENDMDL
MODEL 2
REMARK VINA RESULT:     -10.8      3.444      6.833
REMARK  9 active torsions:
REMARK  status: ('A' for Active; 'I' for Inactive)
REMARK    1  A    between atoms: C_2  and  O_3 
REMARK    2  A    between atoms: O_3  and  C_4 
REMARK    3  A    between atoms: C_4  and  C_5 
REMARK    4  A    between atoms: C_8  and  N_9 
REMARK       I    between atoms: N_9  and  C_10 
REMARK    5  A    between atoms: C_10  and  C_11 
REMARK    6  A    between atoms: C_11  and  C_12 
REMARK    7  A    between atoms: N_13  and  C_14 
REMARK    8  A    between atoms: C_14  and  C_15 
REMARK    9  A    between atoms: N_23  and  C_24 
ROOT
HETATM    1  C   UNL     1       6.481  27.519  55.422  1.00  0.00     0.191 C 
HETATM    2  N   UNL     1       7.442  27.191  56.458  1.00  0.00    -0.315 N 
HETATM    3  C   UNL     1       7.875  25.873  56.359  1.00  0.00     0.333 C 
HETATM    4  O   UNL     1       8.522  25.331  57.244  1.00  0.00    -0.246 OA
HETATM    5  N   UNL     1       7.416  25.345  55.170  1.00  0.00    -0.232 N 
HETATM    6  C   UNL     1       6.647  26.291  54.523  1.00  0.00     0.256 C 
HETATM    7  O   UNL     1       6.098  26.223  53.428  1.00  0.00    -0.270 OA
ENDROOT
BRANCH   1   8
HETATM    8  C   UNL     1       5.016  27.559  55.848  1.00  0.00     0.138 C 
BRANCH   8   9
HETATM    9  C   UNL     1       4.218  28.585  55.100  1.00  0.00     0.224 C 
HETATM   10  N   UNL     1       3.828  29.778  55.608  1.00  0.00    -0.327 N 
HETATM   11  H   UNL     1       3.203  30.224  54.943  1.00  0.00     0.169 HD
HETATM   12  O   UNL     1       3.843  28.325  53.948  1.00  0.00    -0.273 OA
BRANCH  10  13
HETATM   13  C   UNL     1       4.146  30.563  56.727  1.00  0.00     0.034 A 
HETATM   14  C   UNL     1       3.350  30.765  57.851  1.00  0.00     0.030 A 
HETATM   15  C   UNL     1       3.856  31.467  58.961  1.00  0.00     0.020 A 
HETATM   16  C   UNL     1       5.162  31.973  58.960  1.00  0.00     0.039 A 
HETATM   17  C   UNL     1       5.942  31.822  57.815  1.00  0.00     0.020 A 
HETATM   18  C   UNL     1       5.435  31.125  56.713  1.00  0.00     0.030 A 
BRANCH  16  19
HETATM   19  C   UNL     1       5.689  32.609  60.201  1.00  0.00     0.293 C 
HETATM   20  O   UNL     1       5.070  33.432  60.856  1.00  0.00    -0.259 OA
BRANCH  19  21
HETATM   21  O   UNL     1       6.898  32.078  60.516  1.00  0.00    -0.318 OA
BRANCH  21  22
HETATM   22  C   UNL     1       7.153  31.862  61.911  1.00  0.00     0.174 C 
HETATM   23  C   UNL     1       8.639  31.932  62.200  1.00  0.00     0.034 C 
ENDBRANCH  21  22
ENDBRANCH  19  21
ENDBRANCH  16  19
ENDBRANCH  10  13
ENDBRANCH   8   9
ENDBRANCH   1   8
BRANCH   2  24
HETATM   24  C   UNL     1       7.647  27.952  57.684  1.00  0.00     0.168 C 
BRANCH  24  25
HETATM   25  C   UNL     1       8.705  29.016  57.612  1.00  0.00    -0.023 A 
HETATM   26  C   UNL     1       9.672  29.029  56.615  1.00  0.00     0.125 A 
HETATM   27  N   UNL     1      10.662  29.946  56.528  1.00  0.00    -0.273 NA
HETATM   28  C   UNL     1      10.719  30.876  57.504  1.00  0.00     0.116 A 
HETATM   29  C   UNL     1       9.827  30.935  58.560  1.00  0.00     0.020 A 
HETATM   30  C   UNL     1       8.810  29.988  58.614  1.00  0.00     0.012 A 
ENDBRANCH  24  25
ENDBRANCH   2  24
BRANCH   5  31
HETATM   31  C   UNL     1       7.657  24.007  54.723  1.00  0.00     0.047 A 
HETATM   32  C   UNL     1       7.587  22.913  55.606  1.00  0.00     0.037 A 
HETATM   33  C   UNL     1       7.768  21.586  55.173  1.00  0.00    -0.060 A 
HETATM   34  C   UNL     1       7.702  20.448  56.149  1.00  0.00     0.048 C 
HETATM   35  C   UNL     1       8.053  21.342  53.831  1.00  0.00     0.007 A 
HETATM   36  C   UNL     1       8.144  22.406  52.939  1.00  0.00     0.003 A 
HETATM   37  C   UNL     1       7.950  23.721  53.381  1.00  0.00     0.030 A 
ENDBRANCH   5  31
TORSDOF 9
ENDMDL
MODEL 3
REMARK VINA RESULT:     -10.7      2.574      8.182
REMARK  9 active torsions:
REMARK  status: ('A' for Active; 'I' for Inactive)
REMARK    1  A    between atoms: C_2  and  O_3 
REMARK    2  A    between atoms: O_3  and  C_4 
REMARK    3  A    between atoms: C_4  and  C_5 
REMARK    4  A    between atoms: C_8  and  N_9 
REMARK       I    between atoms: N_9  and  C_10 
REMARK    5  A    between atoms: C_10  and  C_11 
REMARK    6  A    between atoms: C_11  and  C_12 
REMARK    7  A    between atoms: N_13  and  C_14 
REMARK    8  A    between atoms: C_14  and  C_15 
REMARK    9  A    between atoms: N_23  and  C_24 
ROOT
HETATM    1  C   UNL     1       5.308  26.914  53.947  1.00  0.00     0.191 C 
HETATM    2  N   UNL     1       5.909  26.750  52.636  1.00  0.00    -0.315 N 
HETATM    3  C   UNL     1       6.818  25.697  52.615  1.00  0.00     0.333 C 
HETATM    4  O   UNL     1       7.583  25.516  51.679  1.00  0.00    -0.246 OA
HETATM    5  N   UNL     1       6.707  24.994  53.797  1.00  0.00    -0.232 N 
HETATM    6  C   UNL     1       5.772  25.611  54.603  1.00  0.00     0.256 C 
HETATM    7  O   UNL     1       5.362  25.273  55.709  1.00  0.00    -0.270 OA
ENDROOT
BRANCH   1   8
HETATM    8  C   UNL     1       5.849  28.057  54.800  1.00  0.00     0.138 C 
BRANCH   8   9
HETATM    9  C   UNL     1       4.839  28.588  55.773  1.00  0.00     0.224 C 
HETATM   10  N   UNL     1       5.143  29.173  56.956  1.00  0.00    -0.327 N 
HETATM   11  H   UNL     1       4.281  29.329  57.471  1.00  0.00     0.169 HD
HETATM   12  O   UNL     1       3.635  28.455  55.515  1.00  0.00    -0.273 OA
BRANCH  10  13
HETATM   13  C   UNL     1       6.293  29.692  57.572  1.00  0.00     0.034 A 
HETATM   14  C   UNL     1       7.544  29.086  57.635  1.00  0.00     0.030 A 
HETATM   15  C   UNL     1       8.645  29.785  58.165  1.00  0.00     0.020 A 
HETATM   16  C   UNL     1       8.506  31.096  58.638  1.00  0.00     0.039 A 
HETATM   17  C   UNL     1       7.243  31.686  58.628  1.00  0.00     0.020 A 
HETATM   18  C   UNL     1       6.152  30.987  58.101  1.00  0.00     0.030 A 
BRANCH  16  19
HETATM   19  C   UNL     1       9.722  31.834  59.084  1.00  0.00     0.293 C 
HETATM   20  O   UNL     1      10.754  31.894  58.434  1.00  0.00    -0.259 OA
BRANCH  19  21
HETATM   21  O   UNL     1       9.472  32.474  60.254  1.00  0.00    -0.318 OA
BRANCH  21  22
HETATM   22  C   UNL     1       9.560  31.677  61.444  1.00  0.00     0.174 C 
HETATM   23  C   UNL     1       8.451  32.038  62.412  1.00  0.00     0.034 C 
ENDBRANCH  21  22
ENDBRANCH  19  21
ENDBRANCH  16  19
ENDBRANCH  10  13
ENDBRANCH   8   9
ENDBRANCH   1   8
BRANCH   2  24
HETATM   24  C   UNL     1       5.911  27.758  51.582  1.00  0.00     0.168 C 
BRANCH  24  25
HETATM   25  C   UNL     1       4.847  27.596  50.535  1.00  0.00    -0.023 A 
HETATM   26  C   UNL     1       3.805  28.506  50.395  1.00  0.00     0.125 A 
HETATM   27  N   UNL     1       2.807  28.385  49.490  1.00  0.00    -0.273 NA
HETATM   28  C   UNL     1       2.822  27.284  48.709  1.00  0.00     0.116 A 
HETATM   29  C   UNL     1       3.793  26.301  48.788  1.00  0.00     0.020 A 
HETATM   30  C   UNL     1       4.815  26.461  49.718  1.00  0.00     0.012 A 
ENDBRANCH  24  25
ENDBRANCH   2  24
BRANCH   5  31
HETATM   31  C   UNL     1       7.487  23.845  54.140  1.00  0.00     0.047 A 
HETATM   32  C   UNL     1       7.487  22.689  53.337  1.00  0.00     0.037 A 
HETATM   33  C   UNL     1       8.289  21.570  53.629  1.00  0.00    -0.060 A 
HETATM   34  C   UNL     1       8.246  20.349  52.757  1.00  0.00     0.048 C 
HETATM   35  C   UNL     1       9.094  21.591  54.766  1.00  0.00     0.007 A 
HETATM   36  C   UNL     1       9.103  22.715  55.587  1.00  0.00     0.003 A 
HETATM   37  C   UNL     1       8.308  23.826  55.277  1.00  0.00     0.030 A 
ENDBRANCH   5  31
TORSDOF 9
ENDMDL
MODEL 4
REMARK VINA RESULT:     -10.1      1.283      2.037
REMARK  9 active torsions:
REMARK  status: ('A' for Active; 'I' for Inactive)
REMARK    1  A    between atoms: C_2  and  O_3 
REMARK    2  A    between atoms: O_3  and  C_4 
REMARK    3  A    between atoms: C_4  and  C_5 
REMARK    4  A    between atoms: C_8  and  N_9 
REMARK       I    between atoms: N_9  and  C_10 
REMARK    5  A    between atoms: C_10  and  C_11 
REMARK    6  A    between atoms: C_11  and  C_12 
REMARK    7  A    between atoms: N_13  and  C_14 
REMARK    8  A    between atoms: C_14  and  C_15 
REMARK    9  A    between atoms: N_23  and  C_24 
ROOT
HETATM    1  C   UNL     1       7.014  27.576  54.975  1.00  0.00     0.191 C 
HETATM    2  N   UNL     1       7.581  27.135  56.236  1.00  0.00    -0.315 N 
HETATM    3  C   UNL     1       7.813  25.763  56.243  1.00  0.00     0.333 C 
HETATM    4  O   UNL     1       8.091  25.154  57.266  1.00  0.00    -0.246 OA
HETATM    5  N   UNL     1       7.630  25.277  54.964  1.00  0.00    -0.232 N 
HETATM    6  C   UNL     1       7.233  26.312  54.141  1.00  0.00     0.256 C 
HETATM    7  O   UNL     1       7.011  26.296  52.935  1.00  0.00    -0.270 OA
ENDROOT
BRANCH   1   8
HETATM    8  C   UNL     1       5.513  27.854  54.971  1.00  0.00     0.138 C 
BRANCH   8   9
HETATM    9  C   UNL     1       5.190  29.309  54.808  1.00  0.00     0.224 C 
HETATM   10  N   UNL     1       4.919  29.911  53.625  1.00  0.00    -0.327 N 
HETATM   11  H   UNL     1       4.856  30.913  53.778  1.00  0.00     0.169 HD
HETATM   12  O   UNL     1       5.208  30.040  55.807  1.00  0.00    -0.273 OA
BRANCH  10  13
HETATM   13  C   UNL     1       4.610  29.499  52.319  1.00  0.00     0.034 A 
HETATM   14  C   UNL     1       5.501  28.996  51.375  1.00  0.00     0.030 A 
HETATM   15  C   UNL     1       5.027  28.492  50.149  1.00  0.00     0.020 A 
HETATM   16  C   UNL     1       3.658  28.485  49.854  1.00  0.00     0.039 A 
HETATM   17  C   UNL     1       2.768  29.040  50.772  1.00  0.00     0.020 A 
HETATM   18  C   UNL     1       3.244  29.541  51.989  1.00  0.00     0.030 A 
BRANCH  16  19
HETATM   19  C   UNL     1       3.196  27.838  48.593  1.00  0.00     0.293 C 
HETATM   20  O   UNL     1       2.335  26.974  48.552  1.00  0.00    -0.259 OA
BRANCH  19  21
HETATM   21  O   UNL     1       3.813  28.408  47.527  1.00  0.00    -0.318 OA
BRANCH  21  22
HETATM   22  C   UNL     1       3.261  29.648  47.063  1.00  0.00     0.174 C 
HETATM   23  C   UNL     1       4.344  30.700  46.932  1.00  0.00     0.034 C 
ENDBRANCH  21  22
ENDBRANCH  19  21
ENDBRANCH  16  19
ENDBRANCH  10  13
ENDBRANCH   8   9
ENDBRANCH   1   8
BRANCH   2  24
HETATM   24  C   UNL     1       7.548  27.891  57.482  1.00  0.00     0.168 C 
BRANCH  24  25
HETATM   25  C   UNL     1       8.600  28.955  57.616  1.00  0.00    -0.023 A 
HETATM   26  C   UNL     1       8.405  30.092  58.391  1.00  0.00     0.125 A 
HETATM   27  N   UNL     1       9.308  31.091  58.516  1.00  0.00    -0.273 NA
HETATM   28  C   UNL     1      10.448  30.975  57.804  1.00  0.00     0.116 A 
HETATM   29  C   UNL     1      10.730  29.901  56.978  1.00  0.00     0.020 A 
HETATM   30  C   UNL     1       9.788  28.882  56.881  1.00  0.00     0.012 A 
ENDBRANCH  24  25
ENDBRANCH   2  24
BRANCH   5  31
HETATM   31  C   UNL     1       7.775  23.906  54.583  1.00  0.00     0.047 A 
HETATM   32  C   UNL     1       7.721  22.869  55.533  1.00  0.00     0.037 A 
HETATM   33  C   UNL     1       7.808  21.512  55.170  1.00  0.00    -0.060 A 
HETATM   34  C   UNL     1       7.764  20.436  56.216  1.00  0.00     0.048 C 
HETATM   35  C   UNL     1       7.980  21.178  53.828  1.00  0.00     0.007 A 
HETATM   36  C   UNL     1       8.052  22.183  52.869  1.00  0.00     0.003 A 
HETATM   37  C   UNL     1       7.953  23.529  53.244  1.00  0.00     0.030 A 
ENDBRANCH   5  31
TORSDOF 9
ENDMDL
MODEL 5
REMARK VINA RESULT:     -10.1      4.124      9.141
REMARK  9 active torsions:
REMARK  status: ('A' for Active; 'I' for Inactive)
REMARK    1  A    between atoms: C_2  and  O_3 
REMARK    2  A    between atoms: O_3  and  C_4 
REMARK    3  A    between atoms: C_4  and  C_5 
REMARK    4  A    between atoms: C_8  and  N_9 
REMARK       I    between atoms: N_9  and  C_10 
REMARK    5  A    between atoms: C_10  and  C_11 
REMARK    6  A    between atoms: C_11  and  C_12 
REMARK    7  A    between atoms: N_13  and  C_14 
REMARK    8  A    between atoms: C_14  and  C_15 
REMARK    9  A    between atoms: N_23  and  C_24 
ROOT
HETATM    1  C   UNL     1       7.234  29.503  57.349  1.00  0.00     0.191 C 
HETATM    2  N   UNL     1       6.085  29.631  56.473  1.00  0.00    -0.315 N 
HETATM    3  C   UNL     1       5.936  28.515  55.655  1.00  0.00     0.333 C 
HETATM    4  O   UNL     1       5.164  28.500  54.707  1.00  0.00    -0.246 OA
HETATM    5  N   UNL     1       6.806  27.534  56.084  1.00  0.00    -0.232 N 
HETATM    6  C   UNL     1       7.553  28.022  57.137  1.00  0.00     0.256 C 
HETATM    7  O   UNL     1       8.401  27.448  57.813  1.00  0.00    -0.270 OA
ENDROOT
BRANCH   1   8
HETATM    8  C   UNL     1       8.481  30.286  56.946  1.00  0.00     0.138 C 
BRANCH   8   9
HETATM    9  C   UNL     1       9.612  30.122  57.917  1.00  0.00     0.224 C 
HETATM   10  N   UNL     1       9.629  30.628  59.173  1.00  0.00    -0.327 N 
HETATM   11  H   UNL     1      10.551  30.480  59.570  1.00  0.00     0.169 HD
HETATM   12  O   UNL     1      10.631  29.522  57.550  1.00  0.00    -0.273 OA
BRANCH  10  13
HETATM   13  C   UNL     1       8.694  31.184  60.061  1.00  0.00     0.034 A 
HETATM   14  C   UNL     1       7.673  32.075  59.739  1.00  0.00     0.030 A 
HETATM   15  C   UNL     1       6.722  32.443  60.708  1.00  0.00     0.020 A 
HETATM   16  C   UNL     1       6.780  31.926  62.009  1.00  0.00     0.039 A 
HETATM   17  C   UNL     1       7.834  31.079  62.350  1.00  0.00     0.020 A 
HETATM   18  C   UNL     1       8.777  30.716  61.384  1.00  0.00     0.030 A 
BRANCH  16  19
HETATM   19  C   UNL     1       5.686  32.257  62.966  1.00  0.00     0.293 C 
HETATM   20  O   UNL     1       4.924  31.427  63.436  1.00  0.00    -0.259 OA
BRANCH  19  21
HETATM   21  O   UNL     1       5.729  33.577  63.280  1.00  0.00    -0.318 OA
BRANCH  21  22
HETATM   22  C   UNL     1       5.786  33.895  64.678  1.00  0.00     0.174 C 
HETATM   23  C   UNL     1       7.183  33.666  65.220  1.00  0.00     0.034 C 
ENDBRANCH  21  22
ENDBRANCH  19  21
ENDBRANCH  16  19
ENDBRANCH  10  13
ENDBRANCH   8   9
ENDBRANCH   1   8
BRANCH   2  24
HETATM   24  C   UNL     1       5.403  30.880  56.160  1.00  0.00     0.168 C 
BRANCH  24  25
HETATM   25  C   UNL     1       4.728  31.554  57.320  1.00  0.00    -0.023 A 
HETATM   26  C   UNL     1       3.931  30.854  58.219  1.00  0.00     0.125 A 
HETATM   27  N   UNL     1       3.278  31.422  59.258  1.00  0.00    -0.273 NA
HETATM   28  C   UNL     1       3.390  32.760  59.390  1.00  0.00     0.116 A 
HETATM   29  C   UNL     1       4.131  33.556  58.535  1.00  0.00     0.020 A 
HETATM   30  C   UNL     1       4.804  32.942  57.484  1.00  0.00     0.012 A 
ENDBRANCH  24  25
ENDBRANCH   2  24
BRANCH   5  31
HETATM   31  C   UNL     1       6.942  26.243  55.482  1.00  0.00     0.047 A 
HETATM   32  C   UNL     1       7.317  26.096  54.132  1.00  0.00     0.037 A 
HETATM   33  C   UNL     1       7.508  24.835  53.539  1.00  0.00    -0.060 A 
HETATM   34  C   UNL     1       7.891  24.721  52.092  1.00  0.00     0.048 C 
HETATM   35  C   UNL     1       7.294  23.687  54.300  1.00  0.00     0.007 A 
HETATM   36  C   UNL     1       6.909  23.802  55.632  1.00  0.00     0.003 A 
HETATM   37  C   UNL     1       6.733  25.064  56.213  1.00  0.00     0.030 A 
ENDBRANCH   5  31
TORSDOF 9
ENDMDL
MODEL 6
REMARK VINA RESULT:      -9.8      2.461      6.628
REMARK  9 active torsions:
REMARK  status: ('A' for Active; 'I' for Inactive)
REMARK    1  A    between atoms: C_2  and  O_3 
REMARK    2  A    between atoms: O_3  and  C_4 
REMARK    3  A    between atoms: C_4  and  C_5 
REMARK    4  A    between atoms: C_8  and  N_9 
REMARK       I    between atoms: N_9  and  C_10 
REMARK    5  A    between atoms: C_10  and  C_11 
REMARK    6  A    between atoms: C_11  and  C_12 
REMARK    7  A    between atoms: N_13  and  C_14 
REMARK    8  A    between atoms: C_14  and  C_15 
REMARK    9  A    between atoms: N_23  and  C_24 
ROOT
HETATM    1  C   UNL     1       6.959  27.668  56.462  1.00  0.00     0.191 C 
HETATM    2  N   UNL     1       5.909  28.661  56.592  1.00  0.00    -0.315 N 
HETATM    3  C   UNL     1       6.265  29.671  57.481  1.00  0.00     0.333 C 
HETATM    4  O   UNL     1       5.456  30.491  57.893  1.00  0.00    -0.246 OA
HETATM    5  N   UNL     1       7.599  29.528  57.802  1.00  0.00    -0.232 N 
HETATM    6  C   UNL     1       8.097  28.407  57.170  1.00  0.00     0.256 C 
HETATM    7  O   UNL     1       9.242  27.965  57.170  1.00  0.00    -0.270 OA
ENDROOT
BRANCH   1   8
HETATM    8  C   UNL     1       6.746  26.358  57.215  1.00  0.00     0.138 C 
BRANCH   8   9
HETATM    9  C   UNL     1       7.653  25.260  56.745  1.00  0.00     0.224 C 
HETATM   10  N   UNL     1       7.560  24.648  55.540  1.00  0.00    -0.327 N 
HETATM   11  H   UNL     1       8.208  23.866  55.524  1.00  0.00     0.169 HD
HETATM   12  O   UNL     1       8.529  24.840  57.512  1.00  0.00    -0.273 OA
BRANCH  10  13
HETATM   13  C   UNL     1       6.897  24.882  54.325  1.00  0.00     0.034 A 
HETATM   14  C   UNL     1       5.525  24.813  54.103  1.00  0.00     0.030 A 
HETATM   15  C   UNL     1       4.986  25.209  52.864  1.00  0.00     0.020 A 
HETATM   16  C   UNL     1       5.812  25.679  51.836  1.00  0.00     0.039 A 
HETATM   17  C   UNL     1       7.192  25.695  52.035  1.00  0.00     0.020 A 
HETATM   18  C   UNL     1       7.723  25.300  53.267  1.00  0.00     0.030 A 
BRANCH  16  19
HETATM   19  C   UNL     1       5.185  26.193  50.585  1.00  0.00     0.293 C 
HETATM   20  O   UNL     1       4.343  25.580  49.948  1.00  0.00    -0.259 OA
BRANCH  19  21
HETATM   21  O   UNL     1       5.631  27.449  50.326  1.00  0.00    -0.318 OA
BRANCH  21  22
HETATM   22  C   UNL     1       4.871  28.209  49.376  1.00  0.00     0.174 C 
HETATM   23  C   UNL     1       5.422  29.615  49.252  1.00  0.00     0.034 C 
ENDBRANCH  21  22
ENDBRANCH  19  21
ENDBRANCH  16  19
ENDBRANCH  10  13
ENDBRANCH   8   9
ENDBRANCH   1   8
BRANCH   2  24
HETATM   24  C   UNL     1       4.518  28.469  56.201  1.00  0.00     0.168 C 
BRANCH  24  25
HETATM   25  C   UNL     1       4.121  29.109  54.902  1.00  0.00    -0.023 A 
HETATM   26  C   UNL     1       3.895  30.475  54.790  1.00  0.00     0.125 A 
HETATM   27  N   UNL     1       3.504  31.091  53.651  1.00  0.00    -0.273 NA
HETATM   28  C   UNL     1       3.289  30.305  52.576  1.00  0.00     0.116 A 
HETATM   29  C   UNL     1       3.453  28.931  52.586  1.00  0.00     0.020 A 
HETATM   30  C   UNL     1       3.870  28.328  53.768  1.00  0.00     0.012 A 
ENDBRANCH  24  25
ENDBRANCH   2  24
BRANCH   5  31
HETATM   31  C   UNL     1       8.319  30.381  58.696  1.00  0.00     0.047 A 
HETATM   32  C   UNL     1       8.003  30.446  60.066  1.00  0.00     0.037 A 
HETATM   33  C   UNL     1       8.736  31.238  60.970  1.00  0.00    -0.060 A 
HETATM   34  C   UNL     1       8.356  31.293  62.421  1.00  0.00     0.048 C 
HETATM   35  C   UNL     1       9.795  32.008  60.493  1.00  0.00     0.007 A 
HETATM   36  C   UNL     1      10.121  31.975  59.141  1.00  0.00     0.003 A 
HETATM   37  C   UNL     1       9.390  31.173  58.255  1.00  0.00     0.030 A 
ENDBRANCH   5  31
TORSDOF 9
ENDMDL
MODEL 7
REMARK VINA RESULT:      -9.7      3.100      7.992
REMARK  9 active torsions:
REMARK  status: ('A' for Active; 'I' for Inactive)
REMARK    1  A    between atoms: C_2  and  O_3 
REMARK    2  A    between atoms: O_3  and  C_4 
REMARK    3  A    between atoms: C_4  and  C_5 
REMARK    4  A    between atoms: C_8  and  N_9 
REMARK       I    between atoms: N_9  and  C_10 
REMARK    5  A    between atoms: C_10  and  C_11 
REMARK    6  A    between atoms: C_11  and  C_12 
REMARK    7  A    between atoms: N_13  and  C_14 
REMARK    8  A    between atoms: C_14  and  C_15 
REMARK    9  A    between atoms: N_23  and  C_24 
ROOT
HETATM    1  C   UNL     1       4.707  28.424  52.973  1.00  0.00     0.191 C 
HETATM    2  N   UNL     1       5.349  28.915  54.178  1.00  0.00    -0.315 N 
HETATM    3  C   UNL     1       4.835  30.149  54.567  1.00  0.00     0.333 C 
HETATM    4  O   UNL     1       5.369  30.833  55.428  1.00  0.00    -0.246 OA
HETATM    5  N   UNL     1       3.720  30.424  53.803  1.00  0.00    -0.232 N 
HETATM    6  C   UNL     1       3.536  29.406  52.889  1.00  0.00     0.256 C 
HETATM    7  O   UNL     1       2.640  29.262  52.064  1.00  0.00    -0.270 OA
ENDROOT
BRANCH   1   8
HETATM    8  C   UNL     1       5.501  28.571  51.678  1.00  0.00     0.138 C 
BRANCH   8   9
HETATM    9  C   UNL     1       5.271  27.439  50.721  1.00  0.00     0.224 C 
HETATM   10  N   UNL     1       5.726  26.176  50.898  1.00  0.00    -0.327 N 
HETATM   11  H   UNL     1       5.540  25.643  50.054  1.00  0.00     0.169 HD
HETATM   12  O   UNL     1       4.660  27.664  49.667  1.00  0.00    -0.273 OA
BRANCH  10  13
HETATM   13  C   UNL     1       6.270  25.427  51.953  1.00  0.00     0.034 A 
HETATM   14  C   UNL     1       5.561  24.780  52.961  1.00  0.00     0.030 A 
HETATM   15  C   UNL     1       6.231  23.948  53.878  1.00  0.00     0.020 A 
HETATM   16  C   UNL     1       7.615  23.754  53.797  1.00  0.00     0.039 A 
HETATM   17  C   UNL     1       8.337  24.445  52.824  1.00  0.00     0.020 A 
HETATM   18  C   UNL     1       7.667  25.271  51.916  1.00  0.00     0.030 A 
BRANCH  16  19
HETATM   19  C   UNL     1       8.261  22.776  54.718  1.00  0.00     0.293 C 
HETATM   20  O   UNL     1       9.272  23.016  55.360  1.00  0.00    -0.259 OA
BRANCH  19  21
HETATM   21  O   UNL     1       7.519  21.641  54.784  1.00  0.00    -0.318 OA
BRANCH  21  22
HETATM   22  C   UNL     1       8.173  20.430  54.379  1.00  0.00     0.174 C 
HETATM   23  C   UNL     1       8.333  20.387  52.873  1.00  0.00     0.034 C 
ENDBRANCH  21  22
ENDBRANCH  19  21
ENDBRANCH  16  19
ENDBRANCH  10  13
ENDBRANCH   8   9
ENDBRANCH   1   8
BRANCH   2  24
HETATM   24  C   UNL     1       6.620  28.436  54.707  1.00  0.00     0.168 C 
BRANCH  24  25
HETATM   25  C   UNL     1       6.523  27.296  55.681  1.00  0.00    -0.023 A 
HETATM   26  C   UNL     1       7.645  26.601  56.117  1.00  0.00     0.125 A 
HETATM   27  N   UNL     1       7.604  25.549  56.966  1.00  0.00    -0.273 NA
HETATM   28  C   UNL     1       6.384  25.140  57.373  1.00  0.00     0.116 A 
HETATM   29  C   UNL     1       5.202  25.740  56.975  1.00  0.00     0.020 A 
HETATM   30  C   UNL     1       5.277  26.829  56.113  1.00  0.00     0.012 A 
ENDBRANCH  24  25
ENDBRANCH   2  24
BRANCH   5  31
HETATM   31  C   UNL     1       2.928  31.610  53.913  1.00  0.00     0.047 A 
HETATM   32  C   UNL     1       2.860  32.549  52.867  1.00  0.00     0.037 A 
HETATM   33  C   UNL     1       2.043  33.694  52.936  1.00  0.00    -0.060 A 
HETATM   34  C   UNL     1       2.012  34.680  51.805  1.00  0.00     0.048 C 
HETATM   35  C   UNL     1       1.295  33.925  54.088  1.00  0.00     0.007 A 
HETATM   36  C   UNL     1       1.354  33.021  55.145  1.00  0.00     0.003 A 
HETATM   37  C   UNL     1       2.162  31.880  55.057  1.00  0.00     0.030 A 
ENDBRANCH   5  31
TORSDOF 9
ENDMDL
MODEL 8
REMARK VINA RESULT:      -9.3      2.434      8.024
REMARK  9 active torsions:
REMARK  status: ('A' for Active; 'I' for Inactive)
REMARK    1  A    between atoms: C_2  and  O_3 
REMARK    2  A    between atoms: O_3  and  C_4 
REMARK    3  A    between atoms: C_4  and  C_5 
REMARK    4  A    between atoms: C_8  and  N_9 
REMARK       I    between atoms: N_9  and  C_10 
REMARK    5  A    between atoms: C_10  and  C_11 
REMARK    6  A    between atoms: C_11  and  C_12 
REMARK    7  A    between atoms: N_13  and  C_14 
REMARK    8  A    between atoms: C_14  and  C_15 
REMARK    9  A    between atoms: N_23  and  C_24 
ROOT
HETATM    1  C   UNL     1       4.598  27.433  52.683  1.00  0.00     0.191 C 
HETATM    2  N   UNL     1       5.276  26.834  51.548  1.00  0.00    -0.315 N 
HETATM    3  C   UNL     1       6.206  25.880  51.950  1.00  0.00     0.333 C 
HETATM    4  O   UNL     1       7.027  25.406  51.178  1.00  0.00    -0.246 OA
HETATM    5  N   UNL     1       6.043  25.645  53.300  1.00  0.00    -0.232 N 
HETATM    6  C   UNL     1       5.051  26.473  53.786  1.00  0.00     0.256 C 
HETATM    7  O   UNL     1       4.586  26.538  54.919  1.00  0.00    -0.270 OA
ENDROOT
BRANCH   1   8
HETATM    8  C   UNL     1       5.067  28.827  53.091  1.00  0.00     0.138 C 
BRANCH   8   9
HETATM    9  C   UNL     1       4.013  29.606  53.819  1.00  0.00     0.224 C 
HETATM   10  N   UNL     1       4.044  29.892  55.143  1.00  0.00    -0.327 N 
HETATM   11  H   UNL     1       3.160  30.320  55.402  1.00  0.00     0.169 HD
HETATM   12  O   UNL     1       3.015  29.990  53.194  1.00  0.00    -0.273 OA
BRANCH  10  13
HETATM   13  C   UNL     1       4.994  29.844  56.175  1.00  0.00     0.034 A 
HETATM   14  C   UNL     1       5.538  28.698  56.748  1.00  0.00     0.030 A 
HETATM   15  C   UNL     1       6.587  28.801  57.681  1.00  0.00     0.020 A 
HETATM   16  C   UNL     1       7.102  30.050  58.052  1.00  0.00     0.039 A 
HETATM   17  C   UNL     1       6.521  31.202  57.524  1.00  0.00     0.020 A 
HETATM   18  C   UNL     1       5.479  31.095  56.597  1.00  0.00     0.030 A 
BRANCH  16  19
HETATM   19  C   UNL     1       8.286  30.102  58.956  1.00  0.00     0.293 C 
HETATM   20  O   UNL     1       8.242  30.507  60.107  1.00  0.00    -0.259 OA
BRANCH  19  21
HETATM   21  O   UNL     1       9.367  29.565  58.335  1.00  0.00    -0.318 OA
BRANCH  21  22
HETATM   22  C   UNL     1      10.144  30.461  57.528  1.00  0.00     0.174 C 
HETATM   23  C   UNL     1      11.529  29.894  57.283  1.00  0.00     0.034 C 
ENDBRANCH  21  22
ENDBRANCH  19  21
ENDBRANCH  16  19
ENDBRANCH  10  13
ENDBRANCH   8   9
ENDBRANCH   1   8
BRANCH   2  24
HETATM   24  C   UNL     1       5.318  27.395  50.204  1.00  0.00     0.168 C 
BRANCH  24  25
HETATM   25  C   UNL     1       4.103  27.134  49.360  1.00  0.00    -0.023 A 
HETATM   26  C   UNL     1       3.027  28.012  49.323  1.00  0.00     0.125 A 
HETATM   27  N   UNL     1       1.900  27.804  48.605  1.00  0.00    -0.273 NA
HETATM   28  C   UNL     1       1.820  26.645  47.918  1.00  0.00     0.116 A 
HETATM   29  C   UNL     1       2.819  25.688  47.910  1.00  0.00     0.020 A 
HETATM   30  C   UNL     1       3.972  25.937  48.646  1.00  0.00     0.012 A 
ENDBRANCH  24  25
ENDBRANCH   2  24
BRANCH   5  31
HETATM   31  C   UNL     1       6.826  24.728  54.069  1.00  0.00     0.047 A 
HETATM   32  C   UNL     1       7.470  25.126  55.256  1.00  0.00     0.037 A 
HETATM   33  C   UNL     1       8.200  24.225  56.054  1.00  0.00    -0.060 A 
HETATM   34  C   UNL     1       8.887  24.694  57.304  1.00  0.00     0.048 C 
HETATM   35  C   UNL     1       8.315  22.897  55.647  1.00  0.00     0.007 A 
HETATM   36  C   UNL     1       7.701  22.479  54.470  1.00  0.00     0.003 A 
HETATM   37  C   UNL     1       6.968  23.384  53.692  1.00  0.00     0.030 A 
ENDBRANCH   5  31
TORSDOF 9
ENDMDL
MODEL 9
REMARK VINA RESULT:      -9.2      3.572      8.440
REMARK  9 active torsions:
REMARK  status: ('A' for Active; 'I' for Inactive)
REMARK    1  A    between atoms: C_2  and  O_3 
REMARK    2  A    between atoms: O_3  and  C_4 
REMARK    3  A    between atoms: C_4  and  C_5 
REMARK    4  A    between atoms: C_8  and  N_9 
REMARK       I    between atoms: N_9  and  C_10 
REMARK    5  A    between atoms: C_10  and  C_11 
REMARK    6  A    between atoms: C_11  and  C_12 
REMARK    7  A    between atoms: N_13  and  C_14 
REMARK    8  A    between atoms: C_14  and  C_15 
REMARK    9  A    between atoms: N_23  and  C_24 
ROOT
HETATM    1  C   UNL     1       7.349  28.536  56.412  1.00  0.00     0.191 C 
HETATM    2  N   UNL     1       6.273  28.308  55.465  1.00  0.00    -0.315 N 
HETATM    3  C   UNL     1       6.350  27.040  54.896  1.00  0.00     0.333 C 
HETATM    4  O   UNL     1       5.673  26.718  53.931  1.00  0.00    -0.246 OA
HETATM    5  N   UNL     1       7.306  26.310  55.572  1.00  0.00    -0.232 N 
HETATM    6  C   UNL     1       7.885  27.108  56.538  1.00  0.00     0.256 C 
HETATM    7  O   UNL     1       8.741  26.818  57.367  1.00  0.00    -0.270 OA
ENDROOT
BRANCH   1   8
HETATM    8  C   UNL     1       8.507  29.401  55.923  1.00  0.00     0.138 C 
BRANCH   8   9
HETATM    9  C   UNL     1       9.641  29.466  56.902  1.00  0.00     0.224 C 
HETATM   10  N   UNL     1       9.667  30.257  58.001  1.00  0.00    -0.327 N 
HETATM   11  H   UNL     1      10.590  30.201  58.419  1.00  0.00     0.169 HD
HETATM   12  O   UNL     1      10.655  28.787  56.687  1.00  0.00    -0.273 OA
BRANCH  10  13
HETATM   13  C   UNL     1       8.740  31.016  58.732  1.00  0.00     0.034 A 
HETATM   14  C   UNL     1       7.366  31.082  58.514  1.00  0.00     0.030 A 
HETATM   15  C   UNL     1       6.538  31.779  59.414  1.00  0.00     0.020 A 
HETATM   16  C   UNL     1       7.072  32.416  60.540  1.00  0.00     0.039 A 
HETATM   17  C   UNL     1       8.454  32.401  60.731  1.00  0.00     0.020 A 
HETATM   18  C   UNL     1       9.273  31.708  59.834  1.00  0.00     0.030 A 
BRANCH  16  19
HETATM   19  C   UNL     1       6.143  33.043  61.523  1.00  0.00     0.293 C 
HETATM   20  O   UNL     1       5.001  32.657  61.716  1.00  0.00    -0.259 OA
BRANCH  19  21
HETATM   21  O   UNL     1       6.784  34.028  62.203  1.00  0.00    -0.318 OA
BRANCH  21  22
HETATM   22  C   UNL     1       6.539  34.087  63.615  1.00  0.00     0.174 C 
HETATM   23  C   UNL     1       7.517  33.204  64.364  1.00  0.00     0.034 C 
ENDBRANCH  21  22
ENDBRANCH  19  21
ENDBRANCH  16  19
ENDBRANCH  10  13
ENDBRANCH   8   9
ENDBRANCH   1   8
BRANCH   2  24
HETATM   24  C   UNL     1       5.456  29.350  54.856  1.00  0.00     0.168 C 
BRANCH  24  25
HETATM   25  C   UNL     1       4.774  30.279  55.819  1.00  0.00    -0.023 A 
HETATM   26  C   UNL     1       4.922  31.659  55.745  1.00  0.00     0.125 A 
HETATM   27  N   UNL     1       4.356  32.532  56.608  1.00  0.00    -0.273 NA
HETATM   28  C   UNL     1       3.636  32.007  57.622  1.00  0.00     0.116 A 
HETATM   29  C   UNL     1       3.452  30.648  57.808  1.00  0.00     0.020 A 
HETATM   30  C   UNL     1       4.034  29.776  56.895  1.00  0.00     0.012 A 
ENDBRANCH  24  25
ENDBRANCH   2  24
BRANCH   5  31
HETATM   31  C   UNL     1       7.669  24.961  55.266  1.00  0.00     0.047 A 
HETATM   32  C   UNL     1       7.792  23.985  56.274  1.00  0.00     0.037 A 
HETATM   33  C   UNL     1       8.095  22.641  55.987  1.00  0.00    -0.060 A 
HETATM   34  C   UNL     1       8.234  21.636  57.092  1.00  0.00     0.048 C 
HETATM   35  C   UNL     1       8.308  22.262  54.663  1.00  0.00     0.007 A 
HETATM   36  C   UNL     1       8.208  23.208  53.647  1.00  0.00     0.003 A 
HETATM   37  C   UNL     1       7.894  24.539  53.947  1.00  0.00     0.030 A 
ENDBRANCH   5  31
TORSDOF 9
ENDMDL
MODEL 10
REMARK VINA RESULT:      -9.1      3.442      6.783
REMARK  9 active torsions:
REMARK  status: ('A' for Active; 'I' for Inactive)
REMARK    1  A    between atoms: C_2  and  O_3 
REMARK    2  A    between atoms: O_3  and  C_4 
REMARK    3  A    between atoms: C_4  and  C_5 
REMARK    4  A    between atoms: C_8  and  N_9 
REMARK       I    between atoms: N_9  and  C_10 
REMARK    5  A    between atoms: C_10  and  C_11 
REMARK    6  A    between atoms: C_11  and  C_12 
REMARK    7  A    between atoms: N_13  and  C_14 
REMARK    8  A    between atoms: C_14  and  C_15 
REMARK    9  A    between atoms: N_23  and  C_24 
ROOT
HETATM    1  C   UNL     1       6.539  28.342  55.335  1.00  0.00     0.191 C 
HETATM    2  N   UNL     1       7.041  28.225  56.691  1.00  0.00    -0.315 N 
HETATM    3  C   UNL     1       7.411  26.917  56.991  1.00  0.00     0.333 C 
HETATM    4  O   UNL     1       7.663  26.557  58.132  1.00  0.00    -0.246 OA
HETATM    5  N   UNL     1       7.387  26.174  55.829  1.00  0.00    -0.232 N 
HETATM    6  C   UNL     1       6.956  26.974  54.790  1.00  0.00     0.256 C 
HETATM    7  O   UNL     1       6.838  26.697  53.601  1.00  0.00    -0.270 OA
ENDROOT
BRANCH   1   8
HETATM    8  C   UNL     1       5.024  28.436  55.181  1.00  0.00     0.138 C 
BRANCH   8   9
HETATM    9  C   UNL     1       4.586  29.674  54.457  1.00  0.00     0.224 C 
HETATM   10  N   UNL     1       4.140  30.802  55.060  1.00  0.00    -0.327 N 
HETATM   11  H   UNL     1       3.796  31.437  54.346  1.00  0.00     0.169 HD
HETATM   12  O   UNL     1       4.584  29.672  53.219  1.00  0.00    -0.273 OA
BRANCH  10  13
HETATM   13  C   UNL     1       4.135  31.329  56.361  1.00  0.00     0.034 A 
HETATM   14  C   UNL     1       3.468  30.806  57.466  1.00  0.00     0.030 A 
HETATM   15  C   UNL     1       3.666  31.363  58.743  1.00  0.00     0.020 A 
HETATM   16  C   UNL     1       4.531  32.448  58.930  1.00  0.00     0.039 A 
HETATM   17  C   UNL     1       5.156  33.011  57.818  1.00  0.00     0.020 A 
HETATM   18  C   UNL     1       4.957  32.454  56.551  1.00  0.00     0.030 A 
BRANCH  16  19
HETATM   19  C   UNL     1       4.794  32.930  60.316  1.00  0.00     0.293 C 
HETATM   20  O   UNL     1       5.035  32.188  61.256  1.00  0.00    -0.259 OA
BRANCH  19  21
HETATM   21  O   UNL     1       4.803  34.287  60.341  1.00  0.00    -0.318 OA
BRANCH  21  22
HETATM   22  C   UNL     1       3.589  34.921  60.771  1.00  0.00     0.174 C 
HETATM   23  C   UNL     1       2.574  33.886  61.214  1.00  0.00     0.034 C 
ENDBRANCH  21  22
ENDBRANCH  19  21
ENDBRANCH  16  19
ENDBRANCH  10  13
ENDBRANCH   8   9
ENDBRANCH   1   8
BRANCH   2  24
HETATM   24  C   UNL     1       6.826  29.201  57.752  1.00  0.00     0.168 C 
BRANCH  24  25
HETATM   25  C   UNL     1       7.995  30.096  58.049  1.00  0.00    -0.023 A 
HETATM   26  C   UNL     1       9.213  29.962  57.393  1.00  0.00     0.125 A 
HETATM   27  N   UNL     1      10.302  30.722  57.649  1.00  0.00    -0.273 NA
HETATM   28  C   UNL     1      10.189  31.637  58.634  1.00  0.00     0.116 A 
HETATM   29  C   UNL     1       9.035  31.832  59.371  1.00  0.00     0.020 A 
HETATM   30  C   UNL     1       7.926  31.045  59.075  1.00  0.00     0.012 A 
ENDBRANCH  24  25
ENDBRANCH   2  24
BRANCH   5  31
HETATM   31  C   UNL     1       7.703  24.781  55.744  1.00  0.00     0.047 A 
HETATM   32  C   UNL     1       7.654  24.088  54.520  1.00  0.00     0.037 A 
HETATM   33  C   UNL     1       8.014  22.733  54.408  1.00  0.00    -0.060 A 
HETATM   34  C   UNL     1       7.930  22.026  53.086  1.00  0.00     0.048 C 
HETATM   35  C   UNL     1       8.408  22.039  55.550  1.00  0.00     0.007 A 
HETATM   36  C   UNL     1       8.452  22.694  56.777  1.00  0.00     0.003 A 
HETATM   37  C   UNL     1       8.102  24.047  56.871  1.00  0.00     0.030 A 
ENDBRANCH   5  31
TORSDOF 9
ENDMDL
