MODEL 1
REMARK VINA RESULT:      -8.8      0.000      0.000
REMARK  5 active torsions:
REMARK  status: ('A' for Active; 'I' for Inactive)
REMARK    1  A    between atoms: C_2  and  N_3 
REMARK    2  A    between atoms: C_2  and  C_19 
REMARK       I    between atoms: N_3  and  C_4 
REMARK    3  A    between atoms: C_4  and  C_5 
REMARK    4  A    between atoms: C_6  and  O_7 
REMARK    5  A    between atoms: O_7  and  C_8 
ROOT
HETATM    1  C   UNL     1       6.069  26.211  53.906  1.00  0.00     0.065 A 
HETATM    2  C   UNL     1       7.007  25.443  53.200  1.00  0.00     0.091 A 
HETATM    3  C   UNL     1       6.871  25.297  51.811  1.00  0.00     0.038 A 
HETATM    4  C   UNL     1       5.845  25.951  51.128  1.00  0.00     0.003 A 
HETATM    5  C   UNL     1       4.928  26.733  51.826  1.00  0.00     0.001 A 
HETATM    6  C   UNL     1       5.031  26.856  53.212  1.00  0.00     0.020 A 
ENDROOT
BRANCH   1   7
HETATM    7  C   UNL     1       6.128  26.319  55.389  1.00  0.00     0.255 C 
HETATM    8  N   UNL     1       7.182  27.057  55.889  1.00  0.00    -0.348 N 
HETATM    9  H   UNL     1       7.921  27.356  55.268  1.00  0.00     0.163 HD
HETATM   10  O   UNL     1       5.281  25.797  56.102  1.00  0.00    -0.268 OA
BRANCH   8  11
HETATM   11  C   UNL     1       7.386  27.215  57.321  1.00  0.00     0.115 C 
HETATM   12  C   UNL     1       7.935  25.924  57.936  1.00  0.00     0.037 C 
BRANCH  11  13
HETATM   13  C   UNL     1       8.270  28.414  57.577  1.00  0.00    -0.018 A 
HETATM   14  C   UNL     1       7.869  29.389  58.489  1.00  0.00     0.125 A 
HETATM   15  N   UNL     1       8.578  30.505  58.776  1.00  0.00    -0.273 NA
HETATM   16  C   UNL     1       9.745  30.668  58.120  1.00  0.00     0.116 A 
HETATM   17  C   UNL     1      10.232  29.770  57.187  1.00  0.00     0.020 A 
HETATM   18  C   UNL     1       9.482  28.630  56.911  1.00  0.00     0.012 A 
ENDBRANCH  11  13
ENDBRANCH   8  11
ENDBRANCH   1   7
BRANCH   2  19
HETATM   19  O   UNL     1       7.998  24.800  53.909  1.00  0.00    -0.310 OA
BRANCH  19  20
HETATM   20  C   UNL     1       7.925  23.438  54.078  1.00  0.00     0.076 A 
HETATM   21  C   UNL     1       8.090  22.528  53.031  1.00  0.00     0.037 A 
HETATM   22  C   UNL     1       8.035  21.157  53.292  1.00  0.00     0.003 A 
HETATM   23  C   UNL     1       7.841  20.699  54.596  1.00  0.00     0.000 A 
HETATM   24  C   UNL     1       7.708  21.610  55.644  1.00  0.00     0.003 A 
HETATM   25  C   UNL     1       7.758  22.980  55.386  1.00  0.00     0.037 A 
ENDBRANCH  19  20
ENDBRANCH   2  19
TORSDOF 5
ENDMDL
MODEL 2
REMARK VINA RESULT:      -8.8      1.696      2.752
REMARK  5 active torsions:
REMARK  status: ('A' for Active; 'I' for Inactive)
REMARK    1  A    between atoms: C_2  and  N_3 
REMARK    2  A    between atoms: C_2  and  C_19 
REMARK       I    between atoms: N_3  and  C_4 
REMARK    3  A    between atoms: C_4  and  C_5 
REMARK    4  A    between atoms: C_6  and  O_7 
REMARK    5  A    between atoms: O_7  and  C_8 
ROOT
HETATM    1  C   UNL     1       6.244  28.037  55.449  1.00  0.00     0.065 A 
HETATM    2  C   UNL     1       6.421  27.302  54.267  1.00  0.00     0.091 A 
HETATM    3  C   UNL     1       5.366  27.218  53.346  1.00  0.00     0.038 A 
HETATM    4  C   UNL     1       4.170  27.901  53.575  1.00  0.00     0.003 A 
HETATM    5  C   UNL     1       4.004  28.650  54.738  1.00  0.00     0.001 A 
HETATM    6  C   UNL     1       5.033  28.711  55.678  1.00  0.00     0.020 A 
ENDROOT
BRANCH   1   7
HETATM    7  C   UNL     1       7.307  28.079  56.491  1.00  0.00     0.255 C 
HETATM    8  N   UNL     1       8.229  29.098  56.358  1.00  0.00    -0.348 N 
HETATM    9  H   UNL     1       8.235  29.659  55.518  1.00  0.00     0.163 HD
HETATM   10  O   UNL     1       7.337  27.266  57.405  1.00  0.00    -0.268 OA
BRANCH   8  11
HETATM   11  C   UNL     1       9.344  29.237  57.281  1.00  0.00     0.115 C 
HETATM   12  C   UNL     1      10.650  29.487  56.522  1.00  0.00     0.037 C 
BRANCH  11  13
HETATM   13  C   UNL     1       9.033  30.317  58.292  1.00  0.00    -0.018 A 
HETATM   14  C   UNL     1       9.919  31.377  58.471  1.00  0.00     0.125 A 
HETATM   15  N   UNL     1       9.741  32.383  59.359  1.00  0.00    -0.273 NA
HETATM   16  C   UNL     1       8.626  32.332  60.117  1.00  0.00     0.116 A 
HETATM   17  C   UNL     1       7.686  31.320  60.031  1.00  0.00     0.020 A 
HETATM   18  C   UNL     1       7.895  30.298  59.108  1.00  0.00     0.012 A 
ENDBRANCH  11  13
ENDBRANCH   8  11
ENDBRANCH   1   7
BRANCH   2  19
HETATM   19  O   UNL     1       7.609  26.629  54.082  1.00  0.00    -0.310 OA
BRANCH  19  20
HETATM   20  C   UNL     1       7.590  25.262  53.948  1.00  0.00     0.076 A 
HETATM   21  C   UNL     1       7.916  24.605  52.758  1.00  0.00     0.037 A 
HETATM   22  C   UNL     1       7.906  23.209  52.714  1.00  0.00     0.003 A 
HETATM   23  C   UNL     1       7.596  22.474  53.859  1.00  0.00     0.000 A 
HETATM   24  C   UNL     1       7.303  23.133  55.053  1.00  0.00     0.003 A 
HETATM   25  C   UNL     1       7.307  24.526  55.099  1.00  0.00     0.037 A 
ENDBRANCH  19  20
ENDBRANCH   2  19
TORSDOF 5
ENDMDL
MODEL 3
REMARK VINA RESULT:      -8.7      1.491      2.419
REMARK  5 active torsions:
REMARK  status: ('A' for Active; 'I' for Inactive)
REMARK    1  A    between atoms: C_2  and  N_3 
REMARK    2  A    between atoms: C_2  and  C_19 
REMARK       I    between atoms: N_3  and  C_4 
REMARK    3  A    between atoms: C_4  and  C_5 
REMARK    4  A    between atoms: C_6  and  O_7 
REMARK    5  A    between atoms: O_7  and  C_8 
ROOT
HETATM    1  C   UNL     1       7.010  26.955  55.594  1.00  0.00     0.065 A 
HETATM    2  C   UNL     1       7.091  25.744  54.891  1.00  0.00     0.091 A 
HETATM    3  C   UNL     1       6.063  25.395  54.002  1.00  0.00     0.038 A 
HETATM    4  C   UNL     1       4.996  26.266  53.777  1.00  0.00     0.003 A 
HETATM    5  C   UNL     1       4.929  27.480  54.457  1.00  0.00     0.001 A 
HETATM    6  C   UNL     1       5.926  27.821  55.371  1.00  0.00     0.020 A 
ENDROOT
BRANCH   1   7
HETATM    7  C   UNL     1       8.035  27.321  56.610  1.00  0.00     0.255 C 
HETATM    8  N   UNL     1       8.593  28.575  56.465  1.00  0.00    -0.348 N 
HETATM    9  H   UNL     1       8.403  29.112  55.631  1.00  0.00     0.163 HD
HETATM   10  O   UNL     1       8.338  26.555  57.515  1.00  0.00    -0.268 OA
BRANCH   8  11
HETATM   11  C   UNL     1       9.634  29.050  57.363  1.00  0.00     0.115 C 
HETATM   12  C   UNL     1      10.887  29.448  56.578  1.00  0.00     0.037 C 
BRANCH  11  13
HETATM   13  C   UNL     1       9.092  30.170  58.220  1.00  0.00    -0.018 A 
HETATM   14  C   UNL     1       9.879  31.291  58.476  1.00  0.00     0.125 A 
HETATM   15  N   UNL     1       9.494  32.338  59.242  1.00  0.00    -0.273 NA
HETATM   16  C   UNL     1       8.264  32.269  59.790  1.00  0.00     0.116 A 
HETATM   17  C   UNL     1       7.404  31.198  59.611  1.00  0.00     0.020 A 
HETATM   18  C   UNL     1       7.827  30.135  58.818  1.00  0.00     0.012 A 
ENDBRANCH  11  13
ENDBRANCH   8  11
ENDBRANCH   1   7
BRANCH   2  19
HETATM   19  O   UNL     1       8.150  24.902  55.150  1.00  0.00    -0.310 OA
BRANCH  19  20
HETATM   20  C   UNL     1       8.049  23.574  54.810  1.00  0.00     0.076 A 
HETATM   21  C   UNL     1       8.278  23.097  53.516  1.00  0.00     0.037 A 
HETATM   22  C   UNL     1       8.189  21.727  53.260  1.00  0.00     0.003 A 
HETATM   23  C   UNL     1       7.898  20.837  54.295  1.00  0.00     0.000 A 
HETATM   24  C   UNL     1       7.702  21.314  55.591  1.00  0.00     0.003 A 
HETATM   25  C   UNL     1       7.785  22.682  55.850  1.00  0.00     0.037 A 
ENDBRANCH  19  20
ENDBRANCH   2  19
TORSDOF 5
ENDMDL
MODEL 4
REMARK VINA RESULT:      -8.5      1.971      4.606
REMARK  5 active torsions:
REMARK  status: ('A' for Active; 'I' for Inactive)
REMARK    1  A    between atoms: C_2  and  N_3 
REMARK    2  A    between atoms: C_2  and  C_19 
REMARK       I    between atoms: N_3  and  C_4 
REMARK    3  A    between atoms: C_4  and  C_5 
REMARK    4  A    between atoms: C_6  and  O_7 
REMARK    5  A    between atoms: O_7  and  C_8 
ROOT
HETATM    1  C   UNL     1       8.149  22.963  56.071  1.00  0.00     0.065 A 
HETATM    2  C   UNL     1       8.146  22.993  54.668  1.00  0.00     0.091 A 
HETATM    3  C   UNL     1       8.152  21.784  53.956  1.00  0.00     0.038 A 
HETATM    4  C   UNL     1       8.107  20.564  54.631  1.00  0.00     0.003 A 
HETATM    5  C   UNL     1       8.086  20.536  56.024  1.00  0.00     0.001 A 
HETATM    6  C   UNL     1       8.117  21.730  56.744  1.00  0.00     0.020 A 
ENDROOT
BRANCH   1   7
HETATM    7  C   UNL     1       8.230  24.221  56.863  1.00  0.00     0.255 C 
HETATM    8  N   UNL     1       7.335  25.209  56.503  1.00  0.00    -0.348 N 
HETATM    9  H   UNL     1       6.788  25.102  55.660  1.00  0.00     0.163 HD
HETATM   10  O   UNL     1       9.031  24.348  57.780  1.00  0.00    -0.268 OA
BRANCH   8  11
HETATM   11  C   UNL     1       7.327  26.504  57.165  1.00  0.00     0.115 C 
HETATM   12  C   UNL     1       8.700  27.173  57.063  1.00  0.00     0.037 C 
BRANCH  11  13
HETATM   13  C   UNL     1       6.212  27.354  56.602  1.00  0.00    -0.018 A 
HETATM   14  C   UNL     1       5.681  28.394  57.361  1.00  0.00     0.125 A 
HETATM   15  N   UNL     1       4.672  29.201  56.956  1.00  0.00    -0.273 NA
HETATM   16  C   UNL     1       4.156  28.959  55.733  1.00  0.00     0.116 A 
HETATM   17  C   UNL     1       4.599  27.945  54.901  1.00  0.00     0.020 A 
HETATM   18  C   UNL     1       5.638  27.131  55.344  1.00  0.00     0.012 A 
ENDBRANCH  11  13
ENDBRANCH   8  11
ENDBRANCH   1   7
BRANCH   2  19
HETATM   19  O   UNL     1       8.205  24.215  54.035  1.00  0.00    -0.310 OA
BRANCH  19  20
HETATM   20  C   UNL     1       7.158  24.607  53.236  1.00  0.00     0.076 A 
HETATM   21  C   UNL     1       5.827  24.272  53.501  1.00  0.00     0.037 A 
HETATM   22  C   UNL     1       4.816  24.739  52.659  1.00  0.00     0.003 A 
HETATM   23  C   UNL     1       5.131  25.556  51.572  1.00  0.00     0.000 A 
HETATM   24  C   UNL     1       6.458  25.915  51.329  1.00  0.00     0.003 A 
HETATM   25  C   UNL     1       7.470  25.446  52.166  1.00  0.00     0.037 A 
ENDBRANCH  19  20
ENDBRANCH   2  19
TORSDOF 5
ENDMDL
MODEL 5
REMARK VINA RESULT:      -8.5      2.566      6.782
REMARK  5 active torsions:
REMARK  status: ('A' for Active; 'I' for Inactive)
REMARK    1  A    between atoms: C_2  and  N_3 
REMARK    2  A    between atoms: C_2  and  C_19 
REMARK       I    between atoms: N_3  and  C_4 
REMARK    3  A    between atoms: C_4  and  C_5 
REMARK    4  A    between atoms: C_6  and  O_7 
REMARK    5  A    between atoms: O_7  and  C_8 
ROOT
HETATM    1  C   UNL     1       6.612  24.523  53.531  1.00  0.00     0.065 A 
HETATM    2  C   UNL     1       7.077  24.803  54.825  1.00  0.00     0.091 A 
HETATM    3  C   UNL     1       8.105  24.019  55.371  1.00  0.00     0.038 A 
HETATM    4  C   UNL     1       8.697  23.005  54.617  1.00  0.00     0.003 A 
HETATM    5  C   UNL     1       8.252  22.743  53.324  1.00  0.00     0.001 A 
HETATM    6  C   UNL     1       7.206  23.492  52.783  1.00  0.00     0.020 A 
ENDROOT
BRANCH   1   7
HETATM    7  C   UNL     1       5.466  25.274  52.950  1.00  0.00     0.255 C 
HETATM    8  N   UNL     1       5.778  26.502  52.401  1.00  0.00    -0.348 N 
HETATM    9  H   UNL     1       6.700  26.890  52.540  1.00  0.00     0.163 HD
HETATM   10  O   UNL     1       4.332  24.812  52.953  1.00  0.00    -0.268 OA
BRANCH   8  11
HETATM   11  C   UNL     1       4.751  27.361  51.832  1.00  0.00     0.115 C 
HETATM   12  C   UNL     1       4.807  28.759  52.455  1.00  0.00     0.037 C 
BRANCH  11  13
HETATM   13  C   UNL     1       4.883  27.380  50.327  1.00  0.00    -0.018 A 
HETATM   14  C   UNL     1       5.376  28.515  49.687  1.00  0.00     0.125 A 
HETATM   15  N   UNL     1       5.517  28.639  48.347  1.00  0.00    -0.273 NA
HETATM   16  C   UNL     1       5.143  27.580  47.598  1.00  0.00     0.116 A 
HETATM   17  C   UNL     1       4.630  26.409  48.128  1.00  0.00     0.020 A 
HETATM   18  C   UNL     1       4.497  26.310  49.510  1.00  0.00     0.012 A 
ENDBRANCH  11  13
ENDBRANCH   8  11
ENDBRANCH   1   7
BRANCH   2  19
HETATM   19  O   UNL     1       6.458  25.801  55.545  1.00  0.00    -0.310 OA
BRANCH  19  20
HETATM   20  C   UNL     1       7.184  26.907  55.918  1.00  0.00     0.076 A 
HETATM   21  C   UNL     1       7.699  27.827  55.002  1.00  0.00     0.037 A 
HETATM   22  C   UNL     1       8.398  28.945  55.464  1.00  0.00     0.003 A 
HETATM   23  C   UNL     1       8.559  29.153  56.835  1.00  0.00     0.000 A 
HETATM   24  C   UNL     1       8.015  28.249  57.747  1.00  0.00     0.003 A 
HETATM   25  C   UNL     1       7.321  27.129  57.289  1.00  0.00     0.037 A 
ENDBRANCH  19  20
ENDBRANCH   2  19
TORSDOF 5
ENDMDL
MODEL 6
REMARK VINA RESULT:      -8.3      1.290      1.631
REMARK  5 active torsions:
REMARK  status: ('A' for Active; 'I' for Inactive)
REMARK    1  A    between atoms: C_2  and  N_3 
REMARK    2  A    between atoms: C_2  and  C_19 
REMARK       I    between atoms: N_3  and  C_4 
REMARK    3  A    between atoms: C_4  and  C_5 
REMARK    4  A    between atoms: C_6  and  O_7 
REMARK    5  A    between atoms: O_7  and  C_8 
ROOT
HETATM    1  C   UNL     1       5.623  27.311  53.845  1.00  0.00     0.065 A 
HETATM    2  C   UNL     1       5.476  26.036  53.278  1.00  0.00     0.091 A 
HETATM    3  C   UNL     1       5.295  25.917  51.892  1.00  0.00     0.038 A 
HETATM    4  C   UNL     1       5.312  27.049  51.076  1.00  0.00     0.003 A 
HETATM    5  C   UNL     1       5.482  28.313  51.637  1.00  0.00     0.001 A 
HETATM    6  C   UNL     1       5.627  28.447  53.018  1.00  0.00     0.020 A 
ENDROOT
BRANCH   1   7
HETATM    7  C   UNL     1       5.731  27.485  55.320  1.00  0.00     0.255 C 
HETATM    8  N   UNL     1       6.996  27.318  55.847  1.00  0.00    -0.348 N 
HETATM    9  H   UNL     1       7.735  26.955  55.262  1.00  0.00     0.163 HD
HETATM   10  O   UNL     1       4.756  27.774  56.001  1.00  0.00    -0.268 OA
BRANCH   8  11
HETATM   11  C   UNL     1       7.242  27.421  57.277  1.00  0.00     0.115 C 
HETATM   12  C   UNL     1       7.734  26.085  57.840  1.00  0.00     0.037 C 
BRANCH  11  13
HETATM   13  C   UNL     1       8.194  28.563  57.546  1.00  0.00    -0.018 A 
HETATM   14  C   UNL     1       9.386  28.656  56.831  1.00  0.00     0.125 A 
HETATM   15  N   UNL     1      10.311  29.628  57.008  1.00  0.00    -0.273 NA
HETATM   16  C   UNL     1      10.044  30.556  57.949  1.00  0.00     0.116 A 
HETATM   17  C   UNL     1       8.897  30.552  58.725  1.00  0.00     0.020 A 
HETATM   18  C   UNL     1       7.963  29.540  58.521  1.00  0.00     0.012 A 
ENDBRANCH  11  13
ENDBRANCH   8  11
ENDBRANCH   1   7
BRANCH   2  19
HETATM   19  O   UNL     1       5.449  24.942  54.116  1.00  0.00    -0.310 OA
BRANCH  19  20
HETATM   20  C   UNL     1       6.519  24.080  54.126  1.00  0.00     0.076 A 
HETATM   21  C   UNL     1       7.160  23.643  52.964  1.00  0.00     0.037 A 
HETATM   22  C   UNL     1       8.264  22.793  53.062  1.00  0.00     0.003 A 
HETATM   23  C   UNL     1       8.737  22.401  54.315  1.00  0.00     0.000 A 
HETATM   24  C   UNL     1       8.114  22.864  55.473  1.00  0.00     0.003 A 
HETATM   25  C   UNL     1       7.009  23.709  55.379  1.00  0.00     0.037 A 
ENDBRANCH  19  20
ENDBRANCH   2  19
TORSDOF 5
ENDMDL
MODEL 7
REMARK VINA RESULT:      -8.2      2.905      8.345
REMARK  5 active torsions:
REMARK  status: ('A' for Active; 'I' for Inactive)
REMARK    1  A    between atoms: C_2  and  N_3 
REMARK    2  A    between atoms: C_2  and  C_19 
REMARK       I    between atoms: N_3  and  C_4 
REMARK    3  A    between atoms: C_4  and  C_5 
REMARK    4  A    between atoms: C_6  and  O_7 
REMARK    5  A    between atoms: O_7  and  C_8 
ROOT
HETATM    1  C   UNL     1       8.741  29.255  57.600  1.00  0.00     0.065 A 
HETATM    2  C   UNL     1       8.715  30.423  58.376  1.00  0.00     0.091 A 
HETATM    3  C   UNL     1       9.867  31.220  58.458  1.00  0.00     0.038 A 
HETATM    4  C   UNL     1      11.013  30.884  57.735  1.00  0.00     0.003 A 
HETATM    5  C   UNL     1      11.030  29.736  56.946  1.00  0.00     0.001 A 
HETATM    6  C   UNL     1       9.903  28.917  56.884  1.00  0.00     0.020 A 
ENDROOT
BRANCH   1   7
HETATM    7  C   UNL     1       7.569  28.338  57.556  1.00  0.00     0.255 C 
HETATM    8  N   UNL     1       6.526  28.745  56.748  1.00  0.00    -0.348 N 
HETATM    9  H   UNL     1       6.536  29.675  56.354  1.00  0.00     0.163 HD
HETATM   10  O   UNL     1       7.555  27.290  58.188  1.00  0.00    -0.268 OA
BRANCH   8  11
HETATM   11  C   UNL     1       5.302  27.968  56.639  1.00  0.00     0.115 C 
HETATM   12  C   UNL     1       4.084  28.887  56.518  1.00  0.00     0.037 C 
BRANCH  11  13
HETATM   13  C   UNL     1       5.423  26.991  55.492  1.00  0.00    -0.018 A 
HETATM   14  C   UNL     1       5.111  27.400  54.197  1.00  0.00     0.125 A 
HETATM   15  N   UNL     1       5.170  26.600  53.107  1.00  0.00    -0.273 NA
HETATM   16  C   UNL     1       5.553  25.323  53.311  1.00  0.00     0.116 A 
HETATM   17  C   UNL     1       5.873  24.809  54.556  1.00  0.00     0.020 A 
HETATM   18  C   UNL     1       5.804  25.655  55.660  1.00  0.00     0.012 A 
ENDBRANCH  11  13
ENDBRANCH   8  11
ENDBRANCH   1   7
BRANCH   2  19
HETATM   19  O   UNL     1       7.572  30.715  59.088  1.00  0.00    -0.310 OA
BRANCH  19  20
HETATM   20  C   UNL     1       7.687  31.264  60.342  1.00  0.00     0.076 A 
HETATM   21  C   UNL     1       8.487  30.715  61.348  1.00  0.00     0.037 A 
HETATM   22  C   UNL     1       8.577  31.354  62.586  1.00  0.00     0.003 A 
HETATM   23  C   UNL     1       7.890  32.548  62.810  1.00  0.00     0.000 A 
HETATM   24  C   UNL     1       7.117  33.110  61.794  1.00  0.00     0.003 A 
HETATM   25  C   UNL     1       7.022  32.472  60.557  1.00  0.00     0.037 A 
ENDBRANCH  19  20
ENDBRANCH   2  19
TORSDOF 5
ENDMDL
MODEL 8
REMARK VINA RESULT:      -8.1      2.480      5.331
REMARK  5 active torsions:
REMARK  status: ('A' for Active; 'I' for Inactive)
REMARK    1  A    between atoms: C_2  and  N_3 
REMARK    2  A    between atoms: C_2  and  C_19 
REMARK       I    between atoms: N_3  and  C_4 
REMARK    3  A    between atoms: C_4  and  C_5 
REMARK    4  A    between atoms: C_6  and  O_7 
REMARK    5  A    between atoms: O_7  and  C_8 
ROOT
HETATM    1  C   UNL     1       7.892  22.798  53.377  1.00  0.00     0.065 A 
HETATM    2  C   UNL     1       7.286  22.512  54.610  1.00  0.00     0.091 A 
HETATM    3  C   UNL     1       7.449  21.239  55.177  1.00  0.00     0.038 A 
HETATM    4  C   UNL     1       8.247  20.282  54.550  1.00  0.00     0.003 A 
HETATM    5  C   UNL     1       8.868  20.574  53.337  1.00  0.00     0.001 A 
HETATM    6  C   UNL     1       8.684  21.824  52.746  1.00  0.00     0.020 A 
ENDROOT
BRANCH   1   7
HETATM    7  C   UNL     1       7.673  24.106  52.701  1.00  0.00     0.255 C 
HETATM    8  N   UNL     1       6.356  24.509  52.599  1.00  0.00    -0.348 N 
HETATM    9  H   UNL     1       5.618  23.863  52.841  1.00  0.00     0.163 HD
HETATM   10  O   UNL     1       8.610  24.774  52.285  1.00  0.00    -0.268 OA
BRANCH   8  11
HETATM   11  C   UNL     1       5.991  25.747  51.929  1.00  0.00     0.115 C 
HETATM   12  C   UNL     1       4.776  25.535  51.021  1.00  0.00     0.037 C 
BRANCH  11  13
HETATM   13  C   UNL     1       5.778  26.835  52.957  1.00  0.00    -0.018 A 
HETATM   14  C   UNL     1       4.485  27.189  53.335  1.00  0.00     0.125 A 
HETATM   15  N   UNL     1       4.188  28.158  54.232  1.00  0.00    -0.273 NA
HETATM   16  C   UNL     1       5.230  28.818  54.779  1.00  0.00     0.116 A 
HETATM   17  C   UNL     1       6.552  28.556  54.466  1.00  0.00     0.020 A 
HETATM   18  C   UNL     1       6.828  27.553  53.540  1.00  0.00     0.012 A 
ENDBRANCH  11  13
ENDBRANCH   8  11
ENDBRANCH   1   7
BRANCH   2  19
HETATM   19  O   UNL     1       6.493  23.476  55.193  1.00  0.00    -0.310 OA
BRANCH  19  20
HETATM   20  C   UNL     1       7.053  24.352  56.092  1.00  0.00     0.076 A 
HETATM   21  C   UNL     1       8.384  24.270  56.510  1.00  0.00     0.037 A 
HETATM   22  C   UNL     1       8.888  25.220  57.401  1.00  0.00     0.003 A 
HETATM   23  C   UNL     1       8.073  26.259  57.852  1.00  0.00     0.000 A 
HETATM   24  C   UNL     1       6.754  26.356  57.408  1.00  0.00     0.003 A 
HETATM   25  C   UNL     1       6.247  25.406  56.522  1.00  0.00     0.037 A 
ENDBRANCH  19  20
ENDBRANCH   2  19
TORSDOF 5
ENDMDL
MODEL 9
REMARK VINA RESULT:      -8.0      2.178      5.867
REMARK  5 active torsions:
REMARK  status: ('A' for Active; 'I' for Inactive)
REMARK    1  A    between atoms: C_2  and  N_3 
REMARK    2  A    between atoms: C_2  and  C_19 
REMARK       I    between atoms: N_3  and  C_4 
REMARK    3  A    between atoms: C_4  and  C_5 
REMARK    4  A    between atoms: C_6  and  O_7 
REMARK    5  A    between atoms: O_7  and  C_8 
ROOT
HETATM    1  C   UNL     1       4.602  27.365  53.643  1.00  0.00     0.065 A 
HETATM    2  C   UNL     1       5.033  28.052  54.788  1.00  0.00     0.091 A 
HETATM    3  C   UNL     1       4.641  29.386  54.977  1.00  0.00     0.038 A 
HETATM    4  C   UNL     1       3.789  30.009  54.064  1.00  0.00     0.003 A 
HETATM    5  C   UNL     1       3.343  29.319  52.940  1.00  0.00     0.001 A 
HETATM    6  C   UNL     1       3.754  28.003  52.722  1.00  0.00     0.020 A 
ENDROOT
BRANCH   1   7
HETATM    7  C   UNL     1       5.066  25.978  53.363  1.00  0.00     0.255 C 
HETATM    8  N   UNL     1       6.434  25.796  53.374  1.00  0.00    -0.348 N 
HETATM    9  H   UNL     1       7.044  26.600  53.422  1.00  0.00     0.163 HD
HETATM   10  O   UNL     1       4.272  25.070  53.155  1.00  0.00    -0.268 OA
BRANCH   8  11
HETATM   11  C   UNL     1       7.029  24.502  53.079  1.00  0.00     0.115 C 
HETATM   12  C   UNL     1       8.158  24.644  52.054  1.00  0.00     0.037 C 
BRANCH  11  13
HETATM   13  C   UNL     1       7.478  23.846  54.365  1.00  0.00    -0.018 A 
HETATM   14  C   UNL     1       7.818  24.633  55.464  1.00  0.00     0.125 A 
HETATM   15  N   UNL     1       8.247  24.146  56.651  1.00  0.00    -0.273 NA
HETATM   16  C   UNL     1       8.351  22.805  56.754  1.00  0.00     0.116 A 
HETATM   17  C   UNL     1       8.051  21.931  55.723  1.00  0.00     0.020 A 
HETATM   18  C   UNL     1       7.612  22.461  54.513  1.00  0.00     0.012 A 
ENDBRANCH  11  13
ENDBRANCH   8  11
ENDBRANCH   1   7
BRANCH   2  19
HETATM   19  O   UNL     1       5.886  27.410  55.659  1.00  0.00    -0.310 OA
BRANCH  19  20
HETATM   20  C   UNL     1       6.924  28.114  56.221  1.00  0.00     0.076 A 
HETATM   21  C   UNL     1       7.023  28.368  57.591  1.00  0.00     0.037 A 
HETATM   22  C   UNL     1       8.129  29.061  58.088  1.00  0.00     0.003 A 
HETATM   23  C   UNL     1       9.141  29.477  57.222  1.00  0.00     0.000 A 
HETATM   24  C   UNL     1       9.055  29.194  55.859  1.00  0.00     0.003 A 
HETATM   25  C   UNL     1       7.950  28.506  55.360  1.00  0.00     0.037 A 
ENDBRANCH  19  20
ENDBRANCH   2  19
TORSDOF 5
ENDMDL
MODEL 10
REMARK VINA RESULT:      -7.9      2.605      7.806
REMARK  5 active torsions:
REMARK  status: ('A' for Active; 'I' for Inactive)
REMARK    1  A    between atoms: C_2  and  N_3 
REMARK    2  A    between atoms: C_2  and  C_19 
REMARK       I    between atoms: N_3  and  C_4 
REMARK    3  A    between atoms: C_4  and  C_5 
REMARK    4  A    between atoms: C_6  and  O_7 
REMARK    5  A    between atoms: O_7  and  C_8 
ROOT
HETATM    1  C   UNL     1       8.945  28.937  57.321  1.00  0.00     0.065 A 
HETATM    2  C   UNL     1       8.531  30.060  58.053  1.00  0.00     0.091 A 
HETATM    3  C   UNL     1       9.454  31.080  58.328  1.00  0.00     0.038 A 
HETATM    4  C   UNL     1      10.758  31.006  57.836  1.00  0.00     0.003 A 
HETATM    5  C   UNL     1      11.162  29.902  57.089  1.00  0.00     0.001 A 
HETATM    6  C   UNL     1      10.263  28.865  56.839  1.00  0.00     0.020 A 
ENDROOT
BRANCH   1   7
HETATM    7  C   UNL     1       8.021  27.795  57.082  1.00  0.00     0.255 C 
HETATM    8  N   UNL     1       7.255  27.879  55.936  1.00  0.00    -0.348 N 
HETATM    9  H   UNL     1       7.243  28.741  55.408  1.00  0.00     0.163 HD
HETATM   10  O   UNL     1       7.969  26.844  57.852  1.00  0.00    -0.268 OA
BRANCH   8  11
HETATM   11  C   UNL     1       6.282  26.854  55.597  1.00  0.00     0.115 C 
HETATM   12  C   UNL     1       5.006  27.483  55.030  1.00  0.00     0.037 C 
BRANCH  11  13
HETATM   13  C   UNL     1       6.911  25.848  54.661  1.00  0.00    -0.018 A 
HETATM   14  C   UNL     1       7.413  26.265  53.429  1.00  0.00     0.125 A 
HETATM   15  N   UNL     1       7.979  25.443  52.515  1.00  0.00    -0.273 NA
HETATM   16  C   UNL     1       8.046  24.134  52.836  1.00  0.00     0.116 A 
HETATM   17  C   UNL     1       7.568  23.611  54.025  1.00  0.00     0.020 A 
HETATM   18  C   UNL     1       6.991  24.480  54.947  1.00  0.00     0.012 A 
ENDBRANCH  11  13
ENDBRANCH   8  11
ENDBRANCH   1   7
BRANCH   2  19
HETATM   19  O   UNL     1       7.241  30.091  58.536  1.00  0.00    -0.310 OA
BRANCH  19  20
HETATM   20  C   UNL     1       6.376  31.055  58.076  1.00  0.00     0.076 A 
HETATM   21  C   UNL     1       5.752  30.990  56.828  1.00  0.00     0.037 A 
HETATM   22  C   UNL     1       4.859  31.995  56.449  1.00  0.00     0.003 A 
HETATM   23  C   UNL     1       4.574  33.045  57.322  1.00  0.00     0.000 A 
HETATM   24  C   UNL     1       5.174  33.090  58.581  1.00  0.00     0.003 A 
HETATM   25  C   UNL     1       6.070  32.091  58.960  1.00  0.00     0.037 A 
ENDBRANCH  19  20
ENDBRANCH   2  19
TORSDOF 5
ENDMDL
