MODEL 1
REMARK VINA RESULT:      -9.3      0.000      0.000
REMARK  4 active torsions:
REMARK  status: ('A' for Active; 'I' for Inactive)
REMARK    1  A    between atoms: C_7  and  C_8 
REMARK    2  A    between atoms: C_10  and  O_11 
REMARK    3  A    between atoms: C_17  and  C_18 
REMARK    4  A    between atoms: C_25  and  C_26 
REMARK       I    between atoms: C_26  and  N_27 
ROOT
HETATM    1  C   UNL     1       3.110  29.594  57.017  1.00  0.00     0.070 C 
HETATM    2  C   UNL     1       4.333  28.942  56.422  1.00  0.00     0.037 C 
HETATM    3  N   UNL     1       4.432  27.563  56.606  1.00  0.00    -0.192 N 
HETATM    4  C   UNL     1       5.339  26.805  55.961  1.00  0.00     0.726 A 
HETATM    5  N   UNL     1       6.330  27.417  55.254  1.00  0.00    -0.083 N 
HETATM    6  N   UNL     1       7.092  26.528  54.589  1.00  0.00    -0.135 NA
HETATM    7  C   UNL     1       6.548  25.363  54.993  1.00  0.00     0.199 A 
HETATM    8  N   UNL     1       5.457  25.509  55.837  1.00  0.00    -0.041 NA
HETATM    9  C   UNL     1       6.529  28.867  55.212  1.00  0.00     0.202 C 
HETATM   10  C   UNL     1       5.306  29.609  55.745  1.00  0.00     0.062 C 
HETATM   11  H   UNL     1       3.632  27.096  57.028  1.00  0.00     0.184 HD
ENDROOT
BRANCH   7  12
HETATM   12  C   UNL     1       7.046  24.052  54.584  1.00  0.00     0.017 A 
HETATM   13  C   UNL     1       7.239  23.040  55.539  1.00  0.00     0.052 A 
HETATM   14  C   UNL     1       7.721  21.784  55.160  1.00  0.00     0.069 A 
HETATM   15  C   UNL     1       8.007  21.539  53.815  1.00  0.00     0.037 A 
HETATM   16  C   UNL     1       7.820  22.531  52.855  1.00  0.00     0.004 A 
HETATM   17  C   UNL     1       7.341  23.784  53.239  1.00  0.00     0.015 A 
BRANCH  14  18
HETATM   18  O   UNL     1       7.951  20.725  55.994  1.00  0.00    -0.356 OA
HETATM   19  C   UNL     1       9.309  20.358  56.206  1.00  0.00     0.210 C 
ENDBRANCH  14  18
ENDBRANCH   7  12
BRANCH   9  20
HETATM   20  C   UNL     1       7.829  29.199  55.953  1.00  0.00    -0.028 A 
HETATM   21  C   UNL     1       7.788  29.482  57.331  1.00  0.00     0.012 A 
HETATM   22  C   UNL     1       8.957  29.800  58.026  1.00  0.00     0.043 A 
HETATM   23  C   UNL     1      10.169  29.842  57.349  1.00  0.00     0.116 A 
HETATM   24  F   UNL     1      11.289  30.144  58.017  1.00  0.00    -0.206 F 
HETATM   25  C   UNL     1      10.233  29.581  55.986  1.00  0.00     0.043 A 
HETATM   26  C   UNL     1       9.068  29.268  55.285  1.00  0.00     0.012 A 
ENDBRANCH   9  20
BRANCH  10  27
HETATM   27  C   UNL     1       5.121  31.033  55.355  1.00  0.00     0.249 C 
HETATM   28  N   UNL     1       4.635  31.284  54.113  1.00  0.00    -0.366 N 
HETATM   29  H   UNL     1       4.554  30.605  53.370  1.00  0.00     0.159 HD
HETATM   30  H   UNL     1       4.558  32.259  53.851  1.00  0.00     0.159 HD
HETATM   31  O   UNL     1       5.357  31.965  56.114  1.00  0.00    -0.268 OA
ENDBRANCH  10  27
TORSDOF 4
ENDMDL
MODEL 2
REMARK VINA RESULT:      -9.3      4.720      6.608
REMARK  4 active torsions:
REMARK  status: ('A' for Active; 'I' for Inactive)
REMARK    1  A    between atoms: C_7  and  C_8 
REMARK    2  A    between atoms: C_10  and  O_11 
REMARK    3  A    between atoms: C_17  and  C_18 
REMARK    4  A    between atoms: C_25  and  C_26 
REMARK       I    between atoms: C_26  and  N_27 
ROOT
HETATM    1  C   UNL     1       5.139  27.810  57.373  1.00  0.00     0.070 C 
HETATM    2  C   UNL     1       5.650  27.356  56.028  1.00  0.00     0.037 C 
HETATM    3  N   UNL     1       4.748  27.466  54.971  1.00  0.00    -0.192 N 
HETATM    4  C   UNL     1       5.111  27.309  53.684  1.00  0.00     0.726 A 
HETATM    5  N   UNL     1       6.356  26.831  53.401  1.00  0.00    -0.083 N 
HETATM    6  N   UNL     1       6.600  26.827  52.077  1.00  0.00    -0.135 NA
HETATM    7  C   UNL     1       5.419  27.257  51.591  1.00  0.00     0.199 A 
HETATM    8  N   UNL     1       4.484  27.568  52.566  1.00  0.00    -0.041 NA
HETATM    9  C   UNL     1       7.313  26.392  54.417  1.00  0.00     0.202 C 
HETATM   10  C   UNL     1       6.899  26.863  55.808  1.00  0.00     0.062 C 
HETATM   11  H   UNL     1       3.865  27.934  55.165  1.00  0.00     0.184 HD
ENDROOT
BRANCH   7  12
HETATM   12  C   UNL     1       5.132  27.396  50.165  1.00  0.00     0.017 A 
HETATM   13  C   UNL     1       4.515  26.346  49.464  1.00  0.00     0.052 A 
HETATM   14  C   UNL     1       4.242  26.465  48.098  1.00  0.00     0.069 A 
HETATM   15  C   UNL     1       4.584  27.644  47.432  1.00  0.00     0.037 A 
HETATM   16  C   UNL     1       5.196  28.695  48.113  1.00  0.00     0.004 A 
HETATM   17  C   UNL     1       5.469  28.570  49.475  1.00  0.00     0.015 A 
BRANCH  14  18
HETATM   18  O   UNL     1       3.651  25.516  47.310  1.00  0.00    -0.356 OA
HETATM   19  C   UNL     1       2.915  24.497  47.974  1.00  0.00     0.210 C 
ENDBRANCH  14  18
ENDBRANCH   7  12
BRANCH   9  20
HETATM   20  C   UNL     1       7.482  24.873  54.300  1.00  0.00    -0.028 A 
HETATM   21  C   UNL     1       8.002  24.324  53.113  1.00  0.00     0.012 A 
HETATM   22  C   UNL     1       8.154  22.942  52.976  1.00  0.00     0.043 A 
HETATM   23  C   UNL     1       7.781  22.104  54.019  1.00  0.00     0.116 A 
HETATM   24  F   UNL     1       7.930  20.780  53.888  1.00  0.00    -0.206 F 
HETATM   25  C   UNL     1       7.252  22.620  55.195  1.00  0.00     0.043 A 
HETATM   26  C   UNL     1       7.094  24.000  55.335  1.00  0.00     0.012 A 
ENDBRANCH   9  20
BRANCH  10  27
HETATM   27  C   UNL     1       7.942  26.934  56.868  1.00  0.00     0.249 C 
HETATM   28  N   UNL     1       8.724  28.043  56.903  1.00  0.00    -0.366 N 
HETATM   29  H   UNL     1       8.782  28.739  56.175  1.00  0.00     0.159 HD
HETATM   30  H   UNL     1       9.456  28.052  57.603  1.00  0.00     0.159 HD
HETATM   31  O   UNL     1       8.092  26.058  57.711  1.00  0.00    -0.268 OA
ENDBRANCH  10  27
TORSDOF 4
ENDMDL
MODEL 3
REMARK VINA RESULT:      -8.9      2.736      4.080
REMARK  4 active torsions:
REMARK  status: ('A' for Active; 'I' for Inactive)
REMARK    1  A    between atoms: C_7  and  C_8 
REMARK    2  A    between atoms: C_10  and  O_11 
REMARK    3  A    between atoms: C_17  and  C_18 
REMARK    4  A    between atoms: C_25  and  C_26 
REMARK       I    between atoms: C_26  and  N_27 
ROOT
HETATM    1  C   UNL     1       7.897  30.168  58.122  1.00  0.00     0.070 C 
HETATM    2  C   UNL     1       7.348  28.966  57.394  1.00  0.00     0.037 C 
HETATM    3  N   UNL     1       8.231  27.898  57.240  1.00  0.00    -0.192 N 
HETATM    4  C   UNL     1       7.837  26.684  56.810  1.00  0.00     0.726 A 
HETATM    5  N   UNL     1       6.576  26.533  56.317  1.00  0.00    -0.083 N 
HETATM    6  N   UNL     1       6.305  25.247  56.024  1.00  0.00    -0.135 NA
HETATM    7  C   UNL     1       7.486  24.661  56.302  1.00  0.00     0.199 A 
HETATM    8  N   UNL     1       8.447  25.528  56.796  1.00  0.00    -0.041 NA
HETATM    9  C   UNL     1       5.629  27.636  56.141  1.00  0.00     0.202 C 
HETATM   10  C   UNL     1       6.083  28.880  56.899  1.00  0.00     0.062 C 
HETATM   11  H   UNL     1       9.128  27.970  57.714  1.00  0.00     0.184 HD
ENDROOT
BRANCH   7  12
HETATM   12  C   UNL     1       7.747  23.235  56.111  1.00  0.00     0.017 A 
HETATM   13  C   UNL     1       7.494  22.632  54.868  1.00  0.00     0.052 A 
HETATM   14  C   UNL     1       7.734  21.268  54.676  1.00  0.00     0.069 A 
HETATM   15  C   UNL     1       8.235  20.506  55.733  1.00  0.00     0.037 A 
HETATM   16  C   UNL     1       8.492  21.090  56.972  1.00  0.00     0.004 A 
HETATM   17  C   UNL     1       8.248  22.450  57.160  1.00  0.00     0.015 A 
BRANCH  14  18
HETATM   18  O   UNL     1       7.525  20.570  53.518  1.00  0.00    -0.356 OA
HETATM   19  C   UNL     1       8.654  20.367  52.678  1.00  0.00     0.210 C 
ENDBRANCH  14  18
ENDBRANCH   7  12
BRANCH   9  20
HETATM   20  C   UNL     1       5.422  27.863  54.640  1.00  0.00    -0.028 A 
HETATM   21  C   UNL     1       4.116  28.005  54.135  1.00  0.00     0.012 A 
HETATM   22  C   UNL     1       3.900  28.201  52.769  1.00  0.00     0.043 A 
HETATM   23  C   UNL     1       4.984  28.249  51.903  1.00  0.00     0.116 A 
HETATM   24  F   UNL     1       4.776  28.439  50.594  1.00  0.00    -0.206 F 
HETATM   25  C   UNL     1       6.282  28.097  52.374  1.00  0.00     0.043 A 
HETATM   26  C   UNL     1       6.503  27.897  53.737  1.00  0.00     0.012 A 
ENDBRANCH   9  20
BRANCH  10  27
HETATM   27  C   UNL     1       5.064  29.912  57.234  1.00  0.00     0.249 C 
HETATM   28  N   UNL     1       4.245  29.665  58.288  1.00  0.00    -0.366 N 
HETATM   29  H   UNL     1       4.146  28.774  58.753  1.00  0.00     0.159 HD
HETATM   30  H   UNL     1       3.531  30.359  58.471  1.00  0.00     0.159 HD
HETATM   31  O   UNL     1       4.965  30.969  56.622  1.00  0.00    -0.268 OA
ENDBRANCH  10  27
TORSDOF 4
ENDMDL
MODEL 4
REMARK VINA RESULT:      -8.9      2.973      3.796
REMARK  4 active torsions:
REMARK  status: ('A' for Active; 'I' for Inactive)
REMARK    1  A    between atoms: C_7  and  C_8 
REMARK    2  A    between atoms: C_10  and  O_11 
REMARK    3  A    between atoms: C_17  and  C_18 
REMARK    4  A    between atoms: C_25  and  C_26 
REMARK       I    between atoms: C_26  and  N_27 
ROOT
HETATM    1  C   UNL     1       3.436  28.418  49.911  1.00  0.00     0.070 C 
HETATM    2  C   UNL     1       4.373  27.956  50.999  1.00  0.00     0.037 C 
HETATM    3  N   UNL     1       4.355  26.588  51.271  1.00  0.00    -0.192 N 
HETATM    4  C   UNL     1       5.274  25.989  52.052  1.00  0.00     0.726 A 
HETATM    5  N   UNL     1       6.140  26.760  52.767  1.00  0.00    -0.083 N 
HETATM    6  N   UNL     1       7.054  26.015  53.416  1.00  0.00    -0.135 NA
HETATM    7  C   UNL     1       6.645  24.769  53.105  1.00  0.00     0.199 A 
HETATM    8  N   UNL     1       5.550  24.727  52.257  1.00  0.00    -0.041 NA
HETATM    9  C   UNL     1       6.087  28.223  52.811  1.00  0.00     0.202 C 
HETATM   10  C   UNL     1       5.201  28.778  51.699  1.00  0.00     0.062 C 
HETATM   11  H   UNL     1       3.797  26.003  50.653  1.00  0.00     0.184 HD
ENDROOT
BRANCH   7  12
HETATM   12  C   UNL     1       7.290  23.557  53.605  1.00  0.00     0.017 A 
HETATM   13  C   UNL     1       7.486  23.378  54.984  1.00  0.00     0.052 A 
HETATM   14  C   UNL     1       8.108  22.226  55.472  1.00  0.00     0.069 A 
HETATM   15  C   UNL     1       8.532  21.244  54.574  1.00  0.00     0.037 A 
HETATM   16  C   UNL     1       8.344  21.405  53.203  1.00  0.00     0.004 A 
HETATM   17  C   UNL     1       7.725  22.559  52.720  1.00  0.00     0.015 A 
BRANCH  14  18
HETATM   18  O   UNL     1       8.357  21.941  56.787  1.00  0.00    -0.356 OA
HETATM   19  C   UNL     1       8.687  20.594  57.101  1.00  0.00     0.210 C 
ENDBRANCH  14  18
ENDBRANCH   7  12
BRANCH   9  20
HETATM   20  C   UNL     1       5.660  28.650  54.219  1.00  0.00    -0.028 A 
HETATM   21  C   UNL     1       4.296  28.630  54.565  1.00  0.00     0.012 A 
HETATM   22  C   UNL     1       3.879  29.027  55.837  1.00  0.00     0.043 A 
HETATM   23  C   UNL     1       4.821  29.451  56.767  1.00  0.00     0.116 A 
HETATM   24  F   UNL     1       4.421  29.828  57.987  1.00  0.00    -0.206 F 
HETATM   25  C   UNL     1       6.171  29.494  56.445  1.00  0.00     0.043 A 
HETATM   26  C   UNL     1       6.592  29.103  55.173  1.00  0.00     0.012 A 
ENDBRANCH   9  20
BRANCH  10  27
HETATM   27  C   UNL     1       5.392  30.195  51.287  1.00  0.00     0.249 C 
HETATM   28  N   UNL     1       4.706  31.144  51.973  1.00  0.00    -0.366 N 
HETATM   29  H   UNL     1       3.949  30.966  52.617  1.00  0.00     0.159 HD
HETATM   30  H   UNL     1       4.816  32.097  51.648  1.00  0.00     0.159 HD
HETATM   31  O   UNL     1       6.156  30.527  50.389  1.00  0.00    -0.268 OA
ENDBRANCH  10  27
TORSDOF 4
ENDMDL
MODEL 5
REMARK VINA RESULT:      -8.9      3.260      7.860
REMARK  4 active torsions:
REMARK  status: ('A' for Active; 'I' for Inactive)
REMARK    1  A    between atoms: C_7  and  C_8 
REMARK    2  A    between atoms: C_10  and  O_11 
REMARK    3  A    between atoms: C_17  and  C_18 
REMARK    4  A    between atoms: C_25  and  C_26 
REMARK       I    between atoms: C_26  and  N_27 
ROOT
HETATM    1  C   UNL     1       8.037  21.462  57.005  1.00  0.00     0.070 C 
HETATM    2  C   UNL     1       7.969  22.874  56.477  1.00  0.00     0.037 C 
HETATM    3  N   UNL     1       7.464  23.826  57.362  1.00  0.00    -0.192 N 
HETATM    4  C   UNL     1       7.536  25.150  57.127  1.00  0.00     0.726 A 
HETATM    5  N   UNL     1       7.934  25.583  55.898  1.00  0.00    -0.083 N 
HETATM    6  N   UNL     1       8.049  26.924  55.854  1.00  0.00    -0.135 NA
HETATM    7  C   UNL     1       7.635  27.263  57.091  1.00  0.00     0.199 A 
HETATM    8  N   UNL     1       7.319  26.182  57.899  1.00  0.00    -0.041 NA
HETATM    9  C   UNL     1       8.214  24.694  54.769  1.00  0.00     0.202 C 
HETATM   10  C   UNL     1       8.358  23.246  55.228  1.00  0.00     0.062 C 
HETATM   11  H   UNL     1       7.282  23.519  58.315  1.00  0.00     0.184 HD
ENDROOT
BRANCH   7  12
HETATM   12  C   UNL     1       7.528  28.643  57.559  1.00  0.00     0.017 A 
HETATM   13  C   UNL     1       8.667  29.321  58.025  1.00  0.00     0.052 A 
HETATM   14  C   UNL     1       8.575  30.639  58.481  1.00  0.00     0.069 A 
HETATM   15  C   UNL     1       7.336  31.284  58.465  1.00  0.00     0.037 A 
HETATM   16  C   UNL     1       6.197  30.625  58.005  1.00  0.00     0.004 A 
HETATM   17  C   UNL     1       6.294  29.309  57.554  1.00  0.00     0.015 A 
BRANCH  14  18
HETATM   18  O   UNL     1       9.607  31.399  58.958  1.00  0.00    -0.356 OA
HETATM   19  C   UNL     1       9.367  32.127  60.156  1.00  0.00     0.210 C 
ENDBRANCH  14  18
ENDBRANCH   7  12
BRANCH   9  20
HETATM   20  C   UNL     1       7.131  24.905  53.705  1.00  0.00    -0.028 A 
HETATM   21  C   UNL     1       7.498  25.354  52.423  1.00  0.00     0.012 A 
HETATM   22  C   UNL     1       6.529  25.565  51.440  1.00  0.00     0.043 A 
HETATM   23  C   UNL     1       5.191  25.336  51.734  1.00  0.00     0.116 A 
HETATM   24  F   UNL     1       4.264  25.537  50.790  1.00  0.00    -0.206 F 
HETATM   25  C   UNL     1       4.802  24.907  52.996  1.00  0.00     0.043 A 
HETATM   26  C   UNL     1       5.766  24.698  53.984  1.00  0.00     0.012 A 
ENDBRANCH   9  20
BRANCH  10  27
HETATM   27  C   UNL     1       9.092  22.297  54.346  1.00  0.00     0.249 C 
HETATM   28  N   UNL     1       8.396  21.718  53.334  1.00  0.00    -0.366 N 
HETATM   29  H   UNL     1       7.392  21.735  53.232  1.00  0.00     0.159 HD
HETATM   30  H   UNL     1       8.901  21.042  52.774  1.00  0.00     0.159 HD
HETATM   31  O   UNL     1      10.284  22.052  54.481  1.00  0.00    -0.268 OA
ENDBRANCH  10  27
TORSDOF 4
ENDMDL
MODEL 6
REMARK VINA RESULT:      -8.8      3.043      4.145
REMARK  4 active torsions:
REMARK  status: ('A' for Active; 'I' for Inactive)
REMARK    1  A    between atoms: C_7  and  C_8 
REMARK    2  A    between atoms: C_10  and  O_11 
REMARK    3  A    between atoms: C_17  and  C_18 
REMARK    4  A    between atoms: C_25  and  C_26 
REMARK       I    between atoms: C_26  and  N_27 
ROOT
HETATM    1  C   UNL     1       6.385  30.624  57.241  1.00  0.00     0.070 C 
HETATM    2  C   UNL     1       6.026  29.473  56.334  1.00  0.00     0.037 C 
HETATM    3  N   UNL     1       7.029  28.525  56.136  1.00  0.00    -0.192 N 
HETATM    4  C   UNL     1       6.804  27.341  55.536  1.00  0.00     0.726 A 
HETATM    5  N   UNL     1       5.608  27.127  54.920  1.00  0.00    -0.083 N 
HETATM    6  N   UNL     1       5.501  25.867  54.458  1.00  0.00    -0.135 NA
HETATM    7  C   UNL     1       6.715  25.371  54.769  1.00  0.00     0.199 A 
HETATM    8  N   UNL     1       7.536  26.261  55.443  1.00  0.00    -0.041 NA
HETATM    9  C   UNL     1       4.562  28.144  54.791  1.00  0.00     0.202 C 
HETATM   10  C   UNL     1       4.819  29.324  55.724  1.00  0.00     0.062 C 
HETATM   11  H   UNL     1       7.875  28.626  56.692  1.00  0.00     0.184 HD
ENDROOT
BRANCH   7  12
HETATM   12  C   UNL     1       7.143  24.013  54.439  1.00  0.00     0.017 A 
HETATM   13  C   UNL     1       7.261  23.044  55.449  1.00  0.00     0.052 A 
HETATM   14  C   UNL     1       7.676  21.745  55.145  1.00  0.00     0.069 A 
HETATM   15  C   UNL     1       7.970  21.412  53.821  1.00  0.00     0.037 A 
HETATM   16  C   UNL     1       7.858  22.362  52.807  1.00  0.00     0.004 A 
HETATM   17  C   UNL     1       7.446  23.658  53.116  1.00  0.00     0.015 A 
BRANCH  14  18
HETATM   18  O   UNL     1       7.831  20.720  56.038  1.00  0.00    -0.356 OA
HETATM   19  C   UNL     1       9.163  20.365  56.384  1.00  0.00     0.210 C 
ENDBRANCH  14  18
ENDBRANCH   7  12
BRANCH   9  20
HETATM   20  C   UNL     1       4.445  28.534  53.313  1.00  0.00    -0.028 A 
HETATM   21  C   UNL     1       3.171  28.638  52.723  1.00  0.00     0.012 A 
HETATM   22  C   UNL     1       3.038  28.979  51.376  1.00  0.00     0.043 A 
HETATM   23  C   UNL     1       4.173  29.212  50.611  1.00  0.00     0.116 A 
HETATM   24  F   UNL     1       4.044  29.541  49.320  1.00  0.00    -0.206 F 
HETATM   25  C   UNL     1       5.442  29.101  51.166  1.00  0.00     0.043 A 
HETATM   26  C   UNL     1       5.581  28.756  52.511  1.00  0.00     0.012 A 
ENDBRANCH   9  20
BRANCH  10  27
HETATM   27  C   UNL     1       3.672  30.200  56.084  1.00  0.00     0.249 C 
HETATM   28  N   UNL     1       2.990  29.903  57.220  1.00  0.00    -0.366 N 
HETATM   29  H   UNL     1       3.077  29.046  57.745  1.00  0.00     0.159 HD
HETATM   30  H   UNL     1       2.186  30.485  57.424  1.00  0.00     0.159 HD
HETATM   31  O   UNL     1       3.350  31.179  55.421  1.00  0.00    -0.268 OA
ENDBRANCH  10  27
TORSDOF 4
ENDMDL
MODEL 7
REMARK VINA RESULT:      -8.8      8.669     11.249
REMARK  4 active torsions:
REMARK  status: ('A' for Active; 'I' for Inactive)
REMARK    1  A    between atoms: C_7  and  C_8 
REMARK    2  A    between atoms: C_10  and  O_11 
REMARK    3  A    between atoms: C_17  and  C_18 
REMARK    4  A    between atoms: C_25  and  C_26 
REMARK       I    between atoms: C_26  and  N_27 
ROOT
HETATM    1  C   UNL     1       6.682  34.606  68.197  1.00  0.00     0.070 C 
HETATM    2  C   UNL     1       6.329  34.318  66.759  1.00  0.00     0.037 C 
HETATM    3  N   UNL     1       7.400  33.982  65.931  1.00  0.00    -0.192 N 
HETATM    4  C   UNL     1       7.234  33.493  64.688  1.00  0.00     0.726 A 
HETATM    5  N   UNL     1       5.990  33.505  64.132  1.00  0.00    -0.083 N 
HETATM    6  N   UNL     1       5.972  32.894  62.933  1.00  0.00    -0.135 NA
HETATM    7  C   UNL     1       7.274  32.582  62.778  1.00  0.00     0.199 A 
HETATM    8  N   UNL     1       8.073  32.936  63.854  1.00  0.00    -0.041 NA
HETATM    9  C   UNL     1       4.815  34.101  64.771  1.00  0.00     0.202 C 
HETATM   10  C   UNL     1       5.068  34.371  66.252  1.00  0.00     0.062 C 
HETATM   11  H   UNL     1       8.306  33.857  66.377  1.00  0.00     0.184 HD
ENDROOT
BRANCH   7  12
HETATM   12  C   UNL     1       7.813  31.924  61.590  1.00  0.00     0.017 A 
HETATM   13  C   UNL     1       7.033  31.816  60.427  1.00  0.00     0.052 A 
HETATM   14  C   UNL     1       7.536  31.183  59.287  1.00  0.00     0.069 A 
HETATM   15  C   UNL     1       8.831  30.658  59.311  1.00  0.00     0.037 A 
HETATM   16  C   UNL     1       9.618  30.758  60.456  1.00  0.00     0.004 A 
HETATM   17  C   UNL     1       9.109  31.388  61.592  1.00  0.00     0.015 A 
BRANCH  14  18
HETATM   18  O   UNL     1       6.875  31.014  58.102  1.00  0.00    -0.356 OA
HETATM   19  C   UNL     1       7.171  29.836  57.363  1.00  0.00     0.210 C 
ENDBRANCH  14  18
ENDBRANCH   7  12
BRANCH   9  20
HETATM   20  C   UNL     1       4.406  35.343  63.974  1.00  0.00    -0.028 A 
HETATM   21  C   UNL     1       3.297  35.279  63.110  1.00  0.00     0.012 A 
HETATM   22  C   UNL     1       2.911  36.394  62.363  1.00  0.00     0.043 A 
HETATM   23  C   UNL     1       3.635  37.575  62.469  1.00  0.00     0.116 A 
HETATM   24  F   UNL     1       3.263  38.643  61.754  1.00  0.00    -0.206 F 
HETATM   25  C   UNL     1       4.743  37.660  63.303  1.00  0.00     0.043 A 
HETATM   26  C   UNL     1       5.135  36.547  64.048  1.00  0.00     0.012 A 
ENDBRANCH   9  20
BRANCH  10  27
HETATM   27  C   UNL     1       3.893  34.517  67.153  1.00  0.00     0.249 C 
HETATM   28  N   UNL     1       2.980  35.472  66.840  1.00  0.00    -0.366 N 
HETATM   29  H   UNL     1       3.113  36.205  66.159  1.00  0.00     0.159 HD
HETATM   30  H   UNL     1       2.211  35.585  67.490  1.00  0.00     0.159 HD
HETATM   31  O   UNL     1       3.709  33.798  68.127  1.00  0.00    -0.268 OA
ENDBRANCH  10  27
TORSDOF 4
ENDMDL
MODEL 8
REMARK VINA RESULT:      -8.5      2.872      4.398
REMARK  4 active torsions:
REMARK  status: ('A' for Active; 'I' for Inactive)
REMARK    1  A    between atoms: C_7  and  C_8 
REMARK    2  A    between atoms: C_10  and  O_11 
REMARK    3  A    between atoms: C_17  and  C_18 
REMARK    4  A    between atoms: C_25  and  C_26 
REMARK       I    between atoms: C_26  and  N_27 
ROOT
HETATM    1  C   UNL     1       9.944  31.631  58.617  1.00  0.00     0.070 C 
HETATM    2  C   UNL     1       8.912  30.593  58.250  1.00  0.00     0.037 C 
HETATM    3  N   UNL     1       9.353  29.576  57.404  1.00  0.00    -0.192 N 
HETATM    4  C   UNL     1       8.628  28.469  57.157  1.00  0.00     0.726 A 
HETATM    5  N   UNL     1       7.334  28.416  57.583  1.00  0.00    -0.083 N 
HETATM    6  N   UNL     1       6.780  27.212  57.348  1.00  0.00    -0.135 NA
HETATM    7  C   UNL     1       7.783  26.583  56.704  1.00  0.00     0.199 A 
HETATM    8  N   UNL     1       8.939  27.338  56.580  1.00  0.00    -0.041 NA
HETATM    9  C   UNL     1       6.640  29.531  58.229  1.00  0.00     0.202 C 
HETATM   10  C   UNL     1       7.623  30.605  58.687  1.00  0.00     0.062 C 
HETATM   11  H   UNL     1      10.347  29.555  57.189  1.00  0.00     0.184 HD
ENDROOT
BRANCH   7  12
HETATM   12  C   UNL     1       7.681  25.222  56.181  1.00  0.00     0.017 A 
HETATM   13  C   UNL     1       8.152  24.137  56.939  1.00  0.00     0.052 A 
HETATM   14  C   UNL     1       8.066  22.832  56.445  1.00  0.00     0.069 A 
HETATM   15  C   UNL     1       7.501  22.612  55.187  1.00  0.00     0.037 A 
HETATM   16  C   UNL     1       7.028  23.678  54.423  1.00  0.00     0.004 A 
HETATM   17  C   UNL     1       7.119  24.979  54.919  1.00  0.00     0.015 A 
BRANCH  14  18
HETATM   18  O   UNL     1       8.491  21.700  57.084  1.00  0.00    -0.356 OA
HETATM   19  C   UNL     1       8.492  20.496  56.327  1.00  0.00     0.210 C 
ENDBRANCH  14  18
ENDBRANCH   7  12
BRANCH   9  20
HETATM   20  C   UNL     1       5.557  30.046  57.275  1.00  0.00    -0.028 A 
HETATM   21  C   UNL     1       4.259  30.285  57.764  1.00  0.00     0.012 A 
HETATM   22  C   UNL     1       3.252  30.743  56.912  1.00  0.00     0.043 A 
HETATM   23  C   UNL     1       3.533  30.958  55.569  1.00  0.00     0.116 A 
HETATM   24  F   UNL     1       2.567  31.398  54.754  1.00  0.00    -0.206 F 
HETATM   25  C   UNL     1       4.802  30.715  55.059  1.00  0.00     0.043 A 
HETATM   26  C   UNL     1       5.811  30.253  55.904  1.00  0.00     0.012 A 
ENDBRANCH   9  20
BRANCH  10  27
HETATM   27  C   UNL     1       7.189  31.551  59.749  1.00  0.00     0.249 C 
HETATM   28  N   UNL     1       7.301  31.140  61.038  1.00  0.00    -0.366 N 
HETATM   29  H   UNL     1       7.485  30.192  61.334  1.00  0.00     0.159 HD
HETATM   30  H   UNL     1       6.959  31.781  61.744  1.00  0.00     0.159 HD
HETATM   31  O   UNL     1       6.773  32.678  59.506  1.00  0.00    -0.268 OA
ENDBRANCH  10  27
TORSDOF 4
ENDMDL
MODEL 9
REMARK VINA RESULT:      -8.4      3.267      7.377
REMARK  4 active torsions:
REMARK  status: ('A' for Active; 'I' for Inactive)
REMARK    1  A    between atoms: C_7  and  C_8 
REMARK    2  A    between atoms: C_10  and  O_11 
REMARK    3  A    between atoms: C_17  and  C_18 
REMARK    4  A    between atoms: C_25  and  C_26 
REMARK       I    between atoms: C_26  and  N_27 
ROOT
HETATM    1  C   UNL     1       7.121  23.446  55.056  1.00  0.00     0.070 C 
HETATM    2  C   UNL     1       7.259  24.949  55.091  1.00  0.00     0.037 C 
HETATM    3  N   UNL     1       7.357  25.516  56.361  1.00  0.00    -0.192 N 
HETATM    4  C   UNL     1       7.698  26.804  56.558  1.00  0.00     0.726 A 
HETATM    5  N   UNL     1       7.758  27.645  55.488  1.00  0.00    -0.083 N 
HETATM    6  N   UNL     1       8.206  28.866  55.835  1.00  0.00    -0.135 NA
HETATM    7  C   UNL     1       8.342  28.725  57.169  1.00  0.00     0.199 A 
HETATM    8  N   UNL     1       8.040  27.456  57.639  1.00  0.00    -0.041 NA
HETATM    9  C   UNL     1       7.391  27.259  54.124  1.00  0.00     0.202 C 
HETATM   10  C   UNL     1       7.288  25.742  53.987  1.00  0.00     0.062 C 
HETATM   11  H   UNL     1       7.434  24.876  57.148  1.00  0.00     0.184 HD
ENDROOT
BRANCH   7  12
HETATM   12  C   UNL     1       8.773  29.802  58.057  1.00  0.00     0.017 A 
HETATM   13  C   UNL     1       8.019  30.120  59.199  1.00  0.00     0.052 A 
HETATM   14  C   UNL     1       8.419  31.153  60.052  1.00  0.00     0.069 A 
HETATM   15  C   UNL     1       9.583  31.868  59.762  1.00  0.00     0.037 A 
HETATM   16  C   UNL     1      10.342  31.565  58.634  1.00  0.00     0.004 A 
HETATM   17  C   UNL     1       9.937  30.535  57.784  1.00  0.00     0.015 A 
BRANCH  14  18
HETATM   18  O   UNL     1       7.770  31.556  61.187  1.00  0.00    -0.356 OA
HETATM   19  C   UNL     1       8.435  31.326  62.423  1.00  0.00     0.210 C 
ENDBRANCH  14  18
ENDBRANCH   7  12
BRANCH   9  20
HETATM   20  C   UNL     1       6.111  28.007  53.736  1.00  0.00    -0.028 A 
HETATM   21  C   UNL     1       6.018  28.609  52.467  1.00  0.00     0.012 A 
HETATM   22  C   UNL     1       4.867  29.306  52.094  1.00  0.00     0.043 A 
HETATM   23  C   UNL     1       3.808  29.411  52.987  1.00  0.00     0.116 A 
HETATM   24  F   UNL     1       2.705  30.078  52.628  1.00  0.00    -0.206 F 
HETATM   25  C   UNL     1       3.881  28.839  54.250  1.00  0.00     0.043 A 
HETATM   26  C   UNL     1       5.030  28.144  54.630  1.00  0.00     0.012 A 
ENDBRANCH   9  20
BRANCH  10  27
HETATM   27  C   UNL     1       7.397  25.149  52.627  1.00  0.00     0.249 C 
HETATM   28  N   UNL     1       6.248  24.981  51.923  1.00  0.00    -0.366 N 
HETATM   29  H   UNL     1       5.316  25.056  52.302  1.00  0.00     0.159 HD
HETATM   30  H   UNL     1       6.340  24.535  51.018  1.00  0.00     0.159 HD
HETATM   31  O   UNL     1       8.470  24.844  52.120  1.00  0.00    -0.268 OA
ENDBRANCH  10  27
TORSDOF 4
ENDMDL
MODEL 10
REMARK VINA RESULT:      -8.1      8.378     11.969
REMARK  4 active torsions:
REMARK  status: ('A' for Active; 'I' for Inactive)
REMARK    1  A    between atoms: C_7  and  C_8 
REMARK    2  A    between atoms: C_10  and  O_11 
REMARK    3  A    between atoms: C_17  and  C_18 
REMARK    4  A    between atoms: C_25  and  C_26 
REMARK       I    between atoms: C_26  and  N_27 
ROOT
HETATM    1  C   UNL     1       2.502  34.435  60.051  1.00  0.00     0.070 C 
HETATM    2  C   UNL     1       3.409  33.876  61.120  1.00  0.00     0.037 C 
HETATM    3  N   UNL     1       3.634  34.708  62.216  1.00  0.00    -0.192 N 
HETATM    4  C   UNL     1       4.237  34.281  63.342  1.00  0.00     0.726 A 
HETATM    5  N   UNL     1       4.830  33.055  63.352  1.00  0.00    -0.083 N 
HETATM    6  N   UNL     1       5.298  32.736  64.573  1.00  0.00    -0.135 NA
HETATM    7  C   UNL     1       5.014  33.858  65.264  1.00  0.00     0.199 A 
HETATM    8  N   UNL     1       4.351  34.826  64.525  1.00  0.00    -0.041 NA
HETATM    9  C   UNL     1       4.932  32.187  62.177  1.00  0.00     0.202 C 
HETATM   10  C   UNL     1       3.997  32.650  61.064  1.00  0.00     0.062 C 
HETATM   11  H   UNL     1       3.094  35.569  62.260  1.00  0.00     0.184 HD
ENDROOT
BRANCH   7  12
HETATM   12  C   UNL     1       5.362  34.053  66.670  1.00  0.00     0.017 A 
HETATM   13  C   UNL     1       6.694  34.302  67.039  1.00  0.00     0.052 A 
HETATM   14  C   UNL     1       7.039  34.484  68.382  1.00  0.00     0.069 A 
HETATM   15  C   UNL     1       6.043  34.421  69.359  1.00  0.00     0.037 A 
HETATM   16  C   UNL     1       4.717  34.175  69.009  1.00  0.00     0.004 A 
HETATM   17  C   UNL     1       4.378  33.991  67.668  1.00  0.00     0.015 A 
BRANCH  14  18
HETATM   18  O   UNL     1       8.295  34.729  68.864  1.00  0.00    -0.356 OA
HETATM   19  C   UNL     1       8.390  35.190  70.206  1.00  0.00     0.210 C 
ENDBRANCH  14  18
ENDBRANCH   7  12
BRANCH   9  20
HETATM   20  C   UNL     1       6.404  32.107  61.760  1.00  0.00    -0.028 A 
HETATM   21  C   UNL     1       6.830  32.770  60.593  1.00  0.00     0.012 A 
HETATM   22  C   UNL     1       8.163  32.703  60.184  1.00  0.00     0.043 A 
HETATM   23  C   UNL     1       9.075  31.971  60.933  1.00  0.00     0.116 A 
HETATM   24  F   UNL     1      10.354  31.909  60.541  1.00  0.00    -0.206 F 
HETATM   25  C   UNL     1       8.677  31.296  62.080  1.00  0.00     0.043 A 
HETATM   26  C   UNL     1       7.345  31.356  62.491  1.00  0.00     0.012 A 
ENDBRANCH   9  20
BRANCH  10  27
HETATM   27  C   UNL     1       3.608  31.668  60.016  1.00  0.00     0.249 C 
HETATM   28  N   UNL     1       2.773  30.661  60.380  1.00  0.00    -0.366 N 
HETATM   29  H   UNL     1       2.533  30.417  61.330  1.00  0.00     0.159 HD
HETATM   30  H   UNL     1       2.556  29.979  59.664  1.00  0.00     0.159 HD
HETATM   31  O   UNL     1       3.983  31.755  58.853  1.00  0.00    -0.268 OA
ENDBRANCH  10  27
TORSDOF 4
ENDMDL
