MODEL 1
REMARK VINA RESULT:     -10.1      0.000      0.000
REMARK  7 active torsions:
REMARK  status: ('A' for Active; 'I' for Inactive)
REMARK    1  A    between atoms: O_2  and  C_3 
REMARK    2  A    between atoms: C_6  and  C_7 
REMARK    3  A    between atoms: N_9  and  C_10 
REMARK    4  A    between atoms: C_10  and  C_11 
REMARK    5  A    between atoms: C_18  and  C_19 
REMARK       I    between atoms: C_19  and  N_20 
REMARK    6  A    between atoms: N_20  and  N_21 
REMARK       I    between atoms: N_21  and  C_22 
REMARK    7  A    between atoms: C_22  and  C_23 
ROOT
HETATM    1  C   UNL     1       6.978  25.892  55.211  1.00  0.00     0.104 A 
HETATM    2  N   UNL     1       7.355  26.792  56.141  1.00  0.00    -0.171 NA
HETATM    3  N   UNL     1       6.626  27.886  55.886  1.00  0.00    -0.275 N 
HETATM    4  C   UNL     1       5.861  27.770  54.765  1.00  0.00     0.132 A 
HETATM    5  C   UNL     1       6.028  26.473  54.305  1.00  0.00     0.082 A 
ENDROOT
BRANCH   5   6
HETATM    6  C   UNL     1       5.312  25.875  53.187  1.00  0.00     0.274 C 
HETATM    7  N   UNL     1       5.495  26.519  51.979  1.00  0.00    -0.263 N 
HETATM    8  H   UNL     1       6.038  27.372  51.876  1.00  0.00     0.190 HD
HETATM    9  O   UNL     1       4.593  24.883  53.285  1.00  0.00    -0.266 OA
BRANCH   7  10
HETATM   10  N   UNL     1       4.727  26.135  50.873  1.00  0.00    -0.262 N 
HETATM   11  C   UNL     1       4.640  27.009  49.810  1.00  0.00     0.286 C 
HETATM   12  O   UNL     1       5.322  28.034  49.761  1.00  0.00    -0.264 OA
HETATM   13  H   UNL     1       4.067  25.375  51.018  1.00  0.00     0.190 HD
BRANCH  11  14
HETATM   14  C   UNL     1       3.698  26.654  48.774  1.00  0.00     0.102 A 
HETATM   15  N   UNL     1       2.381  27.063  48.832  1.00  0.00    -0.361 N 
HETATM   16  H   UNL     1       2.001  27.627  49.583  1.00  0.00     0.165 HD
HETATM   17  C   UNL     1       1.691  26.601  47.745  1.00  0.00     0.088 A 
HETATM   18  C   UNL     1       2.566  25.885  46.963  1.00  0.00     0.019 A 
HETATM   19  C   UNL     1       3.828  25.917  47.606  1.00  0.00     0.036 A 
ENDBRANCH  11  14
ENDBRANCH   7  10
ENDBRANCH   5   6
BRANCH   1  20
HETATM   20  C   UNL     1       7.556  24.542  55.261  1.00  0.00    -0.004 A 
HETATM   21  C   UNL     1       7.765  23.927  56.509  1.00  0.00     0.016 A 
HETATM   22  C   UNL     1       8.326  22.648  56.606  1.00  0.00     0.037 A 
HETATM   23  C   UNL     1       8.688  21.957  55.453  1.00  0.00     0.068 A 
HETATM   24  C   UNL     1       8.497  22.565  54.210  1.00  0.00     0.037 A 
HETATM   25  C   UNL     1       7.945  23.848  54.113  1.00  0.00     0.016 A 
BRANCH  23  26
HETATM   26  O   UNL     1       9.235  20.705  55.405  1.00  0.00    -0.356 OA
HETATM   27  C   UNL     1       8.866  19.887  54.301  1.00  0.00     0.210 C 
ENDBRANCH  23  26
ENDBRANCH   1  20
BRANCH   3  28
HETATM   28  C   UNL     1       6.686  29.029  56.787  1.00  0.00     0.189 C 
BRANCH  28  29
HETATM   29  C   UNL     1       8.111  29.483  56.997  1.00  0.00    -0.038 A 
HETATM   30  C   UNL     1       9.049  29.375  55.958  1.00  0.00     0.009 A 
HETATM   31  C   UNL     1      10.373  29.772  56.151  1.00  0.00     0.001 A 
HETATM   32  C   UNL     1      10.773  30.285  57.381  1.00  0.00     0.000 A 
HETATM   33  C   UNL     1       9.850  30.403  58.420  1.00  0.00     0.001 A 
HETATM   34  C   UNL     1       8.525  30.005  58.231  1.00  0.00     0.009 A 
ENDBRANCH  28  29
ENDBRANCH   3  28
TORSDOF 7
ENDMDL
MODEL 2
REMARK VINA RESULT:     -10.0      2.463      6.427
REMARK  7 active torsions:
REMARK  status: ('A' for Active; 'I' for Inactive)
REMARK    1  A    between atoms: O_2  and  C_3 
REMARK    2  A    between atoms: C_6  and  C_7 
REMARK    3  A    between atoms: N_9  and  C_10 
REMARK    4  A    between atoms: C_10  and  C_11 
REMARK    5  A    between atoms: C_18  and  C_19 
REMARK       I    between atoms: C_19  and  N_20 
REMARK    6  A    between atoms: N_20  and  N_21 
REMARK       I    between atoms: N_21  and  C_22 
REMARK    7  A    between atoms: C_22  and  C_23 
ROOT
HETATM    1  C   UNL     1       8.077  26.888  56.746  1.00  0.00     0.104 A 
HETATM    2  N   UNL     1       8.434  25.802  57.459  1.00  0.00    -0.171 NA
HETATM    3  N   UNL     1       8.050  24.754  56.719  1.00  0.00    -0.275 N 
HETATM    4  C   UNL     1       7.366  25.113  55.597  1.00  0.00     0.132 A 
HETATM    5  C   UNL     1       7.385  26.498  55.549  1.00  0.00     0.082 A 
ENDROOT
BRANCH   5   6
HETATM    6  C   UNL     1       6.864  27.312  54.460  1.00  0.00     0.274 C 
HETATM    7  N   UNL     1       5.648  26.889  53.959  1.00  0.00    -0.263 N 
HETATM    8  H   UNL     1       5.173  26.050  54.279  1.00  0.00     0.190 HD
HETATM    9  O   UNL     1       7.442  28.296  54.002  1.00  0.00    -0.266 OA
BRANCH   7  10
HETATM   10  N   UNL     1       5.134  27.493  52.805  1.00  0.00    -0.262 N 
HETATM   11  C   UNL     1       5.159  26.771  51.630  1.00  0.00     0.286 C 
HETATM   12  O   UNL     1       5.491  25.584  51.611  1.00  0.00    -0.264 OA
HETATM   13  H   UNL     1       5.024  28.504  52.829  1.00  0.00     0.190 HD
BRANCH  11  14
HETATM   14  C   UNL     1       4.788  27.494  50.435  1.00  0.00     0.102 A 
HETATM   15  N   UNL     1       3.541  27.342  49.864  1.00  0.00    -0.361 N 
HETATM   16  H   UNL     1       2.823  26.732  50.237  1.00  0.00     0.165 HD
HETATM   17  C   UNL     1       3.431  28.123  48.747  1.00  0.00     0.088 A 
HETATM   18  C   UNL     1       4.618  28.798  48.586  1.00  0.00     0.019 A 
HETATM   19  C   UNL     1       5.473  28.406  49.647  1.00  0.00     0.036 A 
ENDBRANCH  11  14
ENDBRANCH   7  10
ENDBRANCH   5   6
BRANCH   1  20
HETATM   20  C   UNL     1       8.426  28.218  57.263  1.00  0.00    -0.004 A 
HETATM   21  C   UNL     1       9.657  28.796  56.906  1.00  0.00     0.016 A 
HETATM   22  C   UNL     1      10.039  30.054  57.385  1.00  0.00     0.037 A 
HETATM   23  C   UNL     1       9.191  30.762  58.234  1.00  0.00     0.068 A 
HETATM   24  C   UNL     1       7.972  30.191  58.605  1.00  0.00     0.037 A 
HETATM   25  C   UNL     1       7.594  28.928  58.133  1.00  0.00     0.016 A 
BRANCH  23  26
HETATM   26  O   UNL     1       9.435  31.998  58.765  1.00  0.00    -0.356 OA
HETATM   27  C   UNL     1       9.016  32.211  60.108  1.00  0.00     0.210 C 
ENDBRANCH  23  26
ENDBRANCH   1  20
BRANCH   3  28
HETATM   28  C   UNL     1       8.398  23.401  57.134  1.00  0.00     0.189 C 
BRANCH  28  29
HETATM   29  C   UNL     1       8.412  22.457  55.956  1.00  0.00    -0.038 A 
HETATM   30  C   UNL     1       7.680  21.259  55.999  1.00  0.00     0.009 A 
HETATM   31  C   UNL     1       7.706  20.371  54.923  1.00  0.00     0.001 A 
HETATM   32  C   UNL     1       8.457  20.671  53.791  1.00  0.00     0.000 A 
HETATM   33  C   UNL     1       9.184  21.861  53.732  1.00  0.00     0.001 A 
HETATM   34  C   UNL     1       9.162  22.750  54.808  1.00  0.00     0.009 A 
ENDBRANCH  28  29
ENDBRANCH   3  28
TORSDOF 7
ENDMDL
MODEL 3
REMARK VINA RESULT:      -9.4      2.334      7.995
REMARK  7 active torsions:
REMARK  status: ('A' for Active; 'I' for Inactive)
REMARK    1  A    between atoms: O_2  and  C_3 
REMARK    2  A    between atoms: C_6  and  C_7 
REMARK    3  A    between atoms: N_9  and  C_10 
REMARK    4  A    between atoms: C_10  and  C_11 
REMARK    5  A    between atoms: C_18  and  C_19 
REMARK       I    between atoms: C_19  and  N_20 
REMARK    6  A    between atoms: N_20  and  N_21 
REMARK       I    between atoms: N_21  and  C_22 
REMARK    7  A    between atoms: C_22  and  C_23 
ROOT
HETATM    1  C   UNL     1       6.079  26.380  53.381  1.00  0.00     0.104 A 
HETATM    2  N   UNL     1       5.084  26.399  52.472  1.00  0.00    -0.171 NA
HETATM    3  N   UNL     1       4.760  27.691  52.333  1.00  0.00    -0.275 N 
HETATM    4  C   UNL     1       5.435  28.508  53.189  1.00  0.00     0.132 A 
HETATM    5  C   UNL     1       6.335  27.705  53.873  1.00  0.00     0.082 A 
ENDROOT
BRANCH   5   6
HETATM    6  C   UNL     1       7.340  28.177  54.815  1.00  0.00     0.274 C 
HETATM    7  N   UNL     1       6.945  28.141  56.139  1.00  0.00    -0.263 N 
HETATM    8  H   UNL     1       6.015  27.862  56.439  1.00  0.00     0.190 HD
HETATM    9  O   UNL     1       8.452  28.584  54.486  1.00  0.00    -0.266 OA
BRANCH   7  10
HETATM   10  N   UNL     1       7.763  28.725  57.115  1.00  0.00    -0.262 N 
HETATM   11  C   UNL     1       7.216  29.704  57.917  1.00  0.00     0.286 C 
HETATM   12  O   UNL     1       6.012  29.967  57.882  1.00  0.00    -0.264 OA
HETATM   13  H   UNL     1       8.766  28.599  57.004  1.00  0.00     0.190 HD
BRANCH  11  14
HETATM   14  C   UNL     1       8.139  30.402  58.783  1.00  0.00     0.102 A 
HETATM   15  N   UNL     1       8.063  30.284  60.156  1.00  0.00    -0.361 N 
HETATM   16  H   UNL     1       7.374  29.714  60.633  1.00  0.00     0.165 HD
HETATM   17  C   UNL     1       9.035  31.037  60.752  1.00  0.00     0.088 A 
HETATM   18  C   UNL     1       9.761  31.652  59.760  1.00  0.00     0.019 A 
HETATM   19  C   UNL     1       9.201  31.253  58.520  1.00  0.00     0.036 A 
ENDBRANCH  11  14
ENDBRANCH   7  10
ENDBRANCH   5   6
BRANCH   1  20
HETATM   20  C   UNL     1       6.710  25.096  53.710  1.00  0.00    -0.004 A 
HETATM   21  C   UNL     1       7.396  24.387  52.708  1.00  0.00     0.016 A 
HETATM   22  C   UNL     1       8.000  23.152  52.970  1.00  0.00     0.037 A 
HETATM   23  C   UNL     1       7.932  22.602  54.248  1.00  0.00     0.068 A 
HETATM   24  C   UNL     1       7.242  23.291  55.247  1.00  0.00     0.037 A 
HETATM   25  C   UNL     1       6.628  24.522  54.982  1.00  0.00     0.016 A 
BRANCH  23  26
HETATM   26  O   UNL     1       8.483  21.413  54.641  1.00  0.00    -0.356 OA
HETATM   27  C   UNL     1       7.798  20.697  55.661  1.00  0.00     0.210 C 
ENDBRANCH  23  26
ENDBRANCH   1  20
BRANCH   3  28
HETATM   28  C   UNL     1       3.793  28.095  51.321  1.00  0.00     0.189 C 
BRANCH  28  29
HETATM   29  C   UNL     1       4.352  27.913  49.930  1.00  0.00    -0.038 A 
HETATM   30  C   UNL     1       4.052  26.756  49.192  1.00  0.00     0.009 A 
HETATM   31  C   UNL     1       4.582  26.570  47.915  1.00  0.00     0.001 A 
HETATM   32  C   UNL     1       5.413  27.539  47.359  1.00  0.00     0.000 A 
HETATM   33  C   UNL     1       5.714  28.696  48.078  1.00  0.00     0.001 A 
HETATM   34  C   UNL     1       5.186  28.883  49.357  1.00  0.00     0.009 A 
ENDBRANCH  28  29
ENDBRANCH   3  28
TORSDOF 7
ENDMDL
MODEL 4
REMARK VINA RESULT:      -9.3      3.318      8.974
REMARK  7 active torsions:
REMARK  status: ('A' for Active; 'I' for Inactive)
REMARK    1  A    between atoms: O_2  and  C_3 
REMARK    2  A    between atoms: C_6  and  C_7 
REMARK    3  A    between atoms: N_9  and  C_10 
REMARK    4  A    between atoms: C_10  and  C_11 
REMARK    5  A    between atoms: C_18  and  C_19 
REMARK       I    between atoms: C_19  and  N_20 
REMARK    6  A    between atoms: N_20  and  N_21 
REMARK       I    between atoms: N_21  and  C_22 
REMARK    7  A    between atoms: C_22  and  C_23 
ROOT
HETATM    1  C   UNL     1       7.049  26.055  55.525  1.00  0.00     0.104 A 
HETATM    2  N   UNL     1       7.645  24.848  55.460  1.00  0.00    -0.171 NA
HETATM    3  N   UNL     1       8.132  24.630  56.689  1.00  0.00    -0.275 N 
HETATM    4  C   UNL     1       7.963  25.690  57.527  1.00  0.00     0.132 A 
HETATM    5  C   UNL     1       7.230  26.635  56.827  1.00  0.00     0.082 A 
ENDROOT
BRANCH   5   6
HETATM    6  C   UNL     1       6.726  27.887  57.372  1.00  0.00     0.274 C 
HETATM    7  N   UNL     1       7.655  28.613  58.093  1.00  0.00    -0.263 N 
HETATM    8  H   UNL     1       8.598  28.286  58.280  1.00  0.00     0.190 HD
HETATM    9  O   UNL     1       5.573  28.285  57.224  1.00  0.00    -0.266 OA
BRANCH   7  10
HETATM   10  N   UNL     1       7.239  29.747  58.803  1.00  0.00    -0.262 N 
HETATM   11  C   UNL     1       8.177  30.418  59.558  1.00  0.00     0.286 C 
HETATM   12  O   UNL     1       9.373  30.125  59.509  1.00  0.00    -0.264 OA
HETATM   13  H   UNL     1       6.237  29.855  58.943  1.00  0.00     0.190 HD
BRANCH  11  14
HETATM   14  C   UNL     1       7.669  31.468  60.411  1.00  0.00     0.102 A 
HETATM   15  N   UNL     1       6.356  31.885  60.331  1.00  0.00    -0.361 N 
HETATM   16  H   UNL     1       5.681  31.491  59.686  1.00  0.00     0.165 HD
HETATM   17  C   UNL     1       6.119  32.886  61.232  1.00  0.00     0.088 A 
HETATM   18  C   UNL     1       7.288  33.124  61.916  1.00  0.00     0.019 A 
HETATM   19  C   UNL     1       8.264  32.233  61.403  1.00  0.00     0.036 A 
ENDBRANCH  11  14
ENDBRANCH   7  10
ENDBRANCH   5   6
BRANCH   1  20
HETATM   20  C   UNL     1       6.348  26.561  54.338  1.00  0.00    -0.004 A 
HETATM   21  C   UNL     1       6.701  27.816  53.812  1.00  0.00     0.016 A 
HETATM   22  C   UNL     1       6.052  28.346  52.690  1.00  0.00     0.037 A 
HETATM   23  C   UNL     1       5.034  27.625  52.070  1.00  0.00     0.068 A 
HETATM   24  C   UNL     1       4.667  26.384  52.593  1.00  0.00     0.037 A 
HETATM   25  C   UNL     1       5.310  25.858  53.721  1.00  0.00     0.016 A 
BRANCH  23  26
HETATM   26  O   UNL     1       4.327  28.020  50.969  1.00  0.00    -0.356 OA
HETATM   27  C   UNL     1       4.972  27.877  49.709  1.00  0.00     0.210 C 
ENDBRANCH  23  26
ENDBRANCH   1  20
BRANCH   3  28
HETATM   28  C   UNL     1       8.738  23.346  57.016  1.00  0.00     0.189 C 
BRANCH  28  29
HETATM   29  C   UNL     1       8.592  22.369  55.874  1.00  0.00    -0.038 A 
HETATM   30  C   UNL     1       9.270  22.586  54.664  1.00  0.00     0.009 A 
HETATM   31  C   UNL     1       9.123  21.700  53.597  1.00  0.00     0.001 A 
HETATM   32  C   UNL     1       8.302  20.583  53.729  1.00  0.00     0.000 A 
HETATM   33  C   UNL     1       7.628  20.351  54.928  1.00  0.00     0.001 A 
HETATM   34  C   UNL     1       7.771  21.238  55.996  1.00  0.00     0.009 A 
ENDBRANCH  28  29
ENDBRANCH   3  28
TORSDOF 7
ENDMDL
MODEL 5
REMARK VINA RESULT:      -9.2      2.897      6.560
REMARK  7 active torsions:
REMARK  status: ('A' for Active; 'I' for Inactive)
REMARK    1  A    between atoms: O_2  and  C_3 
REMARK    2  A    between atoms: C_6  and  C_7 
REMARK    3  A    between atoms: N_9  and  C_10 
REMARK    4  A    between atoms: C_10  and  C_11 
REMARK    5  A    between atoms: C_18  and  C_19 
REMARK       I    between atoms: C_19  and  N_20 
REMARK    6  A    between atoms: N_20  and  N_21 
REMARK       I    between atoms: N_21  and  C_22 
REMARK    7  A    between atoms: C_22  and  C_23 
ROOT
HETATM    1  C   UNL     1       7.561  27.156  56.763  1.00  0.00     0.104 A 
HETATM    2  N   UNL     1       8.100  26.039  57.289  1.00  0.00    -0.171 NA
HETATM    3  N   UNL     1       7.635  25.035  56.534  1.00  0.00    -0.275 N 
HETATM    4  C   UNL     1       6.734  25.443  55.598  1.00  0.00     0.132 A 
HETATM    5  C   UNL     1       6.674  26.825  55.682  1.00  0.00     0.082 A 
ENDROOT
BRANCH   5   6
HETATM    6  C   UNL     1       5.917  27.694  54.793  1.00  0.00     0.274 C 
HETATM    7  N   UNL     1       6.540  27.966  53.590  1.00  0.00    -0.263 N 
HETATM    8  H   UNL     1       7.473  27.637  53.356  1.00  0.00     0.190 HD
HETATM    9  O   UNL     1       4.816  28.166  55.068  1.00  0.00    -0.266 OA
BRANCH   7  10
HETATM   10  N   UNL     1       5.984  28.920  52.729  1.00  0.00    -0.262 N 
HETATM   11  C   UNL     1       5.413  28.478  51.554  1.00  0.00     0.286 C 
HETATM   12  O   UNL     1       5.264  27.276  51.323  1.00  0.00    -0.264 OA
HETATM   13  H   UNL     1       6.266  29.886  52.876  1.00  0.00     0.190 HD
BRANCH  11  14
HETATM   14  C   UNL     1       5.016  29.504  50.618  1.00  0.00     0.102 A 
HETATM   15  N   UNL     1       5.933  30.100  49.776  1.00  0.00    -0.361 N 
HETATM   16  H   UNL     1       6.918  29.861  49.760  1.00  0.00     0.165 HD
HETATM   17  C   UNL     1       5.320  31.036  48.991  1.00  0.00     0.088 A 
HETATM   18  C   UNL     1       3.985  31.052  49.317  1.00  0.00     0.019 A 
HETATM   19  C   UNL     1       3.790  30.088  50.338  1.00  0.00     0.036 A 
ENDBRANCH  11  14
ENDBRANCH   7  10
ENDBRANCH   5   6
BRANCH   1  20
HETATM   20  C   UNL     1       7.935  28.457  57.334  1.00  0.00    -0.004 A 
HETATM   21  C   UNL     1       9.288  28.836  57.358  1.00  0.00     0.016 A 
HETATM   22  C   UNL     1       9.694  30.059  57.905  1.00  0.00     0.037 A 
HETATM   23  C   UNL     1       8.748  30.930  58.440  1.00  0.00     0.068 A 
HETATM   24  C   UNL     1       7.402  30.557  58.433  1.00  0.00     0.037 A 
HETATM   25  C   UNL     1       6.998  29.329  57.894  1.00  0.00     0.016 A 
BRANCH  23  26
HETATM   26  O   UNL     1       9.005  32.153  58.995  1.00  0.00    -0.356 OA
HETATM   27  C   UNL     1       9.673  32.158  60.251  1.00  0.00     0.210 C 
ENDBRANCH  23  26
ENDBRANCH   1  20
BRANCH   3  28
HETATM   28  C   UNL     1       8.122  23.678  56.744  1.00  0.00     0.189 C 
BRANCH  28  29
HETATM   29  C   UNL     1       8.077  22.880  55.463  1.00  0.00    -0.038 A 
HETATM   30  C   UNL     1       8.226  23.521  54.223  1.00  0.00     0.009 A 
HETATM   31  C   UNL     1       8.164  22.793  53.034  1.00  0.00     0.001 A 
HETATM   32  C   UNL     1       7.960  21.416  53.071  1.00  0.00     0.000 A 
HETATM   33  C   UNL     1       7.817  20.766  54.297  1.00  0.00     0.001 A 
HETATM   34  C   UNL     1       7.876  21.492  55.487  1.00  0.00     0.009 A 
ENDBRANCH  28  29
ENDBRANCH   3  28
TORSDOF 7
ENDMDL
MODEL 6
REMARK VINA RESULT:      -9.2      3.722      9.391
REMARK  7 active torsions:
REMARK  status: ('A' for Active; 'I' for Inactive)
REMARK    1  A    between atoms: O_2  and  C_3 
REMARK    2  A    between atoms: C_6  and  C_7 
REMARK    3  A    between atoms: N_9  and  C_10 
REMARK    4  A    between atoms: C_10  and  C_11 
REMARK    5  A    between atoms: C_18  and  C_19 
REMARK       I    between atoms: C_19  and  N_20 
REMARK    6  A    between atoms: N_20  and  N_21 
REMARK       I    between atoms: N_21  and  C_22 
REMARK    7  A    between atoms: C_22  and  C_23 
ROOT
HETATM    1  C   UNL     1       5.711  28.082  54.472  1.00  0.00     0.104 A 
HETATM    2  N   UNL     1       5.342  27.158  53.563  1.00  0.00    -0.171 NA
HETATM    3  N   UNL     1       6.376  26.310  53.486  1.00  0.00    -0.275 N 
HETATM    4  C   UNL     1       7.445  26.699  54.235  1.00  0.00     0.132 A 
HETATM    5  C   UNL     1       7.051  27.835  54.925  1.00  0.00     0.082 A 
ENDROOT
BRANCH   5   6
HETATM    6  C   UNL     1       7.843  28.530  55.929  1.00  0.00     0.274 C 
HETATM    7  N   UNL     1       7.549  28.181  57.233  1.00  0.00    -0.263 N 
HETATM    8  H   UNL     1       6.808  27.534  57.486  1.00  0.00     0.190 HD
HETATM    9  O   UNL     1       8.703  29.368  55.666  1.00  0.00    -0.266 OA
BRANCH   7  10
HETATM   10  N   UNL     1       8.128  28.903  58.285  1.00  0.00    -0.262 N 
HETATM   11  C   UNL     1       7.509  30.068  58.688  1.00  0.00     0.286 C 
HETATM   12  O   UNL     1       6.408  30.400  58.242  1.00  0.00    -0.264 OA
HETATM   13  H   UNL     1       9.097  28.688  58.507  1.00  0.00     0.190 HD
BRANCH  11  14
HETATM   14  C   UNL     1       8.233  30.871  59.646  1.00  0.00     0.102 A 
HETATM   15  N   UNL     1       7.927  30.832  60.991  1.00  0.00    -0.361 N 
HETATM   16  H   UNL     1       7.195  30.251  61.383  1.00  0.00     0.165 HD
HETATM   17  C   UNL     1       8.744  31.677  61.689  1.00  0.00     0.088 A 
HETATM   18  C   UNL     1       9.599  32.273  60.794  1.00  0.00     0.019 A 
HETATM   19  C   UNL     1       9.282  31.768  59.508  1.00  0.00     0.036 A 
ENDBRANCH  11  14
ENDBRANCH   7  10
ENDBRANCH   5   6
BRANCH   1  20
HETATM   20  C   UNL     1       4.752  29.133  54.838  1.00  0.00    -0.004 A 
HETATM   21  C   UNL     1       4.177  29.125  56.121  1.00  0.00     0.016 A 
HETATM   22  C   UNL     1       3.248  30.097  56.510  1.00  0.00     0.037 A 
HETATM   23  C   UNL     1       2.876  31.101  55.619  1.00  0.00     0.068 A 
HETATM   24  C   UNL     1       3.431  31.110  54.337  1.00  0.00     0.037 A 
HETATM   25  C   UNL     1       4.353  30.131  53.945  1.00  0.00     0.016 A 
BRANCH  23  26
HETATM   26  O   UNL     1       1.990  32.112  55.871  1.00  0.00    -0.356 OA
HETATM   27  C   UNL     1       1.556  32.876  54.752  1.00  0.00     0.210 C 
ENDBRANCH  23  26
ENDBRANCH   1  20
BRANCH   3  28
HETATM   28  C   UNL     1       6.269  25.100  52.681  1.00  0.00     0.189 C 
BRANCH  28  29
HETATM   29  C   UNL     1       6.957  23.936  53.353  1.00  0.00    -0.038 A 
HETATM   30  C   UNL     1       7.769  23.066  52.607  1.00  0.00     0.009 A 
HETATM   31  C   UNL     1       8.390  21.976  53.216  1.00  0.00     0.001 A 
HETATM   32  C   UNL     1       8.213  21.745  54.577  1.00  0.00     0.000 A 
HETATM   33  C   UNL     1       7.415  22.605  55.332  1.00  0.00     0.001 A 
HETATM   34  C   UNL     1       6.790  23.695  54.724  1.00  0.00     0.009 A 
ENDBRANCH  28  29
ENDBRANCH   3  28
TORSDOF 7
ENDMDL
MODEL 7
REMARK VINA RESULT:      -9.1      2.298      8.438
REMARK  7 active torsions:
REMARK  status: ('A' for Active; 'I' for Inactive)
REMARK    1  A    between atoms: O_2  and  C_3 
REMARK    2  A    between atoms: C_6  and  C_7 
REMARK    3  A    between atoms: N_9  and  C_10 
REMARK    4  A    between atoms: C_10  and  C_11 
REMARK    5  A    between atoms: C_18  and  C_19 
REMARK       I    between atoms: C_19  and  N_20 
REMARK    6  A    between atoms: N_20  and  N_21 
REMARK       I    between atoms: N_21  and  C_22 
REMARK    7  A    between atoms: C_22  and  C_23 
ROOT
HETATM    1  C   UNL     1       5.786  27.829  52.262  1.00  0.00     0.104 A 
HETATM    2  N   UNL     1       5.617  28.675  51.227  1.00  0.00    -0.171 NA
HETATM    3  N   UNL     1       5.271  27.898  50.192  1.00  0.00    -0.275 N 
HETATM    4  C   UNL     1       5.305  26.568  50.486  1.00  0.00     0.132 A 
HETATM    5  C   UNL     1       5.603  26.470  51.836  1.00  0.00     0.082 A 
ENDROOT
BRANCH   5   6
HETATM    6  C   UNL     1       5.635  25.235  52.606  1.00  0.00     0.274 C 
HETATM    7  N   UNL     1       6.903  24.805  52.946  1.00  0.00    -0.263 N 
HETATM    8  H   UNL     1       7.753  25.273  52.644  1.00  0.00     0.190 HD
HETATM    9  O   UNL     1       4.633  24.604  52.934  1.00  0.00    -0.266 OA
BRANCH   7  10
HETATM   10  N   UNL     1       7.065  23.546  53.539  1.00  0.00    -0.262 N 
HETATM   11  C   UNL     1       7.570  23.495  54.822  1.00  0.00     0.286 C 
HETATM   12  O   UNL     1       7.744  24.518  55.487  1.00  0.00    -0.264 OA
HETATM   13  H   UNL     1       7.064  22.744  52.914  1.00  0.00     0.190 HD
BRANCH  11  14
HETATM   14  C   UNL     1       7.889  22.179  55.324  1.00  0.00     0.102 A 
HETATM   15  N   UNL     1       8.342  21.994  56.615  1.00  0.00    -0.361 N 
HETATM   16  H   UNL     1       8.475  22.750  57.276  1.00  0.00     0.165 HD
HETATM   17  C   UNL     1       8.577  20.669  56.851  1.00  0.00     0.088 A 
HETATM   18  C   UNL     1       8.269  19.974  55.706  1.00  0.00     0.019 A 
HETATM   19  C   UNL     1       7.835  20.920  54.744  1.00  0.00     0.036 A 
ENDBRANCH  11  14
ENDBRANCH   7  10
ENDBRANCH   5   6
BRANCH   1  20
HETATM   20  C   UNL     1       6.109  28.386  53.582  1.00  0.00    -0.004 A 
HETATM   21  C   UNL     1       7.390  28.180  54.123  1.00  0.00     0.016 A 
HETATM   22  C   UNL     1       7.739  28.679  55.383  1.00  0.00     0.037 A 
HETATM   23  C   UNL     1       6.808  29.399  56.129  1.00  0.00     0.068 A 
HETATM   24  C   UNL     1       5.529  29.597  55.607  1.00  0.00     0.037 A 
HETATM   25  C   UNL     1       5.177  29.089  54.350  1.00  0.00     0.016 A 
BRANCH  23  26
HETATM   26  O   UNL     1       7.019  29.947  57.364  1.00  0.00    -0.356 OA
HETATM   27  C   UNL     1       8.003  29.323  58.181  1.00  0.00     0.210 C 
ENDBRANCH  23  26
ENDBRANCH   1  20
BRANCH   3  28
HETATM   28  C   UNL     1       4.884  28.501  48.924  1.00  0.00     0.189 C 
BRANCH  28  29
HETATM   29  C   UNL     1       3.563  27.952  48.440  1.00  0.00    -0.038 A 
HETATM   30  C   UNL     1       3.527  26.988  47.420  1.00  0.00     0.009 A 
HETATM   31  C   UNL     1       2.310  26.492  46.952  1.00  0.00     0.001 A 
HETATM   32  C   UNL     1       1.115  26.949  47.502  1.00  0.00     0.000 A 
HETATM   33  C   UNL     1       1.136  27.901  48.521  1.00  0.00     0.001 A 
HETATM   34  C   UNL     1       2.353  28.401  48.989  1.00  0.00     0.009 A 
ENDBRANCH  28  29
ENDBRANCH   3  28
TORSDOF 7
ENDMDL
MODEL 8
REMARK VINA RESULT:      -9.1      2.134      7.836
REMARK  7 active torsions:
REMARK  status: ('A' for Active; 'I' for Inactive)
REMARK    1  A    between atoms: O_2  and  C_3 
REMARK    2  A    between atoms: C_6  and  C_7 
REMARK    3  A    between atoms: N_9  and  C_10 
REMARK    4  A    between atoms: C_10  and  C_11 
REMARK    5  A    between atoms: C_18  and  C_19 
REMARK       I    between atoms: C_19  and  N_20 
REMARK    6  A    between atoms: N_20  and  N_21 
REMARK       I    between atoms: N_21  and  C_22 
REMARK    7  A    between atoms: C_22  and  C_23 
ROOT
HETATM    1  C   UNL     1       5.827  26.003  52.125  1.00  0.00     0.104 A 
HETATM    2  N   UNL     1       5.301  25.582  50.958  1.00  0.00    -0.171 NA
HETATM    3  N   UNL     1       4.792  26.681  50.386  1.00  0.00    -0.275 N 
HETATM    4  C   UNL     1       4.877  27.785  51.177  1.00  0.00     0.132 A 
HETATM    5  C   UNL     1       5.575  27.405  52.313  1.00  0.00     0.082 A 
ENDROOT
BRANCH   5   6
HETATM    6  C   UNL     1       5.993  28.296  53.385  1.00  0.00     0.274 C 
HETATM    7  N   UNL     1       7.350  28.285  53.643  1.00  0.00    -0.263 N 
HETATM    8  H   UNL     1       8.006  27.671  53.167  1.00  0.00     0.190 HD
HETATM    9  O   UNL     1       5.222  29.005  54.029  1.00  0.00    -0.266 OA
BRANCH   7  10
HETATM   10  N   UNL     1       7.843  28.973  54.759  1.00  0.00    -0.262 N 
HETATM   11  C   UNL     1       8.047  28.260  55.922  1.00  0.00     0.286 C 
HETATM   12  O   UNL     1       7.938  27.032  55.952  1.00  0.00    -0.264 OA
HETATM   13  H   UNL     1       7.766  29.987  54.741  1.00  0.00     0.190 HD
BRANCH  11  14
HETATM   14  C   UNL     1       8.380  29.038  57.092  1.00  0.00     0.102 A 
HETATM   15  N   UNL     1       9.601  29.672  57.208  1.00  0.00    -0.361 N 
HETATM   16  H   UNL     1      10.323  29.634  56.497  1.00  0.00     0.165 HD
HETATM   17  C   UNL     1       9.681  30.338  58.399  1.00  0.00     0.088 A 
HETATM   18  C   UNL     1       8.497  30.144  59.071  1.00  0.00     0.019 A 
HETATM   19  C   UNL     1       7.676  29.329  58.251  1.00  0.00     0.036 A 
ENDBRANCH  11  14
ENDBRANCH   7  10
ENDBRANCH   5   6
BRANCH   1  20
HETATM   20  C   UNL     1       6.532  25.033  52.972  1.00  0.00    -0.004 A 
HETATM   21  C   UNL     1       7.612  24.308  52.439  1.00  0.00     0.016 A 
HETATM   22  C   UNL     1       8.305  23.362  53.203  1.00  0.00     0.037 A 
HETATM   23  C   UNL     1       7.930  23.124  54.523  1.00  0.00     0.068 A 
HETATM   24  C   UNL     1       6.849  23.829  55.058  1.00  0.00     0.037 A 
HETATM   25  C   UNL     1       6.150  24.768  54.290  1.00  0.00     0.016 A 
BRANCH  23  26
HETATM   26  O   UNL     1       8.523  22.239  55.380  1.00  0.00    -0.356 OA
HETATM   27  C   UNL     1       8.381  22.501  56.771  1.00  0.00     0.210 C 
ENDBRANCH  23  26
ENDBRANCH   1  20
BRANCH   3  28
HETATM   28  C   UNL     1       4.249  26.614  49.035  1.00  0.00     0.189 C 
BRANCH  28  29
HETATM   29  C   UNL     1       3.551  27.901  48.665  1.00  0.00    -0.038 A 
HETATM   30  C   UNL     1       4.241  28.907  47.969  1.00  0.00     0.009 A 
HETATM   31  C   UNL     1       3.610  30.108  47.643  1.00  0.00     0.001 A 
HETATM   32  C   UNL     1       2.281  30.315  48.003  1.00  0.00     0.000 A 
HETATM   33  C   UNL     1       1.581  29.322  48.688  1.00  0.00     0.001 A 
HETATM   34  C   UNL     1       2.212  28.121  49.018  1.00  0.00     0.009 A 
ENDBRANCH  28  29
ENDBRANCH   3  28
TORSDOF 7
ENDMDL
MODEL 9
REMARK VINA RESULT:      -8.8      2.807      8.639
REMARK  7 active torsions:
REMARK  status: ('A' for Active; 'I' for Inactive)
REMARK    1  A    between atoms: O_2  and  C_3 
REMARK    2  A    between atoms: C_6  and  C_7 
REMARK    3  A    between atoms: N_9  and  C_10 
REMARK    4  A    between atoms: C_10  and  C_11 
REMARK    5  A    between atoms: C_18  and  C_19 
REMARK       I    between atoms: C_19  and  N_20 
REMARK    6  A    between atoms: N_20  and  N_21 
REMARK       I    between atoms: N_21  and  C_22 
REMARK    7  A    between atoms: C_22  and  C_23 
ROOT
HETATM    1  C   UNL     1       6.278  26.160  52.662  1.00  0.00     0.104 A 
HETATM    2  N   UNL     1       6.335  24.887  52.224  1.00  0.00    -0.171 NA
HETATM    3  N   UNL     1       7.313  24.314  52.937  1.00  0.00    -0.275 N 
HETATM    4  C   UNL     1       7.965  25.188  53.752  1.00  0.00     0.132 A 
HETATM    5  C   UNL     1       7.305  26.402  53.637  1.00  0.00     0.082 A 
ENDROOT
BRANCH   5   6
HETATM    6  C   UNL     1       7.595  27.598  54.415  1.00  0.00     0.274 C 
HETATM    7  N   UNL     1       6.953  27.655  55.637  1.00  0.00    -0.263 N 
HETATM    8  H   UNL     1       6.290  26.954  55.955  1.00  0.00     0.190 HD
HETATM    9  O   UNL     1       8.340  28.500  54.036  1.00  0.00    -0.266 OA
BRANCH   7  10
HETATM   10  N   UNL     1       7.025  28.831  56.395  1.00  0.00    -0.262 N 
HETATM   11  C   UNL     1       7.606  28.762  57.644  1.00  0.00     0.286 C 
HETATM   12  O   UNL     1       8.174  27.740  58.035  1.00  0.00    -0.264 OA
HETATM   13  H   UNL     1       6.415  29.594  56.112  1.00  0.00     0.190 HD
BRANCH  11  14
HETATM   14  C   UNL     1       7.496  29.949  58.460  1.00  0.00     0.102 A 
HETATM   15  N   UNL     1       8.135  30.042  59.680  1.00  0.00    -0.361 N 
HETATM   16  H   UNL     1       8.708  29.304  60.071  1.00  0.00     0.165 HD
HETATM   17  C   UNL     1       7.877  31.253  60.260  1.00  0.00     0.088 A 
HETATM   18  C   UNL     1       7.065  31.965  59.409  1.00  0.00     0.019 A 
HETATM   19  C   UNL     1       6.825  31.149  58.276  1.00  0.00     0.036 A 
ENDBRANCH  11  14
ENDBRANCH   7  10
ENDBRANCH   5   6
BRANCH   1  20
HETATM   20  C   UNL     1       5.245  27.049  52.116  1.00  0.00    -0.004 A 
HETATM   21  C   UNL     1       4.375  27.718  52.996  1.00  0.00     0.016 A 
HETATM   22  C   UNL     1       3.365  28.563  52.522  1.00  0.00     0.037 A 
HETATM   23  C   UNL     1       3.208  28.758  51.152  1.00  0.00     0.068 A 
HETATM   24  C   UNL     1       4.057  28.088  50.269  1.00  0.00     0.037 A 
HETATM   25  C   UNL     1       5.061  27.234  50.744  1.00  0.00     0.016 A 
BRANCH  23  26
HETATM   26  O   UNL     1       2.273  29.560  50.557  1.00  0.00    -0.356 OA
HETATM   27  C   UNL     1       2.227  29.542  49.135  1.00  0.00     0.210 C 
ENDBRANCH  23  26
ENDBRANCH   1  20
BRANCH   3  28
HETATM   28  C   UNL     1       7.566  22.885  52.809  1.00  0.00     0.189 C 
BRANCH  28  29
HETATM   29  C   UNL     1       7.856  22.261  54.154  1.00  0.00    -0.038 A 
HETATM   30  C   UNL     1       7.959  20.866  54.281  1.00  0.00     0.009 A 
HETATM   31  C   UNL     1       8.205  20.282  55.524  1.00  0.00     0.001 A 
HETATM   32  C   UNL     1       8.357  21.083  56.652  1.00  0.00     0.000 A 
HETATM   33  C   UNL     1       8.263  22.471  56.539  1.00  0.00     0.001 A 
HETATM   34  C   UNL     1       8.015  23.058  55.297  1.00  0.00     0.009 A 
ENDBRANCH  28  29
ENDBRANCH   3  28
TORSDOF 7
ENDMDL
MODEL 10
REMARK VINA RESULT:      -8.8      3.511      6.961
REMARK  7 active torsions:
REMARK  status: ('A' for Active; 'I' for Inactive)
REMARK    1  A    between atoms: O_2  and  C_3 
REMARK    2  A    between atoms: C_6  and  C_7 
REMARK    3  A    between atoms: N_9  and  C_10 
REMARK    4  A    between atoms: C_10  and  C_11 
REMARK    5  A    between atoms: C_18  and  C_19 
REMARK       I    between atoms: C_19  and  N_20 
REMARK    6  A    between atoms: N_20  and  N_21 
REMARK       I    between atoms: N_21  and  C_22 
REMARK    7  A    between atoms: C_22  and  C_23 
ROOT
HETATM    1  C   UNL     1       6.874  28.894  56.403  1.00  0.00     0.104 A 
HETATM    2  N   UNL     1       7.218  30.140  56.782  1.00  0.00    -0.171 NA
HETATM    3  N   UNL     1       7.957  29.979  57.887  1.00  0.00    -0.275 N 
HETATM    4  C   UNL     1       8.027  28.684  58.301  1.00  0.00     0.132 A 
HETATM    5  C   UNL     1       7.363  27.928  57.347  1.00  0.00     0.082 A 
ENDROOT
BRANCH   5   6
HETATM    6  C   UNL     1       7.282  26.475  57.327  1.00  0.00     0.274 C 
HETATM    7  N   UNL     1       8.494  25.836  57.150  1.00  0.00    -0.263 N 
HETATM    8  H   UNL     1       9.368  26.328  56.991  1.00  0.00     0.190 HD
HETATM    9  O   UNL     1       6.234  25.844  57.449  1.00  0.00    -0.266 OA
BRANCH   7  10
HETATM   10  N   UNL     1       8.515  24.450  56.948  1.00  0.00    -0.262 N 
HETATM   11  C   UNL     1       8.318  23.979  55.667  1.00  0.00     0.286 C 
HETATM   12  O   UNL     1       8.264  24.743  54.701  1.00  0.00    -0.264 OA
HETATM   13  H   UNL     1       8.403  23.867  57.774  1.00  0.00     0.190 HD
BRANCH  11  14
HETATM   14  C   UNL     1       8.169  22.548  55.534  1.00  0.00     0.102 A 
HETATM   15  N   UNL     1       8.332  21.707  56.616  1.00  0.00    -0.361 N 
HETATM   16  H   UNL     1       8.559  22.030  57.549  1.00  0.00     0.165 HD
HETATM   17  C   UNL     1       8.144  20.406  56.239  1.00  0.00     0.088 A 
HETATM   18  C   UNL     1       7.849  20.393  54.897  1.00  0.00     0.019 A 
HETATM   19  C   UNL     1       7.863  21.739  54.450  1.00  0.00     0.036 A 
ENDBRANCH  11  14
ENDBRANCH   7  10
ENDBRANCH   5   6
BRANCH   1  20
HETATM   20  C   UNL     1       6.103  28.721  55.164  1.00  0.00    -0.004 A 
HETATM   21  C   UNL     1       4.751  29.106  55.134  1.00  0.00     0.016 A 
HETATM   22  C   UNL     1       3.973  28.947  53.981  1.00  0.00     0.037 A 
HETATM   23  C   UNL     1       4.537  28.398  52.832  1.00  0.00     0.068 A 
HETATM   24  C   UNL     1       5.875  27.999  52.856  1.00  0.00     0.037 A 
HETATM   25  C   UNL     1       6.651  28.150  54.012  1.00  0.00     0.016 A 
BRANCH  23  26
HETATM   26  O   UNL     1       3.896  28.195  51.641  1.00  0.00    -0.356 OA
HETATM   27  C   UNL     1       2.858  29.110  51.309  1.00  0.00     0.210 C 
ENDBRANCH  23  26
ENDBRANCH   1  20
BRANCH   3  28
HETATM   28  C   UNL     1       8.610  31.128  58.502  1.00  0.00     0.189 C 
BRANCH  28  29
HETATM   29  C   UNL     1       8.155  31.313  59.930  1.00  0.00    -0.038 A 
HETATM   30  C   UNL     1       8.927  30.811  60.990  1.00  0.00     0.009 A 
HETATM   31  C   UNL     1       8.502  30.958  62.311  1.00  0.00     0.001 A 
HETATM   32  C   UNL     1       7.305  31.614  62.588  1.00  0.00     0.000 A 
HETATM   33  C   UNL     1       6.532  32.123  61.545  1.00  0.00     0.001 A 
HETATM   34  C   UNL     1       6.954  31.975  60.222  1.00  0.00     0.009 A 
ENDBRANCH  28  29
ENDBRANCH   3  28
TORSDOF 7
ENDMDL
