MODEL 1
REMARK VINA RESULT:     -10.7      0.000      0.000
REMARK  6 active torsions:
REMARK  status: ('A' for Active; 'I' for Inactive)
REMARK    1  A    between atoms: C_4  and  C_5 
REMARK    2  A    between atoms: C_8  and  C_9 
REMARK    3  A    between atoms: C_9  and  C_10 
REMARK       I    between atoms: C_10  and  N_11 
REMARK    4  A    between atoms: N_11  and  C_12 
REMARK    5  A    between atoms: N_13  and  C_14 
REMARK    6  A    between atoms: C_25  and  C_26 
ROOT
HETATM    1  C   UNL     1       7.350  29.097  55.757  1.00  0.00     0.152 A 
HETATM    2  N   UNL     1       6.000  29.410  55.836  1.00  0.00    -0.044 N 
HETATM    3  N   UNL     1       5.230  28.607  55.040  1.00  0.00    -0.148 NA
HETATM    4  C   UNL     1       6.115  27.784  54.463  1.00  0.00     0.115 A 
HETATM    5  C   UNL     1       7.440  28.067  54.848  1.00  0.00     0.087 A 
ENDROOT
BRANCH   1   6
HETATM    6  N   UNL     1       8.312  29.744  56.521  1.00  0.00    -0.311 N 
HETATM    7  C   UNL     1       8.500  29.486  57.868  1.00  0.00     0.227 C 
HETATM    8  O   UNL     1       8.003  28.553  58.496  1.00  0.00    -0.273 OA
HETATM    9  H   UNL     1       8.872  30.462  56.061  1.00  0.00     0.170 HD
BRANCH   7  10
HETATM   10  C   UNL     1       9.364  30.530  58.562  1.00  0.00     0.141 C 
BRANCH  10  11
HETATM   11  C   UNL     1       8.710  31.089  59.805  1.00  0.00    -0.049 A 
HETATM   12  C   UNL     1       7.519  31.822  59.725  1.00  0.00     0.008 A 
HETATM   13  C   UNL     1       6.923  32.349  60.874  1.00  0.00     0.013 A 
HETATM   14  C   UNL     1       7.481  32.142  62.145  1.00  0.00    -0.026 A 
HETATM   15  C   UNL     1       8.655  31.374  62.220  1.00  0.00     0.013 A 
HETATM   16  C   UNL     1       9.262  30.852  61.068  1.00  0.00     0.008 A 
BRANCH  14  17
HETATM   17  C   UNL     1       6.854  32.719  63.351  1.00  0.00    -0.026 A 
HETATM   18  C   UNL     1       5.456  32.815  63.470  1.00  0.00     0.012 A 
HETATM   19  C   UNL     1       4.860  33.386  64.599  1.00  0.00     0.001 A 
HETATM   20  C   UNL     1       5.653  33.867  65.636  1.00  0.00     0.000 A 
HETATM   21  C   UNL     1       7.039  33.777  65.544  1.00  0.00     0.001 A 
HETATM   22  C   UNL     1       7.632  33.209  64.413  1.00  0.00     0.012 A 
ENDBRANCH  14  17
ENDBRANCH  10  11
ENDBRANCH   7  10
ENDBRANCH   1   6
BRANCH   2  23
HETATM   23  C   UNL     1       5.387  30.421  56.603  1.00  0.00     0.732 A 
HETATM   24  N   UNL     1       4.727  30.188  57.700  1.00  0.00    -0.067 NA
HETATM   25  C   UNL     1       4.229  31.313  58.297  1.00  0.00     0.065 A 
HETATM   26  C   UNL     1       4.372  32.565  57.857  1.00  0.00     0.036 A 
HETATM   27  C   UNL     1       3.446  31.277  59.567  1.00  0.00     0.061 C 
HETATM   28  C   UNL     1       3.738  33.577  58.731  1.00  0.00     0.047 C 
HETATM   29  C   UNL     1       5.117  32.807  56.623  1.00  0.00     0.268 A 
HETATM   30  C   UNL     1       3.441  32.753  59.990  1.00  0.00     0.011 C 
HETATM   31  O   UNL     1       5.291  33.927  56.165  1.00  0.00    -0.267 OA
HETATM   32  N   UNL     1       5.591  31.664  56.045  1.00  0.00    -0.152 N 
HETATM   33  H   UNL     1       6.126  31.734  55.185  1.00  0.00     0.188 HD
ENDBRANCH   2  23
BRANCH   4  34
HETATM   34  C   UNL     1       5.717  26.682  53.540  1.00  0.00     0.105 A 
HETATM   35  O   UNL     1       5.823  26.742  52.177  1.00  0.00    -0.320 OA
HETATM   36  C   UNL     1       5.390  25.553  51.685  1.00  0.00     0.142 A 
HETATM   37  C   UNL     1       5.002  24.721  52.707  1.00  0.00     0.027 A 
HETATM   38  C   UNL     1       5.210  25.449  53.905  1.00  0.00     0.041 A 
ENDBRANCH   4  34
TORSDOF 6
ENDMDL
MODEL 2
REMARK VINA RESULT:     -10.5      3.476      9.546
REMARK  6 active torsions:
REMARK  status: ('A' for Active; 'I' for Inactive)
REMARK    1  A    between atoms: C_4  and  C_5 
REMARK    2  A    between atoms: C_8  and  C_9 
REMARK    3  A    between atoms: C_9  and  C_10 
REMARK       I    between atoms: C_10  and  N_11 
REMARK    4  A    between atoms: N_11  and  C_12 
REMARK    5  A    between atoms: N_13  and  C_14 
REMARK    6  A    between atoms: C_25  and  C_26 
ROOT
HETATM    1  C   UNL     1       5.100  30.792  55.626  1.00  0.00     0.152 A 
HETATM    2  N   UNL     1       5.578  30.238  56.806  1.00  0.00    -0.044 N 
HETATM    3  N   UNL     1       5.242  30.980  57.906  1.00  0.00    -0.148 NA
HETATM    4  C   UNL     1       4.543  32.005  57.400  1.00  0.00     0.115 A 
HETATM    5  C   UNL     1       4.456  31.952  55.995  1.00  0.00     0.087 A 
ENDROOT
BRANCH   1   6
HETATM    6  N   UNL     1       5.272  30.182  54.392  1.00  0.00    -0.311 N 
HETATM    7  C   UNL     1       4.614  29.019  54.030  1.00  0.00     0.227 C 
HETATM    8  O   UNL     1       3.681  28.503  54.643  1.00  0.00    -0.273 OA
HETATM    9  H   UNL     1       5.944  30.603  53.750  1.00  0.00     0.170 HD
BRANCH   7  10
HETATM   10  C   UNL     1       5.198  28.362  52.787  1.00  0.00     0.141 C 
BRANCH  10  11
HETATM   11  C   UNL     1       5.750  26.983  53.067  1.00  0.00    -0.049 A 
HETATM   12  C   UNL     1       7.093  26.802  53.422  1.00  0.00     0.008 A 
HETATM   13  C   UNL     1       7.604  25.525  53.666  1.00  0.00     0.013 A 
HETATM   14  C   UNL     1       6.787  24.386  53.591  1.00  0.00    -0.026 A 
HETATM   15  C   UNL     1       5.433  24.580  53.271  1.00  0.00     0.013 A 
HETATM   16  C   UNL     1       4.919  25.859  53.014  1.00  0.00     0.008 A 
BRANCH  14  17
HETATM   17  C   UNL     1       7.341  23.039  53.833  1.00  0.00    -0.026 A 
HETATM   18  C   UNL     1       7.851  22.260  52.779  1.00  0.00     0.012 A 
HETATM   19  C   UNL     1       8.352  20.974  53.001  1.00  0.00     0.001 A 
HETATM   20  C   UNL     1       8.356  20.442  54.287  1.00  0.00     0.000 A 
HETATM   21  C   UNL     1       7.861  21.195  55.348  1.00  0.00     0.001 A 
HETATM   22  C   UNL     1       7.358  22.480  55.122  1.00  0.00     0.012 A 
ENDBRANCH  14  17
ENDBRANCH  10  11
ENDBRANCH   7  10
ENDBRANCH   1   6
BRANCH   2  23
HETATM   23  C   UNL     1       6.338  29.063  56.967  1.00  0.00     0.732 A 
HETATM   24  N   UNL     1       5.812  27.880  57.096  1.00  0.00    -0.067 NA
HETATM   25  C   UNL     1       6.730  26.875  57.221  1.00  0.00     0.065 A 
HETATM   26  C   UNL     1       8.058  27.018  57.215  1.00  0.00     0.036 A 
HETATM   27  C   UNL     1       6.346  25.441  57.374  1.00  0.00     0.061 C 
HETATM   28  C   UNL     1       8.792  25.740  57.348  1.00  0.00     0.047 C 
HETATM   29  C   UNL     1       8.631  28.354  57.070  1.00  0.00     0.268 A 
HETATM   30  C   UNL     1       7.674  24.717  57.112  1.00  0.00     0.011 C 
HETATM   31  O   UNL     1       9.836  28.558  57.051  1.00  0.00    -0.267 OA
HETATM   32  N   UNL     1       7.688  29.337  56.959  1.00  0.00    -0.152 N 
HETATM   33  H   UNL     1       7.994  30.299  56.849  1.00  0.00     0.188 HD
ENDBRANCH   2  23
BRANCH   4  34
HETATM   34  C   UNL     1       3.917  33.058  58.250  1.00  0.00     0.105 A 
HETATM   35  O   UNL     1       3.008  32.808  59.242  1.00  0.00    -0.320 OA
HETATM   36  C   UNL     1       2.685  34.001  59.805  1.00  0.00     0.142 A 
HETATM   37  C   UNL     1       3.369  35.023  59.194  1.00  0.00     0.027 A 
HETATM   38  C   UNL     1       4.163  34.417  58.188  1.00  0.00     0.041 A 
ENDBRANCH   4  34
TORSDOF 6
ENDMDL
MODEL 3
REMARK VINA RESULT:     -10.5      1.944      2.944
REMARK  6 active torsions:
REMARK  status: ('A' for Active; 'I' for Inactive)
REMARK    1  A    between atoms: C_4  and  C_5 
REMARK    2  A    between atoms: C_8  and  C_9 
REMARK    3  A    between atoms: C_9  and  C_10 
REMARK       I    between atoms: C_10  and  N_11 
REMARK    4  A    between atoms: N_11  and  C_12 
REMARK    5  A    between atoms: N_13  and  C_14 
REMARK    6  A    between atoms: C_25  and  C_26 
ROOT
HETATM    1  C   UNL     1       7.532  29.848  58.357  1.00  0.00     0.152 A 
HETATM    2  N   UNL     1       6.445  30.327  57.638  1.00  0.00    -0.044 N 
HETATM    3  N   UNL     1       6.235  29.628  56.481  1.00  0.00    -0.148 NA
HETATM    4  C   UNL     1       7.202  28.701  56.485  1.00  0.00     0.115 A 
HETATM    5  C   UNL     1       8.049  28.817  57.606  1.00  0.00     0.087 A 
ENDROOT
BRANCH   1   6
HETATM    6  N   UNL     1       7.898  30.368  59.591  1.00  0.00    -0.311 N 
HETATM    7  C   UNL     1       8.720  31.473  59.726  1.00  0.00     0.227 C 
HETATM    8  O   UNL     1       9.057  32.231  58.819  1.00  0.00    -0.273 OA
HETATM    9  H   UNL     1       7.567  29.878  60.423  1.00  0.00     0.170 HD
BRANCH   7  10
HETATM   10  C   UNL     1       9.247  31.656  61.143  1.00  0.00     0.141 C 
BRANCH  10  11
HETATM   11  C   UNL     1       8.254  32.353  62.044  1.00  0.00    -0.049 A 
HETATM   12  C   UNL     1       7.205  33.113  61.509  1.00  0.00     0.008 A 
HETATM   13  C   UNL     1       6.296  33.768  62.344  1.00  0.00     0.013 A 
HETATM   14  C   UNL     1       6.385  33.666  63.741  1.00  0.00    -0.026 A 
HETATM   15  C   UNL     1       7.417  32.871  64.268  1.00  0.00     0.013 A 
HETATM   16  C   UNL     1       8.337  32.222  63.434  1.00  0.00     0.008 A 
BRANCH  14  17
HETATM   17  C   UNL     1       5.430  34.376  64.615  1.00  0.00    -0.026 A 
HETATM   18  C   UNL     1       4.896  35.624  64.249  1.00  0.00     0.012 A 
HETATM   19  C   UNL     1       4.013  36.312  65.087  1.00  0.00     0.001 A 
HETATM   20  C   UNL     1       3.641  35.759  66.309  1.00  0.00     0.000 A 
HETATM   21  C   UNL     1       4.151  34.522  66.692  1.00  0.00     0.001 A 
HETATM   22  C   UNL     1       5.037  33.839  65.853  1.00  0.00     0.012 A 
ENDBRANCH  14  17
ENDBRANCH  10  11
ENDBRANCH   7  10
ENDBRANCH   1   6
BRANCH   2  23
HETATM   23  C   UNL     1       5.598  31.405  57.962  1.00  0.00     0.732 A 
HETATM   24  N   UNL     1       5.719  32.593  57.445  1.00  0.00    -0.067 NA
HETATM   25  C   UNL     1       4.780  33.486  57.882  1.00  0.00     0.065 A 
HETATM   26  C   UNL     1       3.799  33.233  58.751  1.00  0.00     0.036 A 
HETATM   27  C   UNL     1       4.729  34.902  57.415  1.00  0.00     0.061 C 
HETATM   28  C   UNL     1       2.924  34.397  59.014  1.00  0.00     0.047 C 
HETATM   29  C   UNL     1       3.679  31.892  59.322  1.00  0.00     0.268 A 
HETATM   30  C   UNL     1       3.342  35.355  57.892  1.00  0.00     0.011 C 
HETATM   31  O   UNL     1       2.802  31.589  60.118  1.00  0.00    -0.267 OA
HETATM   32  N   UNL     1       4.637  31.028  58.874  1.00  0.00    -0.152 N 
HETATM   33  H   UNL     1       4.630  30.070  59.213  1.00  0.00     0.188 HD
ENDBRANCH   2  23
BRANCH   4  34
HETATM   34  C   UNL     1       7.333  27.660  55.426  1.00  0.00     0.105 A 
HETATM   35  O   UNL     1       7.218  26.314  55.650  1.00  0.00    -0.320 OA
HETATM   36  C   UNL     1       7.372  25.691  54.453  1.00  0.00     0.142 A 
HETATM   37  C   UNL     1       7.587  26.610  53.455  1.00  0.00     0.027 A 
HETATM   38  C   UNL     1       7.565  27.881  54.082  1.00  0.00     0.041 A 
ENDBRANCH   4  34
TORSDOF 6
ENDMDL
MODEL 4
REMARK VINA RESULT:     -10.4      3.177      8.622
REMARK  6 active torsions:
REMARK  status: ('A' for Active; 'I' for Inactive)
REMARK    1  A    between atoms: C_4  and  C_5 
REMARK    2  A    between atoms: C_8  and  C_9 
REMARK    3  A    between atoms: C_9  and  C_10 
REMARK       I    between atoms: C_10  and  N_11 
REMARK    4  A    between atoms: N_11  and  C_12 
REMARK    5  A    between atoms: N_13  and  C_14 
REMARK    6  A    between atoms: C_25  and  C_26 
ROOT
HETATM    1  C   UNL     1       5.501  31.096  56.683  1.00  0.00     0.152 A 
HETATM    2  N   UNL     1       5.223  31.916  57.768  1.00  0.00    -0.044 N 
HETATM    3  N   UNL     1       4.140  32.724  57.549  1.00  0.00    -0.148 NA
HETATM    4  C   UNL     1       3.741  32.397  56.313  1.00  0.00     0.115 A 
HETATM    5  C   UNL     1       4.568  31.420  55.724  1.00  0.00     0.087 A 
ENDROOT
BRANCH   1   6
HETATM    6  N   UNL     1       6.520  30.154  56.701  1.00  0.00    -0.311 N 
HETATM    7  C   UNL     1       6.352  28.875  57.202  1.00  0.00     0.227 C 
HETATM    8  O   UNL     1       5.278  28.356  57.499  1.00  0.00    -0.273 OA
HETATM    9  H   UNL     1       7.436  30.447  56.359  1.00  0.00     0.170 HD
BRANCH   7  10
HETATM   10  C   UNL     1       7.668  28.142  57.423  1.00  0.00     0.141 C 
BRANCH  10  11
HETATM   11  C   UNL     1       7.692  26.784  56.759  1.00  0.00    -0.049 A 
HETATM   12  C   UNL     1       7.932  25.622  57.504  1.00  0.00     0.008 A 
HETATM   13  C   UNL     1       7.967  24.369  56.886  1.00  0.00     0.013 A 
HETATM   14  C   UNL     1       7.739  24.229  55.508  1.00  0.00    -0.026 A 
HETATM   15  C   UNL     1       7.463  25.395  54.775  1.00  0.00     0.013 A 
HETATM   16  C   UNL     1       7.437  26.655  55.390  1.00  0.00     0.008 A 
BRANCH  14  17
HETATM   17  C   UNL     1       7.797  22.902  54.862  1.00  0.00    -0.026 A 
HETATM   18  C   UNL     1       7.879  21.723  55.624  1.00  0.00     0.012 A 
HETATM   19  C   UNL     1       7.961  20.467  55.014  1.00  0.00     0.001 A 
HETATM   20  C   UNL     1       7.957  20.367  53.626  1.00  0.00     0.000 A 
HETATM   21  C   UNL     1       7.871  21.519  52.850  1.00  0.00     0.001 A 
HETATM   22  C   UNL     1       7.793  22.773  53.463  1.00  0.00     0.012 A 
ENDBRANCH  14  17
ENDBRANCH  10  11
ENDBRANCH   7  10
ENDBRANCH   1   6
BRANCH   2  23
HETATM   23  C   UNL     1       5.913  31.998  58.993  1.00  0.00     0.732 A 
HETATM   24  N   UNL     1       7.208  31.916  59.094  1.00  0.00    -0.067 NA
HETATM   25  C   UNL     1       7.673  32.040  60.374  1.00  0.00     0.065 A 
HETATM   26  C   UNL     1       6.929  32.233  61.466  1.00  0.00     0.036 A 
HETATM   27  C   UNL     1       9.124  31.984  60.717  1.00  0.00     0.061 C 
HETATM   28  C   UNL     1       7.722  32.350  62.710  1.00  0.00     0.047 C 
HETATM   29  C   UNL     1       5.477  32.321  61.333  1.00  0.00     0.268 A 
HETATM   30  C   UNL     1       9.142  32.519  62.156  1.00  0.00     0.011 C 
HETATM   31  O   UNL     1       4.736  32.501  62.288  1.00  0.00    -0.267 OA
HETATM   32  N   UNL     1       5.043  32.183  60.045  1.00  0.00    -0.152 N 
HETATM   33  H   UNL     1       4.047  32.235  59.855  1.00  0.00     0.188 HD
ENDBRANCH   2  23
BRANCH   4  34
HETATM   34  C   UNL     1       2.538  32.994  55.664  1.00  0.00     0.105 A 
HETATM   35  O   UNL     1       1.771  33.980  56.222  1.00  0.00    -0.320 OA
HETATM   36  C   UNL     1       0.788  34.280  55.334  1.00  0.00     0.142 A 
HETATM   37  C   UNL     1       0.904  33.502  54.207  1.00  0.00     0.027 A 
HETATM   38  C   UNL     1       2.031  32.670  54.419  1.00  0.00     0.041 A 
ENDBRANCH   4  34
TORSDOF 6
ENDMDL
MODEL 5
REMARK VINA RESULT:     -10.4      0.969      1.669
REMARK  6 active torsions:
REMARK  status: ('A' for Active; 'I' for Inactive)
REMARK    1  A    between atoms: C_4  and  C_5 
REMARK    2  A    between atoms: C_8  and  C_9 
REMARK    3  A    between atoms: C_9  and  C_10 
REMARK       I    between atoms: C_10  and  N_11 
REMARK    4  A    between atoms: N_11  and  C_12 
REMARK    5  A    between atoms: N_13  and  C_14 
REMARK    6  A    between atoms: C_25  and  C_26 
ROOT
HETATM    1  C   UNL     1       7.259  29.257  55.900  1.00  0.00     0.152 A 
HETATM    2  N   UNL     1       5.916  29.603  55.965  1.00  0.00    -0.044 N 
HETATM    3  N   UNL     1       5.129  28.789  55.197  1.00  0.00    -0.148 NA
HETATM    4  C   UNL     1       5.996  27.925  54.652  1.00  0.00     0.115 A 
HETATM    5  C   UNL     1       7.327  28.193  55.030  1.00  0.00     0.087 A 
ENDROOT
BRANCH   1   6
HETATM    6  N   UNL     1       8.234  29.909  56.642  1.00  0.00    -0.311 N 
HETATM    7  C   UNL     1       8.511  29.595  57.962  1.00  0.00     0.227 C 
HETATM    8  O   UNL     1       8.093  28.610  58.566  1.00  0.00    -0.273 OA
HETATM    9  H   UNL     1       8.734  30.676  56.189  1.00  0.00     0.170 HD
BRANCH   7  10
HETATM   10  C   UNL     1       9.367  30.643  58.659  1.00  0.00     0.141 C 
BRANCH  10  11
HETATM   11  C   UNL     1       8.702  31.202  59.897  1.00  0.00    -0.049 A 
HETATM   12  C   UNL     1       7.439  31.803  59.827  1.00  0.00     0.008 A 
HETATM   13  C   UNL     1       6.832  32.331  60.969  1.00  0.00     0.013 A 
HETATM   14  C   UNL     1       7.454  32.256  62.226  1.00  0.00    -0.026 A 
HETATM   15  C   UNL     1       8.704  31.618  62.293  1.00  0.00     0.013 A 
HETATM   16  C   UNL     1       9.320  31.096  61.147  1.00  0.00     0.008 A 
BRANCH  14  17
HETATM   17  C   UNL     1       6.813  32.833  63.424  1.00  0.00    -0.026 A 
HETATM   18  C   UNL     1       7.579  33.291  64.512  1.00  0.00     0.012 A 
HETATM   19  C   UNL     1       6.973  33.813  65.658  1.00  0.00     0.001 A 
HETATM   20  C   UNL     1       5.586  33.894  65.738  1.00  0.00     0.000 A 
HETATM   21  C   UNL     1       4.807  33.454  64.672  1.00  0.00     0.001 A 
HETATM   22  C   UNL     1       5.415  32.928  63.528  1.00  0.00     0.012 A 
ENDBRANCH  14  17
ENDBRANCH  10  11
ENDBRANCH   7  10
ENDBRANCH   1   6
BRANCH   2  23
HETATM   23  C   UNL     1       5.325  30.654  56.694  1.00  0.00     0.732 A 
HETATM   24  N   UNL     1       5.502  31.911  56.410  1.00  0.00    -0.067 NA
HETATM   25  C   UNL     1       4.820  32.766  57.232  1.00  0.00     0.065 A 
HETATM   26  C   UNL     1       4.025  32.416  58.245  1.00  0.00     0.036 A 
HETATM   27  C   UNL     1       4.875  34.250  57.082  1.00  0.00     0.061 C 
HETATM   28  C   UNL     1       3.407  33.567  58.939  1.00  0.00     0.047 C 
HETATM   29  C   UNL     1       3.839  30.999  58.549  1.00  0.00     0.268 A 
HETATM   30  C   UNL     1       3.706  34.712  57.963  1.00  0.00     0.011 C 
HETATM   31  O   UNL     1       3.122  30.607  59.458  1.00  0.00    -0.267 OA
HETATM   32  N   UNL     1       4.541  30.172  57.718  1.00  0.00    -0.152 N 
HETATM   33  H   UNL     1       4.469  29.168  57.851  1.00  0.00     0.188 HD
ENDBRANCH   2  23
BRANCH   4  34
HETATM   34  C   UNL     1       5.575  26.800  53.769  1.00  0.00     0.105 A 
HETATM   35  O   UNL     1       5.411  26.903  52.415  1.00  0.00    -0.320 OA
HETATM   36  C   UNL     1       5.048  25.677  51.957  1.00  0.00     0.142 A 
HETATM   37  C   UNL     1       4.973  24.778  52.993  1.00  0.00     0.027 A 
HETATM   38  C   UNL     1       5.310  25.502  54.164  1.00  0.00     0.041 A 
ENDBRANCH   4  34
TORSDOF 6
ENDMDL
MODEL 6
REMARK VINA RESULT:     -10.3      4.912      9.381
REMARK  6 active torsions:
REMARK  status: ('A' for Active; 'I' for Inactive)
REMARK    1  A    between atoms: C_4  and  C_5 
REMARK    2  A    between atoms: C_8  and  C_9 
REMARK    3  A    between atoms: C_9  and  C_10 
REMARK       I    between atoms: C_10  and  N_11 
REMARK    4  A    between atoms: N_11  and  C_12 
REMARK    5  A    between atoms: N_13  and  C_14 
REMARK    6  A    between atoms: C_25  and  C_26 
ROOT
HETATM    1  C   UNL     1       4.155  30.703  53.588  1.00  0.00     0.152 A 
HETATM    2  N   UNL     1       4.231  30.432  54.947  1.00  0.00    -0.044 N 
HETATM    3  N   UNL     1       3.400  31.229  55.687  1.00  0.00    -0.148 NA
HETATM    4  C   UNL     1       2.799  32.001  54.772  1.00  0.00     0.115 A 
HETATM    5  C   UNL     1       3.255  31.737  53.465  1.00  0.00     0.087 A 
ENDROOT
BRANCH   1   6
HETATM    6  N   UNL     1       4.867  29.979  52.642  1.00  0.00    -0.311 N 
HETATM    7  C   UNL     1       4.571  28.665  52.321  1.00  0.00     0.227 C 
HETATM    8  O   UNL     1       3.562  28.053  52.666  1.00  0.00    -0.273 OA
HETATM    9  H   UNL     1       5.663  30.441  52.199  1.00  0.00     0.170 HD
BRANCH   7  10
HETATM   10  C   UNL     1       5.671  27.983  51.520  1.00  0.00     0.141 C 
BRANCH  10  11
HETATM   11  C   UNL     1       6.113  26.677  52.139  1.00  0.00    -0.049 A 
HETATM   12  C   UNL     1       7.128  26.645  53.105  1.00  0.00     0.008 A 
HETATM   13  C   UNL     1       7.545  25.436  53.666  1.00  0.00     0.013 A 
HETATM   14  C   UNL     1       6.947  24.219  53.304  1.00  0.00    -0.026 A 
HETATM   15  C   UNL     1       5.904  24.264  52.363  1.00  0.00     0.013 A 
HETATM   16  C   UNL     1       5.490  25.475  51.789  1.00  0.00     0.008 A 
BRANCH  14  17
HETATM   17  C   UNL     1       7.407  22.944  53.890  1.00  0.00    -0.026 A 
HETATM   18  C   UNL     1       7.804  21.869  53.075  1.00  0.00     0.012 A 
HETATM   19  C   UNL     1       8.214  20.651  53.626  1.00  0.00     0.001 A 
HETATM   20  C   UNL     1       8.242  20.488  55.008  1.00  0.00     0.000 A 
HETATM   21  C   UNL     1       7.859  21.539  55.836  1.00  0.00     0.001 A 
HETATM   22  C   UNL     1       7.446  22.754  55.281  1.00  0.00     0.012 A 
ENDBRANCH  14  17
ENDBRANCH  10  11
ENDBRANCH   7  10
ENDBRANCH   1   6
BRANCH   2  23
HETATM   23  C   UNL     1       5.041  29.481  55.599  1.00  0.00     0.732 A 
HETATM   24  N   UNL     1       4.621  28.300  55.947  1.00  0.00    -0.067 NA
HETATM   25  C   UNL     1       5.575  27.527  56.549  1.00  0.00     0.065 A 
HETATM   26  C   UNL     1       6.840  27.882  56.786  1.00  0.00     0.036 A 
HETATM   27  C   UNL     1       5.311  26.136  57.023  1.00  0.00     0.061 C 
HETATM   28  C   UNL     1       7.642  26.822  57.435  1.00  0.00     0.047 C 
HETATM   29  C   UNL     1       7.294  29.213  56.388  1.00  0.00     0.268 A 
HETATM   30  C   UNL     1       6.728  25.601  57.271  1.00  0.00     0.011 C 
HETATM   31  O   UNL     1       8.438  29.602  56.569  1.00  0.00    -0.267 OA
HETATM   32  N   UNL     1       6.315  29.963  55.800  1.00  0.00    -0.152 N 
HETATM   33  H   UNL     1       6.540  30.902  55.486  1.00  0.00     0.188 HD
ENDBRANCH   2  23
BRANCH   4  34
HETATM   34  C   UNL     1       1.749  33.002  55.119  1.00  0.00     0.105 A 
HETATM   35  O   UNL     1       0.404  32.760  55.063  1.00  0.00    -0.320 OA
HETATM   36  C   UNL     1      -0.229  33.890  55.470  1.00  0.00     0.142 A 
HETATM   37  C   UNL     1       0.685  34.865  55.788  1.00  0.00     0.027 A 
HETATM   38  C   UNL     1       1.962  34.295  55.560  1.00  0.00     0.041 A 
ENDBRANCH   4  34
TORSDOF 6
ENDMDL
MODEL 7
REMARK VINA RESULT:     -10.3      2.911      9.038
REMARK  6 active torsions:
REMARK  status: ('A' for Active; 'I' for Inactive)
REMARK    1  A    between atoms: C_4  and  C_5 
REMARK    2  A    between atoms: C_8  and  C_9 
REMARK    3  A    between atoms: C_9  and  C_10 
REMARK       I    between atoms: C_10  and  N_11 
REMARK    4  A    between atoms: N_11  and  C_12 
REMARK    5  A    between atoms: N_13  and  C_14 
REMARK    6  A    between atoms: C_25  and  C_26 
ROOT
HETATM    1  C   UNL     1       6.500  30.324  56.700  1.00  0.00     0.152 A 
HETATM    2  N   UNL     1       5.878  31.478  57.157  1.00  0.00    -0.044 N 
HETATM    3  N   UNL     1       6.390  31.910  58.350  1.00  0.00    -0.148 NA
HETATM    4  C   UNL     1       7.344  31.013  58.634  1.00  0.00     0.115 A 
HETATM    5  C   UNL     1       7.428  29.996  57.662  1.00  0.00     0.087 A 
ENDROOT
BRANCH   1   6
HETATM    6  N   UNL     1       6.182  29.737  55.483  1.00  0.00    -0.311 N 
HETATM    7  C   UNL     1       5.312  28.667  55.368  1.00  0.00     0.227 C 
HETATM    8  O   UNL     1       4.580  28.240  56.259  1.00  0.00    -0.273 OA
HETATM    9  H   UNL     1       6.649  30.101  54.651  1.00  0.00     0.170 HD
BRANCH   7  10
HETATM   10  C   UNL     1       5.373  27.989  54.007  1.00  0.00     0.141 C 
BRANCH  10  11
HETATM   11  C   UNL     1       5.964  26.600  54.078  1.00  0.00    -0.049 A 
HETATM   12  C   UNL     1       5.517  25.582  53.225  1.00  0.00     0.008 A 
HETATM   13  C   UNL     1       6.055  24.295  53.302  1.00  0.00     0.013 A 
HETATM   14  C   UNL     1       7.076  23.985  54.214  1.00  0.00    -0.026 A 
HETATM   15  C   UNL     1       7.545  25.021  55.039  1.00  0.00     0.013 A 
HETATM   16  C   UNL     1       7.000  26.311  54.972  1.00  0.00     0.008 A 
BRANCH  14  17
HETATM   17  C   UNL     1       7.626  22.617  54.299  1.00  0.00    -0.026 A 
HETATM   18  C   UNL     1       7.945  21.886  53.141  1.00  0.00     0.012 A 
HETATM   19  C   UNL     1       8.440  20.580  53.219  1.00  0.00     0.001 A 
HETATM   20  C   UNL     1       8.631  19.981  54.460  1.00  0.00     0.000 A 
HETATM   21  C   UNL     1       8.328  20.687  55.621  1.00  0.00     0.001 A 
HETATM   22  C   UNL     1       7.830  21.990  55.540  1.00  0.00     0.012 A 
ENDBRANCH  14  17
ENDBRANCH  10  11
ENDBRANCH   7  10
ENDBRANCH   1   6
BRANCH   2  23
HETATM   23  C   UNL     1       4.829  32.196  56.551  1.00  0.00     0.732 A 
HETATM   24  N   UNL     1       4.541  32.116  55.285  1.00  0.00    -0.067 NA
HETATM   25  C   UNL     1       3.472  32.881  54.909  1.00  0.00     0.065 A 
HETATM   26  C   UNL     1       2.741  33.659  55.711  1.00  0.00     0.036 A 
HETATM   27  C   UNL     1       2.968  32.934  53.506  1.00  0.00     0.061 C 
HETATM   28  C   UNL     1       1.633  34.351  55.017  1.00  0.00     0.047 C 
HETATM   29  C   UNL     1       3.079  33.737  57.131  1.00  0.00     0.268 A 
HETATM   30  C   UNL     1       1.599  33.609  53.675  1.00  0.00     0.011 C 
HETATM   31  O   UNL     1       2.450  34.424  57.922  1.00  0.00    -0.267 OA
HETATM   32  N   UNL     1       4.157  32.970  57.472  1.00  0.00    -0.152 N 
HETATM   33  H   UNL     1       4.463  32.958  58.440  1.00  0.00     0.188 HD
ENDBRANCH   2  23
BRANCH   4  34
HETATM   34  C   UNL     1       8.222  31.114  59.835  1.00  0.00     0.105 A 
HETATM   35  O   UNL     1       8.680  30.039  60.547  1.00  0.00    -0.320 OA
HETATM   36  C   UNL     1       9.463  30.520  61.547  1.00  0.00     0.142 A 
HETATM   37  C   UNL     1       9.520  31.892  61.497  1.00  0.00     0.027 A 
HETATM   38  C   UNL     1       8.717  32.277  60.394  1.00  0.00     0.041 A 
ENDBRANCH   4  34
TORSDOF 6
ENDMDL
MODEL 8
REMARK VINA RESULT:     -10.3      2.487      3.182
REMARK  6 active torsions:
REMARK  status: ('A' for Active; 'I' for Inactive)
REMARK    1  A    between atoms: C_4  and  C_5 
REMARK    2  A    between atoms: C_8  and  C_9 
REMARK    3  A    between atoms: C_9  and  C_10 
REMARK       I    between atoms: C_10  and  N_11 
REMARK    4  A    between atoms: N_11  and  C_12 
REMARK    5  A    between atoms: N_13  and  C_14 
REMARK    6  A    between atoms: C_25  and  C_26 
ROOT
HETATM    1  C   UNL     1       8.131  27.271  57.227  1.00  0.00     0.152 A 
HETATM    2  N   UNL     1       6.835  27.146  56.748  1.00  0.00    -0.044 N 
HETATM    3  N   UNL     1       6.541  25.866  56.364  1.00  0.00    -0.148 NA
HETATM    4  C   UNL     1       7.670  25.189  56.612  1.00  0.00     0.115 A 
HETATM    5  C   UNL     1       8.692  26.020  57.115  1.00  0.00     0.087 A 
ENDROOT
BRANCH   1   6
HETATM    6  N   UNL     1       8.630  28.467  57.725  1.00  0.00    -0.311 N 
HETATM    7  C   UNL     1       9.071  29.496  56.910  1.00  0.00     0.227 C 
HETATM    8  O   UNL     1       8.902  29.569  55.695  1.00  0.00    -0.273 OA
HETATM    9  H   UNL     1       8.701  28.560  58.739  1.00  0.00     0.170 HD
BRANCH   7  10
HETATM   10  C   UNL     1       9.869  30.553  57.660  1.00  0.00     0.141 C 
BRANCH  10  11
HETATM   11  C   UNL     1       9.165  31.033  58.908  1.00  0.00    -0.049 A 
HETATM   12  C   UNL     1       7.852  31.519  58.852  1.00  0.00     0.008 A 
HETATM   13  C   UNL     1       7.207  31.975  60.005  1.00  0.00     0.013 A 
HETATM   14  C   UNL     1       7.839  31.939  61.257  1.00  0.00    -0.026 A 
HETATM   15  C   UNL     1       9.142  31.416  61.310  1.00  0.00     0.013 A 
HETATM   16  C   UNL     1       9.797  30.967  60.154  1.00  0.00     0.008 A 
BRANCH  14  17
HETATM   17  C   UNL     1       7.156  32.440  62.466  1.00  0.00    -0.026 A 
HETATM   18  C   UNL     1       7.883  32.826  63.607  1.00  0.00     0.012 A 
HETATM   19  C   UNL     1       7.237  33.276  64.762  1.00  0.00     0.001 A 
HETATM   20  C   UNL     1       5.848  33.354  64.797  1.00  0.00     0.000 A 
HETATM   21  C   UNL     1       5.107  32.984  63.679  1.00  0.00     0.001 A 
HETATM   22  C   UNL     1       5.755  32.531  62.526  1.00  0.00     0.012 A 
ENDBRANCH  14  17
ENDBRANCH  10  11
ENDBRANCH   7  10
ENDBRANCH   1   6
BRANCH   2  23
HETATM   23  C   UNL     1       5.856  28.151  56.617  1.00  0.00     0.732 A 
HETATM   24  N   UNL     1       5.596  29.023  57.547  1.00  0.00    -0.067 NA
HETATM   25  C   UNL     1       4.624  29.923  57.206  1.00  0.00     0.065 A 
HETATM   26  C   UNL     1       3.964  29.966  56.047  1.00  0.00     0.036 A 
HETATM   27  C   UNL     1       4.172  31.013  58.120  1.00  0.00     0.061 C 
HETATM   28  C   UNL     1       2.982  31.070  55.964  1.00  0.00     0.047 C 
HETATM   29  C   UNL     1       4.270  28.978  55.014  1.00  0.00     0.268 A 
HETATM   30  C   UNL     1       3.375  31.923  57.176  1.00  0.00     0.011 C 
HETATM   31  O   UNL     1       3.709  28.961  53.928  1.00  0.00    -0.267 OA
HETATM   32  N   UNL     1       5.236  28.088  55.389  1.00  0.00    -0.152 N 
HETATM   33  H   UNL     1       5.518  27.366  54.733  1.00  0.00     0.188 HD
ENDBRANCH   2  23
BRANCH   4  34
HETATM   34  C   UNL     1       7.800  23.719  56.397  1.00  0.00     0.105 A 
HETATM   35  O   UNL     1       8.438  22.868  57.258  1.00  0.00    -0.320 OA
HETATM   36  C   UNL     1       8.330  21.616  56.742  1.00  0.00     0.142 A 
HETATM   37  C   UNL     1       7.633  21.641  55.559  1.00  0.00     0.027 A 
HETATM   38  C   UNL     1       7.293  22.998  55.333  1.00  0.00     0.041 A 
ENDBRANCH   4  34
TORSDOF 6
ENDMDL
MODEL 9
REMARK VINA RESULT:     -10.3      4.435     11.868
REMARK  6 active torsions:
REMARK  status: ('A' for Active; 'I' for Inactive)
REMARK    1  A    between atoms: C_4  and  C_5 
REMARK    2  A    between atoms: C_8  and  C_9 
REMARK    3  A    between atoms: C_9  and  C_10 
REMARK       I    between atoms: C_10  and  N_11 
REMARK    4  A    between atoms: N_11  and  C_12 
REMARK    5  A    between atoms: N_13  and  C_14 
REMARK    6  A    between atoms: C_25  and  C_26 
ROOT
HETATM    1  C   UNL     1       7.227  27.104  54.254  1.00  0.00     0.152 A 
HETATM    2  N   UNL     1       7.526  26.170  55.235  1.00  0.00    -0.044 N 
HETATM    3  N   UNL     1       7.690  26.740  56.468  1.00  0.00    -0.148 NA
HETATM    4  C   UNL     1       7.485  28.045  56.247  1.00  0.00     0.115 A 
HETATM    5  C   UNL     1       7.229  28.325  54.890  1.00  0.00     0.087 A 
ENDROOT
BRANCH   1   6
HETATM    6  N   UNL     1       6.964  26.747  52.938  1.00  0.00    -0.311 N 
HETATM    7  C   UNL     1       5.692  26.453  52.480  1.00  0.00     0.227 C 
HETATM    8  O   UNL     1       4.645  26.653  53.092  1.00  0.00    -0.273 OA
HETATM    9  H   UNL     1       7.761  26.668  52.306  1.00  0.00     0.170 HD
BRANCH   7  10
HETATM   10  C   UNL     1       5.690  25.776  51.116  1.00  0.00     0.141 C 
BRANCH  10  11
HETATM   11  C   UNL     1       4.675  26.380  50.172  1.00  0.00    -0.049 A 
HETATM   12  C   UNL     1       4.357  27.743  50.232  1.00  0.00     0.008 A 
HETATM   13  C   UNL     1       3.409  28.296  49.368  1.00  0.00     0.013 A 
HETATM   14  C   UNL     1       2.765  27.515  48.395  1.00  0.00    -0.026 A 
HETATM   15  C   UNL     1       3.117  26.157  48.317  1.00  0.00     0.013 A 
HETATM   16  C   UNL     1       4.060  25.596  49.190  1.00  0.00     0.008 A 
BRANCH  14  17
HETATM   17  C   UNL     1       1.751  28.105  47.499  1.00  0.00    -0.026 A 
HETATM   18  C   UNL     1       1.852  29.438  47.062  1.00  0.00     0.012 A 
HETATM   19  C   UNL     1       0.880  30.008  46.234  1.00  0.00     0.001 A 
HETATM   20  C   UNL     1      -0.213  29.252  45.822  1.00  0.00     0.000 A 
HETATM   21  C   UNL     1      -0.333  27.928  46.237  1.00  0.00     0.001 A 
HETATM   22  C   UNL     1       0.640  27.363  47.067  1.00  0.00     0.012 A 
ENDBRANCH  14  17
ENDBRANCH  10  11
ENDBRANCH   7  10
ENDBRANCH   1   6
BRANCH   2  23
HETATM   23  C   UNL     1       7.679  24.777  55.090  1.00  0.00     0.732 A 
HETATM   24  N   UNL     1       7.630  24.166  53.942  1.00  0.00    -0.067 NA
HETATM   25  C   UNL     1       7.822  22.814  54.025  1.00  0.00     0.065 A 
HETATM   26  C   UNL     1       8.049  22.119  55.142  1.00  0.00     0.036 A 
HETATM   27  C   UNL     1       7.812  21.920  52.830  1.00  0.00     0.061 C 
HETATM   28  C   UNL     1       8.239  20.670  54.910  1.00  0.00     0.047 C 
HETATM   29  C   UNL     1       8.099  22.822  56.422  1.00  0.00     0.268 A 
HETATM   30  C   UNL     1       8.413  20.622  53.387  1.00  0.00     0.011 C 
HETATM   31  O   UNL     1       8.308  22.251  57.482  1.00  0.00    -0.267 OA
HETATM   32  N   UNL     1       7.893  24.168  56.307  1.00  0.00    -0.152 N 
HETATM   33  H   UNL     1       7.916  24.740  57.145  1.00  0.00     0.188 HD
ENDBRANCH   2  23
BRANCH   4  34
HETATM   34  C   UNL     1       7.507  29.066  57.334  1.00  0.00     0.105 A 
HETATM   35  O   UNL     1       8.359  29.034  58.405  1.00  0.00    -0.320 OA
HETATM   36  C   UNL     1       8.099  30.132  59.161  1.00  0.00     0.142 A 
HETATM   37  C   UNL     1       7.091  30.876  58.600  1.00  0.00     0.027 A 
HETATM   38  C   UNL     1       6.705  30.189  57.422  1.00  0.00     0.041 A 
ENDBRANCH   4  34
TORSDOF 6
ENDMDL
MODEL 10
REMARK VINA RESULT:     -10.0      3.184      6.660
REMARK  6 active torsions:
REMARK  status: ('A' for Active; 'I' for Inactive)
REMARK    1  A    between atoms: C_4  and  C_5 
REMARK    2  A    between atoms: C_8  and  C_9 
REMARK    3  A    between atoms: C_9  and  C_10 
REMARK       I    between atoms: C_10  and  N_11 
REMARK    4  A    between atoms: N_11  and  C_12 
REMARK    5  A    between atoms: N_13  and  C_14 
REMARK    6  A    between atoms: C_25  and  C_26 
ROOT
HETATM    1  C   UNL     1       5.748  25.998  53.760  1.00  0.00     0.152 A 
HETATM    2  N   UNL     1       5.836  25.606  52.431  1.00  0.00    -0.044 N 
HETATM    3  N   UNL     1       6.439  24.387  52.285  1.00  0.00    -0.148 NA
HETATM    4  C   UNL     1       6.725  24.018  53.540  1.00  0.00     0.115 A 
HETATM    5  C   UNL     1       6.347  24.993  54.484  1.00  0.00     0.087 A 
ENDROOT
BRANCH   1   6
HETATM    6  N   UNL     1       5.123  27.175  54.151  1.00  0.00    -0.311 N 
HETATM    7  C   UNL     1       5.813  28.354  54.372  1.00  0.00     0.227 C 
HETATM    8  O   UNL     1       6.986  28.565  54.073  1.00  0.00    -0.273 OA
HETATM    9  H   UNL     1       4.116  27.140  54.312  1.00  0.00     0.170 HD
BRANCH   7  10
HETATM   10  C   UNL     1       4.985  29.403  55.103  1.00  0.00     0.141 C 
BRANCH  10  11
HETATM   11  C   UNL     1       5.670  29.916  56.349  1.00  0.00    -0.049 A 
HETATM   12  C   UNL     1       6.589  29.119  57.045  1.00  0.00     0.008 A 
HETATM   13  C   UNL     1       7.211  29.590  58.204  1.00  0.00     0.013 A 
HETATM   14  C   UNL     1       6.958  30.881  58.695  1.00  0.00    -0.026 A 
HETATM   15  C   UNL     1       6.064  31.686  57.969  1.00  0.00     0.013 A 
HETATM   16  C   UNL     1       5.429  31.213  56.812  1.00  0.00     0.008 A 
BRANCH  14  17
HETATM   17  C   UNL     1       7.606  31.362  59.931  1.00  0.00    -0.026 A 
HETATM   18  C   UNL     1       8.890  30.922  60.299  1.00  0.00     0.012 A 
HETATM   19  C   UNL     1       9.496  31.355  61.483  1.00  0.00     0.001 A 
HETATM   20  C   UNL     1       8.829  32.244  62.320  1.00  0.00     0.000 A 
HETATM   21  C   UNL     1       7.560  32.699  61.975  1.00  0.00     0.001 A 
HETATM   22  C   UNL     1       6.956  32.261  60.792  1.00  0.00     0.012 A 
ENDBRANCH  14  17
ENDBRANCH  10  11
ENDBRANCH   7  10
ENDBRANCH   1   6
BRANCH   2  23
HETATM   23  C   UNL     1       5.400  26.306  51.289  1.00  0.00     0.732 A 
HETATM   24  N   UNL     1       5.749  27.531  51.021  1.00  0.00    -0.067 NA
HETATM   25  C   UNL     1       5.229  28.013  49.852  1.00  0.00     0.065 A 
HETATM   26  C   UNL     1       4.434  27.347  49.011  1.00  0.00     0.036 A 
HETATM   27  C   UNL     1       5.505  29.391  49.350  1.00  0.00     0.061 C 
HETATM   28  C   UNL     1       4.048  28.128  47.815  1.00  0.00     0.047 C 
HETATM   29  C   UNL     1       4.052  25.972  49.329  1.00  0.00     0.268 A 
HETATM   30  C   UNL     1       5.018  29.313  47.896  1.00  0.00     0.011 C 
HETATM   31  O   UNL     1       3.333  25.302  48.603  1.00  0.00    -0.267 OA
HETATM   32  N   UNL     1       4.579  25.524  50.507  1.00  0.00    -0.152 N 
HETATM   33  H   UNL     1       4.371  24.577  50.808  1.00  0.00     0.188 HD
ENDBRANCH   2  23
BRANCH   4  34
HETATM   34  C   UNL     1       7.349  22.706  53.879  1.00  0.00     0.105 A 
HETATM   35  O   UNL     1       7.490  22.225  55.152  1.00  0.00    -0.320 OA
HETATM   36  C   UNL     1       8.075  21.004  55.061  1.00  0.00     0.142 A 
HETATM   37  C   UNL     1       8.317  20.682  53.747  1.00  0.00     0.027 A 
HETATM   38  C   UNL     1       7.851  21.781  52.983  1.00  0.00     0.041 A 
ENDBRANCH   4  34
TORSDOF 6
ENDMDL
