MODEL 1
REMARK VINA RESULT:     -10.4      0.000      0.000
REMARK  7 active torsions:
REMARK  status: ('A' for Active; 'I' for Inactive)
REMARK    1  A    between atoms: C_2  and  C_3 
REMARK    2  A    between atoms: C_2  and  C_9 
REMARK    3  A    between atoms: C_9  and  C_10 
REMARK       I    between atoms: C_10  and  N_11 
REMARK    4  A    between atoms: N_11  and  N_12 
REMARK       I    between atoms: N_12  and  C_13 
REMARK    5  A    between atoms: C_13  and  C_14 
REMARK    6  A    between atoms: C_18  and  C_19 
REMARK    7  A    between atoms: C_22  and  O_23 
ROOT
HETATM    1  N   UNL     1       8.277  28.486  57.485  1.00  0.00    -0.262 N 
HETATM    2  C   UNL     1       9.222  29.488  57.483  1.00  0.00     0.288 C 
HETATM    3  O   UNL     1      10.129  29.528  56.653  1.00  0.00    -0.264 OA
HETATM    4  H   UNL     1       7.540  28.401  58.181  1.00  0.00     0.190 HD
ENDROOT
BRANCH   2   5
HETATM    5  C   UNL     1       9.059  30.478  58.512  1.00  0.00     0.121 A 
HETATM    6  N   UNL     1       9.793  31.629  58.540  1.00  0.00    -0.272 N 
HETATM    7  H   UNL     1      10.515  31.910  57.882  1.00  0.00     0.189 HD
HETATM    8  N   UNL     1       9.478  32.459  59.547  1.00  0.00    -0.174 NA
HETATM    9  C   UNL     1       8.519  31.814  60.230  1.00  0.00     0.089 A 
HETATM   10  C   UNL     1       8.229  30.567  59.611  1.00  0.00     0.071 A 
BRANCH   9  11
HETATM   11  C   UNL     1       7.887  32.388  61.420  1.00  0.00    -0.005 A 
HETATM   12  C   UNL     1       8.455  32.210  62.688  1.00  0.00     0.016 A 
HETATM   13  C   UNL     1       7.872  32.795  63.817  1.00  0.00     0.037 A 
HETATM   14  C   UNL     1       6.713  33.564  63.704  1.00  0.00     0.068 A 
HETATM   15  C   UNL     1       6.128  33.729  62.450  1.00  0.00     0.037 A 
HETATM   16  C   UNL     1       6.711  33.146  61.317  1.00  0.00     0.016 A 
BRANCH  14  17
HETATM   17  O   UNL     1       6.253  34.089  64.880  1.00  0.00    -0.356 OA
HETATM   18  C   UNL     1       4.963  33.671  65.308  1.00  0.00     0.210 C 
ENDBRANCH  14  17
ENDBRANCH   9  11
ENDBRANCH   2   5
BRANCH   1  19
HETATM   19  N   UNL     1       8.341  27.465  56.533  1.00  0.00    -0.267 N 
HETATM   20  C   UNL     1       7.327  26.532  56.546  1.00  0.00     0.236 C 
HETATM   21  O   UNL     1       6.329  26.664  57.258  1.00  0.00    -0.272 OA
HETATM   22  H   UNL     1       9.243  27.320  56.086  1.00  0.00     0.190 HD
BRANCH  20  23
HETATM   23  C   UNL     1       7.459  25.398  55.550  1.00  0.00     0.113 C 
BRANCH  23  24
HETATM   24  C   UNL     1       7.511  23.990  56.166  1.00  0.00     0.023 C 
HETATM   25  C   UNL     1       8.630  23.918  57.213  1.00  0.00     0.015 C 
BRANCH  24  26
HETATM   26  C   UNL     1       7.680  22.884  55.140  1.00  0.00    -0.054 A 
HETATM   27  C   UNL     1       7.695  23.150  53.762  1.00  0.00     0.007 A 
HETATM   28  C   UNL     1       7.848  22.113  52.839  1.00  0.00     0.001 A 
HETATM   29  C   UNL     1       7.990  20.800  53.279  1.00  0.00     0.000 A 
HETATM   30  C   UNL     1       7.982  20.521  54.643  1.00  0.00     0.001 A 
HETATM   31  C   UNL     1       7.829  21.556  55.568  1.00  0.00     0.007 A 
ENDBRANCH  24  26
ENDBRANCH  23  24
ENDBRANCH  20  23
ENDBRANCH   1  19
TORSDOF 7
ENDMDL
MODEL 2
REMARK VINA RESULT:     -10.1      1.153      1.731
REMARK  7 active torsions:
REMARK  status: ('A' for Active; 'I' for Inactive)
REMARK    1  A    between atoms: C_2  and  C_3 
REMARK    2  A    between atoms: C_2  and  C_9 
REMARK    3  A    between atoms: C_9  and  C_10 
REMARK       I    between atoms: C_10  and  N_11 
REMARK    4  A    between atoms: N_11  and  N_12 
REMARK       I    between atoms: N_12  and  C_13 
REMARK    5  A    between atoms: C_13  and  C_14 
REMARK    6  A    between atoms: C_18  and  C_19 
REMARK    7  A    between atoms: C_22  and  O_23 
ROOT
HETATM    1  N   UNL     1       7.893  27.442  56.660  1.00  0.00    -0.262 N 
HETATM    2  C   UNL     1       8.426  28.683  56.392  1.00  0.00     0.288 C 
HETATM    3  O   UNL     1       8.736  29.028  55.253  1.00  0.00    -0.264 OA
HETATM    4  H   UNL     1       7.665  27.111  57.595  1.00  0.00     0.190 HD
ENDROOT
BRANCH   2   5
HETATM    5  C   UNL     1       8.579  29.539  57.537  1.00  0.00     0.121 A 
HETATM    6  N   UNL     1       9.726  30.241  57.775  1.00  0.00    -0.272 N 
HETATM    7  H   UNL     1      10.572  30.239  57.212  1.00  0.00     0.189 HD
HETATM    8  N   UNL     1       9.676  31.022  58.866  1.00  0.00    -0.174 NA
HETATM    9  C   UNL     1       8.459  30.801  59.387  1.00  0.00     0.089 A 
HETATM   10  C   UNL     1       7.741  29.875  58.581  1.00  0.00     0.071 A 
BRANCH   9  11
HETATM   11  C   UNL     1       7.995  31.475  60.601  1.00  0.00    -0.005 A 
HETATM   12  C   UNL     1       8.755  31.433  61.777  1.00  0.00     0.016 A 
HETATM   13  C   UNL     1       8.330  32.113  62.923  1.00  0.00     0.037 A 
HETATM   14  C   UNL     1       7.140  32.842  62.920  1.00  0.00     0.068 A 
HETATM   15  C   UNL     1       6.365  32.871  61.762  1.00  0.00     0.037 A 
HETATM   16  C   UNL     1       6.790  32.193  60.611  1.00  0.00     0.016 A 
BRANCH  14  17
HETATM   17  O   UNL     1       6.845  33.470  64.098  1.00  0.00    -0.356 OA
HETATM   18  C   UNL     1       5.506  33.365  64.563  1.00  0.00     0.210 C 
ENDBRANCH  14  17
ENDBRANCH   9  11
ENDBRANCH   2   5
BRANCH   1  19
HETATM   19  N   UNL     1       7.705  26.524  55.623  1.00  0.00    -0.267 N 
HETATM   20  C   UNL     1       6.407  26.170  55.328  1.00  0.00     0.236 C 
HETATM   21  O   UNL     1       5.443  26.739  55.845  1.00  0.00    -0.272 OA
HETATM   22  H   UNL     1       8.520  25.984  55.345  1.00  0.00     0.190 HD
BRANCH  20  23
HETATM   23  C   UNL     1       6.236  25.121  54.248  1.00  0.00     0.113 C 
BRANCH  23  24
HETATM   24  C   UNL     1       7.544  24.541  53.687  1.00  0.00     0.023 C 
HETATM   25  C   UNL     1       7.629  24.804  52.179  1.00  0.00     0.015 C 
BRANCH  24  26
HETATM   26  C   UNL     1       7.724  23.061  53.973  1.00  0.00    -0.054 A 
HETATM   27  C   UNL     1       7.980  22.135  52.950  1.00  0.00     0.007 A 
HETATM   28  C   UNL     1       8.137  20.778  53.241  1.00  0.00     0.001 A 
HETATM   29  C   UNL     1       8.045  20.330  54.556  1.00  0.00     0.000 A 
HETATM   30  C   UNL     1       7.798  21.237  55.583  1.00  0.00     0.001 A 
HETATM   31  C   UNL     1       7.639  22.594  55.294  1.00  0.00     0.007 A 
ENDBRANCH  24  26
ENDBRANCH  23  24
ENDBRANCH  20  23
ENDBRANCH   1  19
TORSDOF 7
ENDMDL
MODEL 3
REMARK VINA RESULT:      -9.8      2.166     10.948
REMARK  7 active torsions:
REMARK  status: ('A' for Active; 'I' for Inactive)
REMARK    1  A    between atoms: C_2  and  C_3 
REMARK    2  A    between atoms: C_2  and  C_9 
REMARK    3  A    between atoms: C_9  and  C_10 
REMARK       I    between atoms: C_10  and  N_11 
REMARK    4  A    between atoms: N_11  and  N_12 
REMARK       I    between atoms: N_12  and  C_13 
REMARK    5  A    between atoms: C_13  and  C_14 
REMARK    6  A    between atoms: C_18  and  C_19 
REMARK    7  A    between atoms: C_22  and  O_23 
ROOT
HETATM    1  N   UNL     1       7.662  29.520  58.175  1.00  0.00    -0.262 N 
HETATM    2  C   UNL     1       6.990  29.570  56.975  1.00  0.00     0.288 C 
HETATM    3  O   UNL     1       6.338  30.556  56.632  1.00  0.00    -0.264 OA
HETATM    4  H   UNL     1       8.176  28.707  58.506  1.00  0.00     0.190 HD
ENDROOT
BRANCH   2   5
HETATM    5  C   UNL     1       7.118  28.395  56.157  1.00  0.00     0.121 A 
HETATM    6  N   UNL     1       7.304  28.462  54.806  1.00  0.00    -0.272 N 
HETATM    7  H   UNL     1       7.361  29.303  54.238  1.00  0.00     0.189 HD
HETATM    8  N   UNL     1       7.446  27.268  54.210  1.00  0.00    -0.174 NA
HETATM    9  C   UNL     1       7.316  26.375  55.204  1.00  0.00     0.089 A 
HETATM   10  C   UNL     1       7.108  27.044  56.442  1.00  0.00     0.071 A 
BRANCH   9  11
HETATM   11  C   UNL     1       7.414  24.932  54.975  1.00  0.00    -0.005 A 
HETATM   12  C   UNL     1       7.533  24.421  53.677  1.00  0.00     0.016 A 
HETATM   13  C   UNL     1       7.668  23.044  53.464  1.00  0.00     0.037 A 
HETATM   14  C   UNL     1       7.684  22.155  54.539  1.00  0.00     0.068 A 
HETATM   15  C   UNL     1       7.544  22.652  55.833  1.00  0.00     0.037 A 
HETATM   16  C   UNL     1       7.411  24.030  56.050  1.00  0.00     0.016 A 
BRANCH  14  17
HETATM   17  O   UNL     1       7.836  20.839  54.196  1.00  0.00    -0.356 OA
HETATM   18  C   UNL     1       8.319  20.570  52.886  1.00  0.00     0.210 C 
ENDBRANCH  14  17
ENDBRANCH   9  11
ENDBRANCH   2   5
BRANCH   1  19
HETATM   19  N   UNL     1       7.603  30.606  59.054  1.00  0.00    -0.267 N 
HETATM   20  C   UNL     1       8.794  31.223  59.367  1.00  0.00     0.236 C 
HETATM   21  O   UNL     1       9.847  30.939  58.792  1.00  0.00    -0.272 OA
HETATM   22  H   UNL     1       6.753  30.694  59.605  1.00  0.00     0.190 HD
BRANCH  20  23
HETATM   23  C   UNL     1       8.710  32.351  60.376  1.00  0.00     0.113 C 
BRANCH  23  24
HETATM   24  C   UNL     1       8.911  31.933  61.842  1.00  0.00     0.023 C 
HETATM   25  C   UNL     1       9.201  30.429  61.923  1.00  0.00     0.015 C 
BRANCH  24  26
HETATM   26  C   UNL     1       7.742  32.292  62.742  1.00  0.00    -0.054 A 
HETATM   27  C   UNL     1       6.426  31.911  62.433  1.00  0.00     0.007 A 
HETATM   28  C   UNL     1       5.369  32.258  63.276  1.00  0.00     0.001 A 
HETATM   29  C   UNL     1       5.611  32.984  64.439  1.00  0.00     0.000 A 
HETATM   30  C   UNL     1       6.910  33.364  64.762  1.00  0.00     0.001 A 
HETATM   31  C   UNL     1       7.970  33.019  63.920  1.00  0.00     0.007 A 
ENDBRANCH  24  26
ENDBRANCH  23  24
ENDBRANCH  20  23
ENDBRANCH   1  19
TORSDOF 7
ENDMDL
MODEL 4
REMARK VINA RESULT:      -9.6      1.554      2.123
REMARK  7 active torsions:
REMARK  status: ('A' for Active; 'I' for Inactive)
REMARK    1  A    between atoms: C_2  and  C_3 
REMARK    2  A    between atoms: C_2  and  C_9 
REMARK    3  A    between atoms: C_9  and  C_10 
REMARK       I    between atoms: C_10  and  N_11 
REMARK    4  A    between atoms: N_11  and  N_12 
REMARK       I    between atoms: N_12  and  C_13 
REMARK    5  A    between atoms: C_13  and  C_14 
REMARK    6  A    between atoms: C_18  and  C_19 
REMARK    7  A    between atoms: C_22  and  O_23 
ROOT
HETATM    1  N   UNL     1       7.437  29.483  58.489  1.00  0.00    -0.262 N 
HETATM    2  C   UNL     1       8.263  30.361  59.155  1.00  0.00     0.288 C 
HETATM    3  O   UNL     1       9.470  30.424  58.926  1.00  0.00    -0.264 OA
HETATM    4  H   UNL     1       6.444  29.378  58.684  1.00  0.00     0.190 HD
ENDROOT
BRANCH   2   5
HETATM    5  C   UNL     1       7.606  31.198  60.121  1.00  0.00     0.121 A 
HETATM    6  N   UNL     1       6.581  32.036  59.786  1.00  0.00    -0.272 N 
HETATM    7  H   UNL     1       6.183  32.174  58.861  1.00  0.00     0.189 HD
HETATM    8  N   UNL     1       6.059  32.710  60.823  1.00  0.00    -0.174 NA
HETATM    9  C   UNL     1       6.791  32.325  61.881  1.00  0.00     0.089 A 
HETATM   10  C   UNL     1       7.773  31.378  61.480  1.00  0.00     0.071 A 
BRANCH   9  11
HETATM   11  C   UNL     1       6.537  32.832  63.231  1.00  0.00    -0.005 A 
HETATM   12  C   UNL     1       7.596  33.251  64.047  1.00  0.00     0.016 A 
HETATM   13  C   UNL     1       7.348  33.774  65.321  1.00  0.00     0.037 A 
HETATM   14  C   UNL     1       6.043  33.885  65.804  1.00  0.00     0.068 A 
HETATM   15  C   UNL     1       4.985  33.451  65.008  1.00  0.00     0.037 A 
HETATM   16  C   UNL     1       5.231  32.929  63.731  1.00  0.00     0.016 A 
BRANCH  14  17
HETATM   17  O   UNL     1       5.937  34.424  67.057  1.00  0.00    -0.356 OA
HETATM   18  C   UNL     1       4.890  35.363  67.264  1.00  0.00     0.210 C 
ENDBRANCH  14  17
ENDBRANCH   9  11
ENDBRANCH   2   5
BRANCH   1  19
HETATM   19  N   UNL     1       7.968  28.616  57.531  1.00  0.00    -0.267 N 
HETATM   20  C   UNL     1       7.089  27.760  56.904  1.00  0.00     0.236 C 
HETATM   21  O   UNL     1       5.869  27.848  57.063  1.00  0.00    -0.272 OA
HETATM   22  H   UNL     1       8.976  28.481  57.553  1.00  0.00     0.190 HD
BRANCH  20  23
HETATM   23  C   UNL     1       7.702  26.783  55.922  1.00  0.00     0.113 C 
BRANCH  23  24
HETATM   24  C   UNL     1       7.592  25.302  56.319  1.00  0.00     0.023 C 
HETATM   25  C   UNL     1       8.629  24.970  57.398  1.00  0.00     0.015 C 
BRANCH  24  26
HETATM   26  C   UNL     1       7.731  24.348  55.146  1.00  0.00    -0.054 A 
HETATM   27  C   UNL     1       7.703  24.799  53.817  1.00  0.00     0.007 A 
HETATM   28  C   UNL     1       7.828  23.899  52.757  1.00  0.00     0.001 A 
HETATM   29  C   UNL     1       7.988  22.539  53.009  1.00  0.00     0.000 A 
HETATM   30  C   UNL     1       8.023  22.077  54.321  1.00  0.00     0.001 A 
HETATM   31  C   UNL     1       7.896  22.974  55.383  1.00  0.00     0.007 A 
ENDBRANCH  24  26
ENDBRANCH  23  24
ENDBRANCH  20  23
ENDBRANCH   1  19
TORSDOF 7
ENDMDL
MODEL 5
REMARK VINA RESULT:      -9.3      1.990     11.298
REMARK  7 active torsions:
REMARK  status: ('A' for Active; 'I' for Inactive)
REMARK    1  A    between atoms: C_2  and  C_3 
REMARK    2  A    between atoms: C_2  and  C_9 
REMARK    3  A    between atoms: C_9  and  C_10 
REMARK       I    between atoms: C_10  and  N_11 
REMARK    4  A    between atoms: N_11  and  N_12 
REMARK       I    between atoms: N_12  and  C_13 
REMARK    5  A    between atoms: C_13  and  C_14 
REMARK    6  A    between atoms: C_18  and  C_19 
REMARK    7  A    between atoms: C_22  and  O_23 
ROOT
HETATM    1  N   UNL     1       7.621  30.878  60.262  1.00  0.00    -0.262 N 
HETATM    2  C   UNL     1       8.406  31.084  59.149  1.00  0.00     0.288 C 
HETATM    3  O   UNL     1       9.039  32.125  58.980  1.00  0.00    -0.264 OA
HETATM    4  H   UNL     1       7.054  30.047  60.412  1.00  0.00     0.190 HD
ENDROOT
BRANCH   2   5
HETATM    5  C   UNL     1       8.434  29.991  58.216  1.00  0.00     0.121 A 
HETATM    6  N   UNL     1       9.103  30.063  57.027  1.00  0.00    -0.272 N 
HETATM    7  H   UNL     1       9.625  30.857  56.667  1.00  0.00     0.189 HD
HETATM    8  N   UNL     1       9.058  28.935  56.301  1.00  0.00    -0.174 NA
HETATM    9  C   UNL     1       8.302  28.095  57.026  1.00  0.00     0.089 A 
HETATM   10  C   UNL     1       7.891  28.722  58.234  1.00  0.00     0.071 A 
BRANCH   9  11
HETATM   11  C   UNL     1       8.007  26.730  56.583  1.00  0.00    -0.005 A 
HETATM   12  C   UNL     1       8.385  25.629  57.362  1.00  0.00     0.016 A 
HETATM   13  C   UNL     1       8.066  24.328  56.957  1.00  0.00     0.037 A 
HETATM   14  C   UNL     1       7.367  24.103  55.770  1.00  0.00     0.068 A 
HETATM   15  C   UNL     1       7.006  25.191  54.978  1.00  0.00     0.037 A 
HETATM   16  C   UNL     1       7.323  26.495  55.382  1.00  0.00     0.016 A 
BRANCH  14  17
HETATM   17  O   UNL     1       7.106  22.788  55.497  1.00  0.00    -0.356 OA
HETATM   18  C   UNL     1       7.765  22.225  54.369  1.00  0.00     0.210 C 
ENDBRANCH  14  17
ENDBRANCH   9  11
ENDBRANCH   2   5
BRANCH   1  19
HETATM   19  N   UNL     1       7.514  31.877  61.235  1.00  0.00    -0.267 N 
HETATM   20  C   UNL     1       8.023  31.593  62.482  1.00  0.00     0.236 C 
HETATM   21  O   UNL     1       8.678  30.571  62.702  1.00  0.00    -0.272 OA
HETATM   22  H   UNL     1       6.844  32.618  61.048  1.00  0.00     0.190 HD
BRANCH  20  23
HETATM   23  C   UNL     1       7.831  32.665  63.536  1.00  0.00     0.113 C 
BRANCH  23  24
HETATM   24  C   UNL     1       6.407  33.237  63.634  1.00  0.00     0.023 C 
HETATM   25  C   UNL     1       6.253  34.426  62.677  1.00  0.00     0.015 C 
BRANCH  24  26
HETATM   26  C   UNL     1       6.011  33.641  65.043  1.00  0.00    -0.054 A 
HETATM   27  C   UNL     1       6.969  33.888  66.039  1.00  0.00     0.007 A 
HETATM   28  C   UNL     1       6.577  34.254  67.328  1.00  0.00     0.001 A 
HETATM   29  C   UNL     1       5.225  34.383  67.638  1.00  0.00     0.000 A 
HETATM   30  C   UNL     1       4.264  34.146  66.659  1.00  0.00     0.001 A 
HETATM   31  C   UNL     1       4.653  33.779  65.370  1.00  0.00     0.007 A 
ENDBRANCH  24  26
ENDBRANCH  23  24
ENDBRANCH  20  23
ENDBRANCH   1  19
TORSDOF 7
ENDMDL
MODEL 6
REMARK VINA RESULT:      -9.1      2.922      3.580
REMARK  7 active torsions:
REMARK  status: ('A' for Active; 'I' for Inactive)
REMARK    1  A    between atoms: C_2  and  C_3 
REMARK    2  A    between atoms: C_2  and  C_9 
REMARK    3  A    between atoms: C_9  and  C_10 
REMARK       I    between atoms: C_10  and  N_11 
REMARK    4  A    between atoms: N_11  and  N_12 
REMARK       I    between atoms: N_12  and  C_13 
REMARK    5  A    between atoms: C_13  and  C_14 
REMARK    6  A    between atoms: C_18  and  C_19 
REMARK    7  A    between atoms: C_22  and  O_23 
ROOT
HETATM    1  N   UNL     1       4.522  27.684  56.091  1.00  0.00    -0.262 N 
HETATM    2  C   UNL     1       4.706  29.018  55.802  1.00  0.00     0.288 C 
HETATM    3  O   UNL     1       5.003  29.406  54.674  1.00  0.00    -0.264 OA
HETATM    4  H   UNL     1       4.317  27.327  57.021  1.00  0.00     0.190 HD
ENDROOT
BRANCH   2   5
HETATM    5  C   UNL     1       4.516  29.911  56.911  1.00  0.00     0.121 A 
HETATM    6  N   UNL     1       3.283  30.162  57.444  1.00  0.00    -0.272 N 
HETATM    7  H   UNL     1       2.394  29.779  57.134  1.00  0.00     0.189 HD
HETATM    8  N   UNL     1       3.298  30.988  58.502  1.00  0.00    -0.174 NA
HETATM    9  C   UNL     1       4.589  31.321  58.654  1.00  0.00     0.089 A 
HETATM   10  C   UNL     1       5.385  30.666  57.674  1.00  0.00     0.071 A 
BRANCH   9  11
HETATM   11  C   UNL     1       5.044  32.217  59.719  1.00  0.00    -0.005 A 
HETATM   12  C   UNL     1       4.176  33.164  60.276  1.00  0.00     0.016 A 
HETATM   13  C   UNL     1       4.601  33.991  61.323  1.00  0.00     0.037 A 
HETATM   14  C   UNL     1       5.898  33.890  61.829  1.00  0.00     0.068 A 
HETATM   15  C   UNL     1       6.776  32.967  61.266  1.00  0.00     0.037 A 
HETATM   16  C   UNL     1       6.352  32.136  60.219  1.00  0.00     0.016 A 
BRANCH  14  17
HETATM   17  O   UNL     1       6.182  34.745  62.858  1.00  0.00    -0.356 OA
HETATM   18  C   UNL     1       5.774  36.098  62.698  1.00  0.00     0.210 C 
ENDBRANCH  14  17
ENDBRANCH   9  11
ENDBRANCH   2   5
BRANCH   1  19
HETATM   19  N   UNL     1       4.688  26.723  55.089  1.00  0.00    -0.267 N 
HETATM   20  C   UNL     1       5.801  25.917  55.173  1.00  0.00     0.236 C 
HETATM   21  O   UNL     1       6.543  25.930  56.157  1.00  0.00    -0.272 OA
HETATM   22  H   UNL     1       4.144  26.858  54.241  1.00  0.00     0.190 HD
BRANCH  20  23
HETATM   23  C   UNL     1       5.993  24.933  54.036  1.00  0.00     0.113 C 
BRANCH  23  24
HETATM   24  C   UNL     1       7.445  24.490  53.794  1.00  0.00     0.023 C 
HETATM   25  C   UNL     1       7.890  24.899  52.385  1.00  0.00     0.015 C 
BRANCH  24  26
HETATM   26  C   UNL     1       7.668  23.003  54.005  1.00  0.00    -0.054 A 
HETATM   27  C   UNL     1       7.929  22.135  52.933  1.00  0.00     0.007 A 
HETATM   28  C   UNL     1       8.126  20.770  53.154  1.00  0.00     0.001 A 
HETATM   29  C   UNL     1       8.072  20.256  54.447  1.00  0.00     0.000 A 
HETATM   30  C   UNL     1       7.821  21.106  55.521  1.00  0.00     0.001 A 
HETATM   31  C   UNL     1       7.621  22.470  55.302  1.00  0.00     0.007 A 
ENDBRANCH  24  26
ENDBRANCH  23  24
ENDBRANCH  20  23
ENDBRANCH   1  19
TORSDOF 7
ENDMDL
MODEL 7
REMARK VINA RESULT:      -9.1      1.527      2.243
REMARK  7 active torsions:
REMARK  status: ('A' for Active; 'I' for Inactive)
REMARK    1  A    between atoms: C_2  and  C_3 
REMARK    2  A    between atoms: C_2  and  C_9 
REMARK    3  A    between atoms: C_9  and  C_10 
REMARK       I    between atoms: C_10  and  N_11 
REMARK    4  A    between atoms: N_11  and  N_12 
REMARK       I    between atoms: N_12  and  C_13 
REMARK    5  A    between atoms: C_13  and  C_14 
REMARK    6  A    between atoms: C_18  and  C_19 
REMARK    7  A    between atoms: C_22  and  O_23 
ROOT
HETATM    1  N   UNL     1       8.201  29.428  55.969  1.00  0.00    -0.262 N 
HETATM    2  C   UNL     1       8.776  29.087  57.173  1.00  0.00     0.288 C 
HETATM    3  O   UNL     1       9.273  27.979  57.368  1.00  0.00    -0.264 OA
HETATM    4  H   UNL     1       7.745  30.320  55.789  1.00  0.00     0.190 HD
ENDROOT
BRANCH   2   5
HETATM    5  C   UNL     1       8.758  30.122  58.170  1.00  0.00     0.121 A 
HETATM    6  N   UNL     1       9.587  31.206  58.112  1.00  0.00    -0.272 N 
HETATM    7  H   UNL     1      10.289  31.401  57.404  1.00  0.00     0.189 HD
HETATM    8  N   UNL     1       9.403  32.093  59.102  1.00  0.00    -0.174 NA
HETATM    9  C   UNL     1       8.435  31.557  59.863  1.00  0.00     0.089 A 
HETATM   10  C   UNL     1       8.005  30.319  59.310  1.00  0.00     0.071 A 
BRANCH   9  11
HETATM   11  C   UNL     1       7.925  32.224  61.062  1.00  0.00    -0.005 A 
HETATM   12  C   UNL     1       6.757  32.995  61.010  1.00  0.00     0.016 A 
HETATM   13  C   UNL     1       6.249  33.597  62.167  1.00  0.00     0.037 A 
HETATM   14  C   UNL     1       6.897  33.444  63.393  1.00  0.00     0.068 A 
HETATM   15  C   UNL     1       8.073  32.697  63.451  1.00  0.00     0.037 A 
HETATM   16  C   UNL     1       8.582  32.092  62.294  1.00  0.00     0.016 A 
BRANCH  14  17
HETATM   17  O   UNL     1       6.291  34.071  64.447  1.00  0.00    -0.356 OA
HETATM   18  C   UNL     1       5.696  35.335  64.183  1.00  0.00     0.210 C 
ENDBRANCH  14  17
ENDBRANCH   9  11
ENDBRANCH   2   5
BRANCH   1  19
HETATM   19  N   UNL     1       8.156  28.496  54.928  1.00  0.00    -0.267 N 
HETATM   20  C   UNL     1       6.921  28.225  54.383  1.00  0.00     0.236 C 
HETATM   21  O   UNL     1       5.917  28.874  54.687  1.00  0.00    -0.272 OA
HETATM   22  H   UNL     1       8.968  27.893  54.828  1.00  0.00     0.190 HD
BRANCH  20  23
HETATM   23  C   UNL     1       6.892  27.160  53.306  1.00  0.00     0.113 C 
BRANCH  23  24
HETATM   24  C   UNL     1       6.156  25.865  53.686  1.00  0.00     0.023 C 
HETATM   25  C   UNL     1       5.367  26.073  54.984  1.00  0.00     0.015 C 
BRANCH  24  26
HETATM   26  C   UNL     1       7.073  24.662  53.814  1.00  0.00    -0.054 A 
HETATM   27  C   UNL     1       7.830  24.428  54.973  1.00  0.00     0.007 A 
HETATM   28  C   UNL     1       8.668  23.315  55.063  1.00  0.00     0.001 A 
HETATM   29  C   UNL     1       8.758  22.419  54.001  1.00  0.00     0.000 A 
HETATM   30  C   UNL     1       8.009  22.634  52.848  1.00  0.00     0.001 A 
HETATM   31  C   UNL     1       7.171  23.747  52.754  1.00  0.00     0.007 A 
ENDBRANCH  24  26
ENDBRANCH  23  24
ENDBRANCH  20  23
ENDBRANCH   1  19
TORSDOF 7
ENDMDL
MODEL 8
REMARK VINA RESULT:      -9.0      8.042     11.984
REMARK  7 active torsions:
REMARK  status: ('A' for Active; 'I' for Inactive)
REMARK    1  A    between atoms: C_2  and  C_3 
REMARK    2  A    between atoms: C_2  and  C_9 
REMARK    3  A    between atoms: C_9  and  C_10 
REMARK       I    between atoms: C_10  and  N_11 
REMARK    4  A    between atoms: N_11  and  N_12 
REMARK       I    between atoms: N_12  and  C_13 
REMARK    5  A    between atoms: C_13  and  C_14 
REMARK    6  A    between atoms: C_18  and  C_19 
REMARK    7  A    between atoms: C_22  and  O_23 
ROOT
HETATM    1  N   UNL     1       5.861  25.824  50.815  1.00  0.00    -0.262 N 
HETATM    2  C   UNL     1       5.269  27.057  50.645  1.00  0.00     0.288 C 
HETATM    3  O   UNL     1       5.614  28.041  51.297  1.00  0.00    -0.264 OA
HETATM    4  H   UNL     1       5.572  24.983  50.321  1.00  0.00     0.190 HD
ENDROOT
BRANCH   2   5
HETATM    5  C   UNL     1       4.236  27.102  49.648  1.00  0.00     0.121 A 
HETATM    6  N   UNL     1       3.758  25.977  49.039  1.00  0.00    -0.272 N 
HETATM    7  H   UNL     1       4.064  25.021  49.196  1.00  0.00     0.189 HD
HETATM    8  N   UNL     1       2.765  26.203  48.165  1.00  0.00    -0.174 NA
HETATM    9  C   UNL     1       2.601  27.535  48.174  1.00  0.00     0.089 A 
HETATM   10  C   UNL     1       3.507  28.135  49.092  1.00  0.00     0.071 A 
BRANCH   9  11
HETATM   11  C   UNL     1       1.594  28.204  47.349  1.00  0.00    -0.005 A 
HETATM   12  C   UNL     1       1.778  29.527  46.927  1.00  0.00     0.016 A 
HETATM   13  C   UNL     1       0.834  30.150  46.104  1.00  0.00     0.037 A 
HETATM   14  C   UNL     1      -0.311  29.468  45.690  1.00  0.00     0.068 A 
HETATM   15  C   UNL     1      -0.515  28.159  46.122  1.00  0.00     0.037 A 
HETATM   16  C   UNL     1       0.431  27.532  46.945  1.00  0.00     0.016 A 
BRANCH  14  17
HETATM   17  O   UNL     1      -1.146  30.185  44.878  1.00  0.00    -0.356 OA
HETATM   18  C   UNL     1      -2.076  29.442  44.099  1.00  0.00     0.210 C 
ENDBRANCH  14  17
ENDBRANCH   9  11
ENDBRANCH   2   5
BRANCH   1  19
HETATM   19  N   UNL     1       6.875  25.661  51.763  1.00  0.00    -0.267 N 
HETATM   20  C   UNL     1       6.525  25.077  52.959  1.00  0.00     0.236 C 
HETATM   21  O   UNL     1       5.411  24.581  53.142  1.00  0.00    -0.272 OA
HETATM   22  H   UNL     1       7.716  26.216  51.624  1.00  0.00     0.190 HD
BRANCH  20  23
HETATM   23  C   UNL     1       7.627  24.977  53.995  1.00  0.00     0.113 C 
BRANCH  23  24
HETATM   24  C   UNL     1       7.350  24.003  55.151  1.00  0.00     0.023 C 
HETATM   25  C   UNL     1       7.984  24.531  56.444  1.00  0.00     0.015 C 
BRANCH  24  26
HETATM   26  C   UNL     1       7.820  22.585  54.876  1.00  0.00    -0.054 A 
HETATM   27  C   UNL     1       7.928  21.630  55.899  1.00  0.00     0.007 A 
HETATM   28  C   UNL     1       8.367  20.334  55.618  1.00  0.00     0.001 A 
HETATM   29  C   UNL     1       8.699  19.974  54.315  1.00  0.00     0.000 A 
HETATM   30  C   UNL     1       8.592  20.909  53.289  1.00  0.00     0.001 A 
HETATM   31  C   UNL     1       8.155  22.206  53.567  1.00  0.00     0.007 A 
ENDBRANCH  24  26
ENDBRANCH  23  24
ENDBRANCH  20  23
ENDBRANCH   1  19
TORSDOF 7
ENDMDL
MODEL 9
REMARK VINA RESULT:      -9.0      8.237     12.287
REMARK  7 active torsions:
REMARK  status: ('A' for Active; 'I' for Inactive)
REMARK    1  A    between atoms: C_2  and  C_3 
REMARK    2  A    between atoms: C_2  and  C_9 
REMARK    3  A    between atoms: C_9  and  C_10 
REMARK       I    between atoms: C_10  and  N_11 
REMARK    4  A    between atoms: N_11  and  N_12 
REMARK       I    between atoms: N_12  and  C_13 
REMARK    5  A    between atoms: C_13  and  C_14 
REMARK    6  A    between atoms: C_18  and  C_19 
REMARK    7  A    between atoms: C_22  and  O_23 
ROOT
HETATM    1  N   UNL     1       4.447  27.350  52.024  1.00  0.00    -0.262 N 
HETATM    2  C   UNL     1       4.576  27.362  50.653  1.00  0.00     0.288 C 
HETATM    3  O   UNL     1       5.615  27.017  50.092  1.00  0.00    -0.264 OA
HETATM    4  H   UNL     1       3.617  27.667  52.519  1.00  0.00     0.190 HD
ENDROOT
BRANCH   2   5
HETATM    5  C   UNL     1       3.408  27.795  49.936  1.00  0.00     0.121 A 
HETATM    6  N   UNL     1       2.467  28.610  50.498  1.00  0.00    -0.272 N 
HETATM    7  H   UNL     1       2.467  28.982  51.443  1.00  0.00     0.189 HD
HETATM    8  N   UNL     1       1.466  28.947  49.669  1.00  0.00    -0.174 NA
HETATM    9  C   UNL     1       1.741  28.303  48.524  1.00  0.00     0.089 A 
HETATM   10  C   UNL     1       2.952  27.568  48.653  1.00  0.00     0.071 A 
BRANCH   9  11
HETATM   11  C   UNL     1       0.884  28.411  47.342  1.00  0.00    -0.005 A 
HETATM   12  C   UNL     1       0.570  27.279  46.581  1.00  0.00     0.016 A 
HETATM   13  C   UNL     1      -0.283  27.377  45.476  1.00  0.00     0.037 A 
HETATM   14  C   UNL     1      -0.835  28.606  45.110  1.00  0.00     0.068 A 
HETATM   15  C   UNL     1      -0.511  29.743  45.848  1.00  0.00     0.037 A 
HETATM   16  C   UNL     1       0.342  29.646  46.956  1.00  0.00     0.016 A 
BRANCH  14  17
HETATM   17  O   UNL     1      -1.661  28.564  44.021  1.00  0.00    -0.356 OA
HETATM   18  C   UNL     1      -1.212  27.807  42.904  1.00  0.00     0.210 C 
ENDBRANCH  14  17
ENDBRANCH   9  11
ENDBRANCH   2   5
BRANCH   1  19
HETATM   19  N   UNL     1       5.523  26.952  52.823  1.00  0.00    -0.267 N 
HETATM   20  C   UNL     1       5.459  25.692  53.376  1.00  0.00     0.236 C 
HETATM   21  O   UNL     1       4.576  24.889  53.069  1.00  0.00    -0.272 OA
HETATM   22  H   UNL     1       6.132  27.693  53.160  1.00  0.00     0.190 HD
BRANCH  20  23
HETATM   23  C   UNL     1       6.604  25.314  54.294  1.00  0.00     0.113 C 
BRANCH  23  24
HETATM   24  C   UNL     1       7.784  24.605  53.610  1.00  0.00     0.023 C 
HETATM   25  C   UNL     1       7.749  24.868  52.100  1.00  0.00     0.015 C 
BRANCH  24  26
HETATM   26  C   UNL     1       7.835  23.112  53.883  1.00  0.00    -0.054 A 
HETATM   27  C   UNL     1       7.968  22.175  52.847  1.00  0.00     0.007 A 
HETATM   28  C   UNL     1       8.008  20.807  53.125  1.00  0.00     0.001 A 
HETATM   29  C   UNL     1       7.921  20.358  54.441  1.00  0.00     0.000 A 
HETATM   30  C   UNL     1       7.795  21.276  55.480  1.00  0.00     0.001 A 
HETATM   31  C   UNL     1       7.753  22.644  55.204  1.00  0.00     0.007 A 
ENDBRANCH  24  26
ENDBRANCH  23  24
ENDBRANCH  20  23
ENDBRANCH   1  19
TORSDOF 7
ENDMDL
MODEL 10
REMARK VINA RESULT:      -8.8      9.366     12.876
REMARK  7 active torsions:
REMARK  status: ('A' for Active; 'I' for Inactive)
REMARK    1  A    between atoms: C_2  and  C_3 
REMARK    2  A    between atoms: C_2  and  C_9 
REMARK    3  A    between atoms: C_9  and  C_10 
REMARK       I    between atoms: C_10  and  N_11 
REMARK    4  A    between atoms: N_11  and  N_12 
REMARK       I    between atoms: N_12  and  C_13 
REMARK    5  A    between atoms: C_13  and  C_14 
REMARK    6  A    between atoms: C_18  and  C_19 
REMARK    7  A    between atoms: C_22  and  O_23 
ROOT
HETATM    1  N   UNL     1       4.383  26.502  49.772  1.00  0.00    -0.262 N 
HETATM    2  C   UNL     1       4.253  26.602  48.405  1.00  0.00     0.288 C 
HETATM    3  O   UNL     1       5.175  26.325  47.639  1.00  0.00    -0.264 OA
HETATM    4  H   UNL     1       3.654  26.762  50.433  1.00  0.00     0.190 HD
ENDROOT
BRANCH   2   5
HETATM    5  C   UNL     1       2.963  27.041  47.948  1.00  0.00     0.121 A 
HETATM    6  N   UNL     1       1.810  26.393  48.284  1.00  0.00    -0.272 N 
HETATM    7  H   UNL     1       1.722  25.559  48.858  1.00  0.00     0.189 HD
HETATM    8  N   UNL     1       0.695  26.968  47.804  1.00  0.00    -0.174 NA
HETATM    9  C   UNL     1       1.134  28.020  47.095  1.00  0.00     0.089 A 
HETATM   10  C   UNL     1       2.552  28.099  47.161  1.00  0.00     0.071 A 
BRANCH   9  11
HETATM   11  C   UNL     1       0.220  28.930  46.402  1.00  0.00    -0.005 A 
HETATM   12  C   UNL     1       0.634  30.217  46.037  1.00  0.00     0.016 A 
HETATM   13  C   UNL     1      -0.227  31.070  45.337  1.00  0.00     0.037 A 
HETATM   14  C   UNL     1      -1.515  30.656  44.992  1.00  0.00     0.068 A 
HETATM   15  C   UNL     1      -1.943  29.385  45.370  1.00  0.00     0.037 A 
HETATM   16  C   UNL     1      -1.082  28.528  46.069  1.00  0.00     0.016 A 
BRANCH  14  17
HETATM   17  O   UNL     1      -2.249  31.578  44.298  1.00  0.00    -0.356 OA
HETATM   18  C   UNL     1      -1.993  32.947  44.584  1.00  0.00     0.210 C 
ENDBRANCH  14  17
ENDBRANCH   9  11
ENDBRANCH   2   5
BRANCH   1  19
HETATM   19  N   UNL     1       5.597  26.090  50.329  1.00  0.00    -0.267 N 
HETATM   20  C   UNL     1       5.542  25.463  51.555  1.00  0.00     0.236 C 
HETATM   21  O   UNL     1       4.472  25.142  52.076  1.00  0.00    -0.272 OA
HETATM   22  H   UNL     1       6.437  26.509  49.941  1.00  0.00     0.190 HD
BRANCH  20  23
HETATM   23  C   UNL     1       6.877  25.091  52.168  1.00  0.00     0.113 C 
BRANCH  23  24
HETATM   24  C   UNL     1       6.824  24.679  53.648  1.00  0.00     0.023 C 
HETATM   25  C   UNL     1       7.612  25.682  54.500  1.00  0.00     0.015 C 
BRANCH  24  26
HETATM   26  C   UNL     1       7.322  23.268  53.904  1.00  0.00    -0.054 A 
HETATM   27  C   UNL     1       7.735  22.428  52.857  1.00  0.00     0.007 A 
HETATM   28  C   UNL     1       8.185  21.132  53.120  1.00  0.00     0.001 A 
HETATM   29  C   UNL     1       8.233  20.661  54.430  1.00  0.00     0.000 A 
HETATM   30  C   UNL     1       7.832  21.484  55.478  1.00  0.00     0.001 A 
HETATM   31  C   UNL     1       7.380  22.779  55.218  1.00  0.00     0.007 A 
ENDBRANCH  24  26
ENDBRANCH  23  24
ENDBRANCH  20  23
ENDBRANCH   1  19
TORSDOF 7
ENDMDL
