MODEL 1
REMARK VINA RESULT:      -9.5      0.000      0.000
REMARK  8 active torsions:
REMARK  status: ('A' for Active; 'I' for Inactive)
REMARK    1  A    between atoms: O_2  and  C_3 
REMARK    2  A    between atoms: C_4  and  O_5 
REMARK    3  A    between atoms: C_8  and  C_9 
REMARK    4  A    between atoms: C_9  and  N_10 
REMARK    5  A    between atoms: C_19  and  C_20 
REMARK    6  A    between atoms: C_20  and  N_21 
REMARK    7  A    between atoms: C_25  and  O_26 
REMARK    8  A    between atoms: C_25  and  C_27 
ROOT
HETATM    1  N   UNL     1       5.710  25.119  52.198  1.00  0.00    -0.061 N 
HETATM    2  H   UNL     1       5.605  24.111  52.030  1.00  0.00     0.280 HD
HETATM    3  C   UNL     1       4.836  25.384  53.409  1.00  0.00     0.276 C 
HETATM    4  C   UNL     1       4.917  26.771  53.983  1.00  0.00     0.002 A 
HETATM    5  C   UNL     1       4.554  27.878  53.215  1.00  0.00     0.076 A 
HETATM    6  O   UNL     1       4.077  27.725  51.945  1.00  0.00    -0.349 OA
HETATM    7  C   UNL     1       5.103  27.309  51.034  1.00  0.00     0.203 C 
HETATM    8  C   UNL     1       5.178  25.782  50.935  1.00  0.00     0.262 C 
HETATM    9  C   UNL     1       5.330  26.989  55.312  1.00  0.00     0.020 A 
HETATM   10  C   UNL     1       5.428  28.287  55.849  1.00  0.00    -0.032 A 
HETATM   11  C   UNL     1       5.042  29.373  55.052  1.00  0.00     0.011 A 
HETATM   12  C   UNL     1       4.587  29.165  53.748  1.00  0.00     0.038 A 
ENDROOT
BRANCH  10  13
HETATM   13  C   UNL     1       5.968  28.501  57.244  1.00  0.00     0.273 C 
BRANCH  13  14
HETATM   14  N   UNL     1       6.992  29.614  57.372  1.00  0.00    -0.067 N 
HETATM   15  H   UNL     1       7.266  29.879  56.416  1.00  0.00     0.280 HD
HETATM   16  C   UNL     1       6.426  30.847  58.037  1.00  0.00     0.238 C 
HETATM   17  C   UNL     1       7.503  31.911  58.162  1.00  0.00     0.071 C 
HETATM   18  C   UNL     1       8.705  31.417  58.991  1.00  0.00     0.089 C 
HETATM   19  C   UNL     1       9.264  30.194  58.236  1.00  0.00     0.071 C 
HETATM   20  C   UNL     1       8.232  29.091  58.067  1.00  0.00     0.238 C 
BRANCH  18  21
HETATM   21  O   UNL     1       9.701  32.436  58.902  1.00  0.00    -0.385 OA
HETATM   22  H   UNL     1       9.737  32.948  59.733  1.00  0.00     0.211 HD
ENDBRANCH  18  21
BRANCH  18  23
HETATM   23  C   UNL     1       8.377  31.192  60.463  1.00  0.00    -0.006 A 
HETATM   24  C   UNL     1       7.208  31.667  61.058  1.00  0.00     0.126 A 
HETATM   25  N   UNL     1       6.911  31.555  62.370  1.00  0.00    -0.272 NA
HETATM   26  C   UNL     1       7.771  30.866  63.145  1.00  0.00     0.116 A 
HETATM   27  C   UNL     1       8.927  30.291  62.656  1.00  0.00     0.020 A 
HETATM   28  C   UNL     1       9.225  30.452  61.304  1.00  0.00     0.013 A 
ENDBRANCH  18  23
ENDBRANCH  13  14
ENDBRANCH  10  13
BRANCH   1  29
HETATM   29  C   UNL     1       7.202  25.316  52.392  1.00  0.00     0.274 C 
BRANCH  29  30
HETATM   30  C   UNL     1       7.847  24.271  53.261  1.00  0.00    -0.030 A 
HETATM   31  C   UNL     1       8.055  24.529  54.622  1.00  0.00     0.048 A 
HETATM   32  C   UNL     1       8.512  23.527  55.477  1.00  0.00     0.102 A 
HETATM   33  C   UNL     1       8.803  22.246  54.988  1.00  0.00     0.101 A 
HETATM   34  C   UNL     1       8.662  22.005  53.619  1.00  0.00     0.040 A 
HETATM   35  C   UNL     1       8.184  23.007  52.761  1.00  0.00     0.012 A 
BRANCH  32  36
HETATM   36  O   UNL     1       8.523  23.834  56.815  1.00  0.00    -0.353 OA
HETATM   37  C   UNL     1       8.270  25.226  57.028  1.00  0.00     0.210 C 
ENDBRANCH  32  36
BRANCH  33  38
HETATM   38  O   UNL     1       9.161  21.302  55.911  1.00  0.00    -0.353 OA
HETATM   39  C   UNL     1       8.147  20.405  56.354  1.00  0.00     0.210 C 
ENDBRANCH  33  38
ENDBRANCH  29  30
ENDBRANCH   1  29
TORSDOF 8
ENDMDL
MODEL 2
REMARK VINA RESULT:      -9.4      3.502      6.481
REMARK  8 active torsions:
REMARK  status: ('A' for Active; 'I' for Inactive)
REMARK    1  A    between atoms: O_2  and  C_3 
REMARK    2  A    between atoms: C_4  and  O_5 
REMARK    3  A    between atoms: C_8  and  C_9 
REMARK    4  A    between atoms: C_9  and  N_10 
REMARK    5  A    between atoms: C_19  and  C_20 
REMARK    6  A    between atoms: C_20  and  N_21 
REMARK    7  A    between atoms: C_25  and  O_26 
REMARK    8  A    between atoms: C_25  and  C_27 
ROOT
HETATM    1  N   UNL     1       8.459  29.298  56.768  1.00  0.00    -0.061 N 
HETATM    2  H   UNL     1       7.929  29.038  55.929  1.00  0.00     0.280 HD
HETATM    3  C   UNL     1       7.780  30.564  57.256  1.00  0.00     0.276 C 
HETATM    4  C   UNL     1       8.257  31.093  58.580  1.00  0.00     0.002 A 
HETATM    5  C   UNL     1       9.584  31.490  58.747  1.00  0.00     0.076 A 
HETATM    6  O   UNL     1      10.467  31.446  57.706  1.00  0.00    -0.349 OA
HETATM    7  C   UNL     1      10.812  30.100  57.352  1.00  0.00     0.203 C 
HETATM    8  C   UNL     1       9.877  29.548  56.271  1.00  0.00     0.262 C 
HETATM    9  C   UNL     1       7.377  31.232  59.671  1.00  0.00     0.020 A 
HETATM   10  C   UNL     1       7.823  31.709  60.919  1.00  0.00    -0.032 A 
HETATM   11  C   UNL     1       9.160  32.110  61.046  1.00  0.00     0.011 A 
HETATM   12  C   UNL     1      10.030  32.019  59.956  1.00  0.00     0.038 A 
ENDROOT
BRANCH  10  13
HETATM   13  C   UNL     1       6.883  31.755  62.102  1.00  0.00     0.273 C 
BRANCH  13  14
HETATM   14  N   UNL     1       5.749  32.756  61.981  1.00  0.00    -0.067 N 
HETATM   15  H   UNL     1       5.439  32.740  61.000  1.00  0.00     0.280 HD
HETATM   16  C   UNL     1       4.558  32.386  62.836  1.00  0.00     0.238 C 
HETATM   17  C   UNL     1       3.471  33.437  62.695  1.00  0.00     0.071 C 
HETATM   18  C   UNL     1       3.963  34.834  63.122  1.00  0.00     0.089 C 
HETATM   19  C   UNL     1       5.140  35.172  62.184  1.00  0.00     0.071 C 
HETATM   20  C   UNL     1       6.264  34.152  62.268  1.00  0.00     0.238 C 
BRANCH  18  21
HETATM   21  O   UNL     1       2.915  35.747  62.797  1.00  0.00    -0.385 OA
HETATM   22  H   UNL     1       3.001  36.564  63.326  1.00  0.00     0.211 HD
ENDBRANCH  18  21
BRANCH  18  23
HETATM   23  C   UNL     1       4.254  34.946  64.615  1.00  0.00    -0.006 A 
HETATM   24  C   UNL     1       4.470  33.833  65.428  1.00  0.00     0.126 A 
HETATM   25  N   UNL     1       4.657  33.881  66.764  1.00  0.00    -0.272 NA
HETATM   26  C   UNL     1       4.719  35.097  67.339  1.00  0.00     0.116 A 
HETATM   27  C   UNL     1       4.588  36.273  66.628  1.00  0.00     0.020 A 
HETATM   28  C   UNL     1       4.361  36.192  65.254  1.00  0.00     0.013 A 
ENDBRANCH  18  23
ENDBRANCH  13  14
ENDBRANCH  10  13
BRANCH   1  29
HETATM   29  C   UNL     1       8.350  28.086  57.675  1.00  0.00     0.274 C 
BRANCH  29  30
HETATM   30  C   UNL     1       7.920  26.831  56.966  1.00  0.00    -0.030 A 
HETATM   31  C   UNL     1       7.108  26.918  55.828  1.00  0.00     0.048 A 
HETATM   32  C   UNL     1       6.819  25.783  55.069  1.00  0.00     0.102 A 
HETATM   33  C   UNL     1       7.310  24.526  55.446  1.00  0.00     0.101 A 
HETATM   34  C   UNL     1       8.064  24.426  56.618  1.00  0.00     0.040 A 
HETATM   35  C   UNL     1       8.371  25.568  57.372  1.00  0.00     0.012 A 
BRANCH  32  36
HETATM   36  O   UNL     1       6.157  26.002  53.887  1.00  0.00    -0.353 OA
HETATM   37  C   UNL     1       5.174  27.032  54.027  1.00  0.00     0.210 C 
ENDBRANCH  32  36
BRANCH  33  38
HETATM   38  O   UNL     1       7.052  23.485  54.596  1.00  0.00    -0.353 OA
HETATM   39  C   UNL     1       7.643  22.227  54.907  1.00  0.00     0.210 C 
ENDBRANCH  33  38
ENDBRANCH  29  30
ENDBRANCH   1  29
TORSDOF 8
ENDMDL
MODEL 3
REMARK VINA RESULT:      -9.2      3.090      8.723
REMARK  8 active torsions:
REMARK  status: ('A' for Active; 'I' for Inactive)
REMARK    1  A    between atoms: O_2  and  C_3 
REMARK    2  A    between atoms: C_4  and  O_5 
REMARK    3  A    between atoms: C_8  and  C_9 
REMARK    4  A    between atoms: C_9  and  N_10 
REMARK    5  A    between atoms: C_19  and  C_20 
REMARK    6  A    between atoms: C_20  and  N_21 
REMARK    7  A    between atoms: C_25  and  O_26 
REMARK    8  A    between atoms: C_25  and  C_27 
ROOT
HETATM    1  N   UNL     1       8.114  27.480  56.661  1.00  0.00    -0.061 N 
HETATM    2  H   UNL     1       9.063  27.090  56.690  1.00  0.00     0.280 HD
HETATM    3  C   UNL     1       8.008  28.089  55.276  1.00  0.00     0.276 C 
HETATM    4  C   UNL     1       6.649  28.607  54.891  1.00  0.00     0.002 A 
HETATM    5  C   UNL     1       6.052  29.636  55.619  1.00  0.00     0.076 A 
HETATM    6  O   UNL     1       6.701  30.224  56.667  1.00  0.00    -0.349 OA
HETATM    7  C   UNL     1       6.796  29.348  57.799  1.00  0.00     0.203 C 
HETATM    8  C   UNL     1       8.090  28.529  57.765  1.00  0.00     0.262 C 
HETATM    9  C   UNL     1       5.960  28.093  53.775  1.00  0.00     0.020 A 
HETATM   10  C   UNL     1       4.680  28.560  53.423  1.00  0.00    -0.032 A 
HETATM   11  C   UNL     1       4.117  29.604  54.169  1.00  0.00     0.011 A 
HETATM   12  C   UNL     1       4.812  30.153  55.250  1.00  0.00     0.038 A 
ENDROOT
BRANCH  10  13
HETATM   13  C   UNL     1       3.919  27.924  52.282  1.00  0.00     0.273 C 
BRANCH  13  14
HETATM   14  N   UNL     1       4.704  27.776  50.991  1.00  0.00    -0.067 N 
HETATM   15  H   UNL     1       5.678  27.575  51.256  1.00  0.00     0.280 HD
HETATM   16  C   UNL     1       4.217  26.620  50.149  1.00  0.00     0.238 C 
HETATM   17  C   UNL     1       5.020  26.541  48.861  1.00  0.00     0.071 C 
HETATM   18  C   UNL     1       4.903  27.834  48.031  1.00  0.00     0.089 C 
HETATM   19  C   UNL     1       5.458  28.962  48.924  1.00  0.00     0.071 C 
HETATM   20  C   UNL     1       4.704  29.090  50.238  1.00  0.00     0.238 C 
BRANCH  18  21
HETATM   21  O   UNL     1       5.815  27.697  46.941  1.00  0.00    -0.385 OA
HETATM   22  H   UNL     1       6.731  27.635  47.272  1.00  0.00     0.211 HD
ENDBRANCH  18  21
BRANCH  18  23
HETATM   23  C   UNL     1       3.507  28.068  47.463  1.00  0.00    -0.006 A 
HETATM   24  C   UNL     1       3.063  29.320  47.038  1.00  0.00     0.126 A 
HETATM   25  N   UNL     1       1.815  29.587  46.599  1.00  0.00    -0.272 NA
HETATM   26  C   UNL     1       0.961  28.552  46.489  1.00  0.00     0.116 A 
HETATM   27  C   UNL     1       1.306  27.255  46.815  1.00  0.00     0.020 A 
HETATM   28  C   UNL     1       2.591  27.015  47.298  1.00  0.00     0.013 A 
ENDBRANCH  18  23
ENDBRANCH  13  14
ENDBRANCH  10  13
BRANCH   1  29
HETATM   29  C   UNL     1       7.209  26.295  56.944  1.00  0.00     0.274 C 
BRANCH  29  30
HETATM   30  C   UNL     1       7.576  25.052  56.180  1.00  0.00    -0.030 A 
HETATM   31  C   UNL     1       6.947  24.774  54.960  1.00  0.00     0.048 A 
HETATM   32  C   UNL     1       7.373  23.711  54.163  1.00  0.00     0.102 A 
HETATM   33  C   UNL     1       8.421  22.878  54.581  1.00  0.00     0.101 A 
HETATM   34  C   UNL     1       9.004  23.112  55.829  1.00  0.00     0.040 A 
HETATM   35  C   UNL     1       8.589  24.192  56.622  1.00  0.00     0.012 A 
BRANCH  32  36
HETATM   36  O   UNL     1       6.805  23.626  52.917  1.00  0.00    -0.353 OA
HETATM   37  C   UNL     1       5.710  24.538  52.785  1.00  0.00     0.210 C 
ENDBRANCH  32  36
BRANCH  33  38
HETATM   38  O   UNL     1       8.831  21.917  53.698  1.00  0.00    -0.353 OA
HETATM   39  C   UNL     1       8.351  20.593  53.907  1.00  0.00     0.210 C 
ENDBRANCH  33  38
ENDBRANCH  29  30
ENDBRANCH   1  29
TORSDOF 8
ENDMDL
MODEL 4
REMARK VINA RESULT:      -9.1      2.901      9.633
REMARK  8 active torsions:
REMARK  status: ('A' for Active; 'I' for Inactive)
REMARK    1  A    between atoms: O_2  and  C_3 
REMARK    2  A    between atoms: C_4  and  O_5 
REMARK    3  A    between atoms: C_8  and  C_9 
REMARK    4  A    between atoms: C_9  and  N_10 
REMARK    5  A    between atoms: C_19  and  C_20 
REMARK    6  A    between atoms: C_20  and  N_21 
REMARK    7  A    between atoms: C_25  and  O_26 
REMARK    8  A    between atoms: C_25  and  C_27 
ROOT
HETATM    1  N   UNL     1       7.599  25.700  57.319  1.00  0.00    -0.061 N 
HETATM    2  H   UNL     1       7.423  25.944  58.300  1.00  0.00     0.280 HD
HETATM    3  C   UNL     1       6.219  25.413  56.757  1.00  0.00     0.276 C 
HETATM    4  C   UNL     1       6.153  25.175  55.274  1.00  0.00     0.002 A 
HETATM    5  C   UNL     1       6.840  24.106  54.698  1.00  0.00     0.076 A 
HETATM    6  O   UNL     1       7.551  23.231  55.468  1.00  0.00    -0.349 OA
HETATM    7  C   UNL     1       8.738  23.831  56.004  1.00  0.00     0.203 C 
HETATM    8  C   UNL     1       8.477  24.458  57.378  1.00  0.00     0.262 C 
HETATM    9  C   UNL     1       5.376  25.998  54.435  1.00  0.00     0.020 A 
HETATM   10  C   UNL     1       5.327  25.792  53.044  1.00  0.00    -0.032 A 
HETATM   11  C   UNL     1       6.020  24.700  52.502  1.00  0.00     0.011 A 
HETATM   12  C   UNL     1       6.756  23.850  53.331  1.00  0.00     0.038 A 
ENDROOT
BRANCH  10  13
HETATM   13  C   UNL     1       4.567  26.748  52.153  1.00  0.00     0.273 C 
BRANCH  13  14
HETATM   14  N   UNL     1       5.147  26.927  50.762  1.00  0.00    -0.067 N 
HETATM   15  H   UNL     1       6.107  26.558  50.789  1.00  0.00     0.280 HD
HETATM   16  C   UNL     1       4.391  26.145  49.714  1.00  0.00     0.238 C 
HETATM   17  C   UNL     1       4.999  26.387  48.344  1.00  0.00     0.071 C 
HETATM   18  C   UNL     1       4.966  27.880  47.957  1.00  0.00     0.089 C 
HETATM   19  C   UNL     1       5.793  28.613  49.033  1.00  0.00     0.071 C 
HETATM   20  C   UNL     1       5.242  28.404  50.434  1.00  0.00     0.238 C 
BRANCH  18  21
HETATM   21  O   UNL     1       5.699  27.996  46.737  1.00  0.00    -0.385 OA
HETATM   22  H   UNL     1       5.120  28.330  46.025  1.00  0.00     0.211 HD
ENDBRANCH  18  21
BRANCH  18  23
HETATM   23  C   UNL     1       3.558  28.416  47.725  1.00  0.00    -0.006 A 
HETATM   24  C   UNL     1       3.218  29.756  47.919  1.00  0.00     0.126 A 
HETATM   25  N   UNL     1       1.971  30.259  47.797  1.00  0.00    -0.272 NA
HETATM   26  C   UNL     1       1.002  29.423  47.382  1.00  0.00     0.116 A 
HETATM   27  C   UNL     1       1.230  28.092  47.093  1.00  0.00     0.020 A 
HETATM   28  C   UNL     1       2.521  27.591  47.261  1.00  0.00     0.013 A 
ENDBRANCH  18  23
ENDBRANCH  13  14
ENDBRANCH  10  13
BRANCH   1  29
HETATM   29  C   UNL     1       8.315  26.911  56.750  1.00  0.00     0.274 C 
BRANCH  29  30
HETATM   30  C   UNL     1       7.843  28.221  57.319  1.00  0.00    -0.030 A 
HETATM   31  C   UNL     1       8.776  29.143  57.811  1.00  0.00     0.048 A 
HETATM   32  C   UNL     1       8.378  30.421  58.204  1.00  0.00     0.102 A 
HETATM   33  C   UNL     1       7.030  30.801  58.145  1.00  0.00     0.101 A 
HETATM   34  C   UNL     1       6.088  29.860  57.719  1.00  0.00     0.040 A 
HETATM   35  C   UNL     1       6.490  28.582  57.305  1.00  0.00     0.012 A 
BRANCH  32  36
HETATM   36  O   UNL     1       9.387  31.299  58.511  1.00  0.00    -0.353 OA
HETATM   37  C   UNL     1      10.574  31.003  57.769  1.00  0.00     0.210 C 
ENDBRANCH  32  36
BRANCH  33  38
HETATM   38  O   UNL     1       6.742  32.099  58.466  1.00  0.00    -0.353 OA
HETATM   39  C   UNL     1       6.222  32.349  59.767  1.00  0.00     0.210 C 
ENDBRANCH  33  38
ENDBRANCH  29  30
ENDBRANCH   1  29
TORSDOF 8
ENDMDL
MODEL 5
REMARK VINA RESULT:      -9.0      1.180      4.827
REMARK  8 active torsions:
REMARK  status: ('A' for Active; 'I' for Inactive)
REMARK    1  A    between atoms: O_2  and  C_3 
REMARK    2  A    between atoms: C_4  and  O_5 
REMARK    3  A    between atoms: C_8  and  C_9 
REMARK    4  A    between atoms: C_9  and  N_10 
REMARK    5  A    between atoms: C_19  and  C_20 
REMARK    6  A    between atoms: C_20  and  N_21 
REMARK    7  A    between atoms: C_25  and  O_26 
REMARK    8  A    between atoms: C_25  and  C_27 
ROOT
HETATM    1  N   UNL     1       7.190  24.319  52.608  1.00  0.00    -0.061 N 
HETATM    2  H   UNL     1       7.414  24.500  51.623  1.00  0.00     0.280 HD
HETATM    3  C   UNL     1       7.951  25.393  53.363  1.00  0.00     0.276 C 
HETATM    4  C   UNL     1       7.683  25.469  54.840  1.00  0.00     0.002 A 
HETATM    5  C   UNL     1       7.974  24.384  55.669  1.00  0.00     0.076 A 
HETATM    6  O   UNL     1       8.544  23.249  55.167  1.00  0.00    -0.349 OA
HETATM    7  C   UNL     1       7.630  22.505  54.351  1.00  0.00     0.203 C 
HETATM    8  C   UNL     1       7.728  22.920  52.880  1.00  0.00     0.262 C 
HETATM    9  C   UNL     1       7.165  26.638  55.430  1.00  0.00     0.020 A 
HETATM   10  C   UNL     1       6.893  26.707  56.809  1.00  0.00    -0.032 A 
HETATM   11  C   UNL     1       7.210  25.603  57.613  1.00  0.00     0.011 A 
HETATM   12  C   UNL     1       7.768  24.455  57.045  1.00  0.00     0.038 A 
ENDROOT
BRANCH  10  13
HETATM   13  C   UNL     1       6.245  27.937  57.402  1.00  0.00     0.273 C 
BRANCH  13  14
HETATM   14  N   UNL     1       7.115  29.180  57.411  1.00  0.00    -0.067 N 
HETATM   15  H   UNL     1       7.331  29.401  56.430  1.00  0.00     0.280 HD
HETATM   16  C   UNL     1       6.405  30.379  57.997  1.00  0.00     0.238 C 
HETATM   17  C   UNL     1       7.334  31.581  58.004  1.00  0.00     0.071 C 
HETATM   18  C   UNL     1       8.609  31.316  58.830  1.00  0.00     0.089 C 
HETATM   19  C   UNL     1       9.309  30.119  58.156  1.00  0.00     0.071 C 
HETATM   20  C   UNL     1       8.428  28.881  58.105  1.00  0.00     0.238 C 
BRANCH  18  21
HETATM   21  O   UNL     1       9.459  32.445  58.632  1.00  0.00    -0.385 OA
HETATM   22  H   UNL     1       9.649  32.882  59.484  1.00  0.00     0.211 HD
ENDBRANCH  18  21
BRANCH  18  23
HETATM   23  C   UNL     1       8.345  31.170  60.325  1.00  0.00    -0.006 A 
HETATM   24  C   UNL     1       7.188  31.653  60.939  1.00  0.00     0.126 A 
HETATM   25  N   UNL     1       6.946  31.611  62.266  1.00  0.00    -0.272 NA
HETATM   26  C   UNL     1       7.852  30.989  63.044  1.00  0.00     0.116 A 
HETATM   27  C   UNL     1       9.003  30.413  62.543  1.00  0.00     0.020 A 
HETATM   28  C   UNL     1       9.243  30.501  61.172  1.00  0.00     0.013 A 
ENDBRANCH  18  23
ENDBRANCH  13  14
ENDBRANCH  10  13
BRANCH   1  29
HETATM   29  C   UNL     1       5.676  24.399  52.673  1.00  0.00     0.274 C 
BRANCH  29  30
HETATM   30  C   UNL     1       5.108  25.669  52.099  1.00  0.00    -0.030 A 
HETATM   31  C   UNL     1       4.481  26.594  52.943  1.00  0.00     0.048 A 
HETATM   32  C   UNL     1       4.081  27.841  52.463  1.00  0.00     0.102 A 
HETATM   33  C   UNL     1       4.269  28.184  51.117  1.00  0.00     0.101 A 
HETATM   34  C   UNL     1       4.831  27.237  50.258  1.00  0.00     0.040 A 
HETATM   35  C   UNL     1       5.253  25.990  50.743  1.00  0.00     0.012 A 
BRANCH  32  36
HETATM   36  O   UNL     1       3.631  28.734  53.404  1.00  0.00    -0.353 OA
HETATM   37  C   UNL     1       4.654  29.040  54.357  1.00  0.00     0.210 C 
ENDBRANCH  32  36
BRANCH  33  38
HETATM   38  O   UNL     1       3.927  29.458  50.754  1.00  0.00    -0.353 OA
HETATM   39  C   UNL     1       3.348  29.635  49.465  1.00  0.00     0.210 C 
ENDBRANCH  33  38
ENDBRANCH  29  30
ENDBRANCH   1  29
TORSDOF 8
ENDMDL
MODEL 6
REMARK VINA RESULT:      -8.8      4.008      8.237
REMARK  8 active torsions:
REMARK  status: ('A' for Active; 'I' for Inactive)
REMARK    1  A    between atoms: O_2  and  C_3 
REMARK    2  A    between atoms: C_4  and  O_5 
REMARK    3  A    between atoms: C_8  and  C_9 
REMARK    4  A    between atoms: C_9  and  N_10 
REMARK    5  A    between atoms: C_19  and  C_20 
REMARK    6  A    between atoms: C_20  and  N_21 
REMARK    7  A    between atoms: C_25  and  O_26 
REMARK    8  A    between atoms: C_25  and  C_27 
ROOT
HETATM    1  N   UNL     1       4.155  31.318  50.546  1.00  0.00    -0.061 N 
HETATM    2  H   UNL     1       4.595  32.124  51.005  1.00  0.00     0.280 HD
HETATM    3  C   UNL     1       5.298  30.344  50.335  1.00  0.00     0.276 C 
HETATM    4  C   UNL     1       4.914  28.988  49.811  1.00  0.00     0.002 A 
HETATM    5  C   UNL     1       4.297  28.860  48.566  1.00  0.00     0.076 A 
HETATM    6  O   UNL     1       4.066  29.952  47.780  1.00  0.00    -0.349 OA
HETATM    7  C   UNL     1       3.032  30.789  48.314  1.00  0.00     0.203 C 
HETATM    8  C   UNL     1       3.606  31.869  49.236  1.00  0.00     0.262 C 
HETATM    9  C   UNL     1       5.192  27.816  50.541  1.00  0.00     0.020 A 
HETATM   10  C   UNL     1       4.816  26.546  50.064  1.00  0.00    -0.032 A 
HETATM   11  C   UNL     1       4.210  26.455  48.803  1.00  0.00     0.011 A 
HETATM   12  C   UNL     1       3.971  27.607  48.050  1.00  0.00     0.038 A 
ENDROOT
BRANCH  10  13
HETATM   13  C   UNL     1       5.036  25.313  50.910  1.00  0.00     0.273 C 
BRANCH  13  14
HETATM   14  N   UNL     1       5.756  25.557  52.224  1.00  0.00    -0.067 N 
HETATM   15  H   UNL     1       5.648  26.556  52.443  1.00  0.00     0.280 HD
HETATM   16  C   UNL     1       5.152  24.776  53.368  1.00  0.00     0.238 C 
HETATM   17  C   UNL     1       5.932  25.038  54.645  1.00  0.00     0.071 C 
HETATM   18  C   UNL     1       7.413  24.635  54.506  1.00  0.00     0.089 C 
HETATM   19  C   UNL     1       7.981  25.498  53.361  1.00  0.00     0.071 C 
HETATM   20  C   UNL     1       7.238  25.291  52.052  1.00  0.00     0.238 C 
BRANCH  18  21
HETATM   21  O   UNL     1       8.063  25.071  55.700  1.00  0.00    -0.385 OA
HETATM   22  H   UNL     1       8.723  24.412  55.987  1.00  0.00     0.211 HD
ENDBRANCH  18  21
BRANCH  18  23
HETATM   23  C   UNL     1       7.624  23.131  54.367  1.00  0.00    -0.006 A 
HETATM   24  C   UNL     1       7.432  22.240  55.423  1.00  0.00     0.126 A 
HETATM   25  N   UNL     1       7.676  20.913  55.366  1.00  0.00    -0.272 NA
HETATM   26  C   UNL     1       8.057  20.403  54.179  1.00  0.00     0.116 A 
HETATM   27  C   UNL     1       8.215  21.174  53.045  1.00  0.00     0.020 A 
HETATM   28  C   UNL     1       7.989  22.547  53.143  1.00  0.00     0.013 A 
ENDBRANCH  18  23
ENDBRANCH  13  14
ENDBRANCH  10  13
BRANCH   1  29
HETATM   29  C   UNL     1       3.069  30.880  51.510  1.00  0.00     0.274 C 
BRANCH  29  30
HETATM   30  C   UNL     1       3.589  30.406  52.840  1.00  0.00    -0.030 A 
HETATM   31  C   UNL     1       4.041  31.338  53.782  1.00  0.00     0.048 A 
HETATM   32  C   UNL     1       4.387  30.937  55.073  1.00  0.00     0.102 A 
HETATM   33  C   UNL     1       4.320  29.588  55.447  1.00  0.00     0.101 A 
HETATM   34  C   UNL     1       3.934  28.647  54.487  1.00  0.00     0.040 A 
HETATM   35  C   UNL     1       3.567  29.051  53.195  1.00  0.00     0.012 A 
BRANCH  32  36
HETATM   36  O   UNL     1       4.656  31.945  55.965  1.00  0.00    -0.353 OA
HETATM   37  C   UNL     1       4.892  33.184  55.290  1.00  0.00     0.210 C 
ENDBRANCH  32  36
BRANCH  33  38
HETATM   38  O   UNL     1       4.592  29.297  56.755  1.00  0.00    -0.353 OA
HETATM   39  C   UNL     1       5.392  28.148  57.015  1.00  0.00     0.210 C 
ENDBRANCH  33  38
ENDBRANCH  29  30
ENDBRANCH   1  29
TORSDOF 8
ENDMDL
MODEL 7
REMARK VINA RESULT:      -8.8      2.544      8.808
REMARK  8 active torsions:
REMARK  status: ('A' for Active; 'I' for Inactive)
REMARK    1  A    between atoms: O_2  and  C_3 
REMARK    2  A    between atoms: C_4  and  O_5 
REMARK    3  A    between atoms: C_8  and  C_9 
REMARK    4  A    between atoms: C_9  and  N_10 
REMARK    5  A    between atoms: C_19  and  C_20 
REMARK    6  A    between atoms: C_20  and  N_21 
REMARK    7  A    between atoms: C_25  and  O_26 
REMARK    8  A    between atoms: C_25  and  C_27 
ROOT
HETATM    1  N   UNL     1       7.634  25.823  57.548  1.00  0.00    -0.061 N 
HETATM    2  H   UNL     1       7.387  26.175  58.480  1.00  0.00     0.280 HD
HETATM    3  C   UNL     1       6.341  25.223  57.026  1.00  0.00     0.276 C 
HETATM    4  C   UNL     1       6.366  24.761  55.596  1.00  0.00     0.002 A 
HETATM    5  C   UNL     1       7.242  23.753  55.193  1.00  0.00     0.076 A 
HETATM    6  O   UNL     1       8.065  23.136  56.091  1.00  0.00    -0.349 OA
HETATM    7  C   UNL     1       9.115  24.003  56.540  1.00  0.00     0.203 C 
HETATM    8  C   UNL     1       8.706  24.772  57.801  1.00  0.00     0.262 C 
HETATM    9  C   UNL     1       5.490  25.305  54.636  1.00  0.00     0.020 A 
HETATM   10  C   UNL     1       5.522  24.890  53.292  1.00  0.00    -0.032 A 
HETATM   11  C   UNL     1       6.407  23.866  52.926  1.00  0.00     0.011 A 
HETATM   12  C   UNL     1       7.248  23.287  53.880  1.00  0.00     0.038 A 
ENDROOT
BRANCH  10  13
HETATM   13  C   UNL     1       4.642  25.559  52.261  1.00  0.00     0.273 C 
BRANCH  13  14
HETATM   14  N   UNL     1       5.293  26.706  51.509  1.00  0.00    -0.067 N 
HETATM   15  H   UNL     1       6.306  26.525  51.506  1.00  0.00     0.280 HD
HETATM   16  C   UNL     1       4.844  26.781  50.068  1.00  0.00     0.238 C 
HETATM   17  C   UNL     1       5.505  27.961  49.378  1.00  0.00     0.071 C 
HETATM   18  C   UNL     1       5.160  29.296  50.067  1.00  0.00     0.089 C 
HETATM   19  C   UNL     1       5.685  29.174  51.512  1.00  0.00     0.071 C 
HETATM   20  C   UNL     1       5.069  28.003  52.259  1.00  0.00     0.238 C 
BRANCH  18  21
HETATM   21  O   UNL     1       5.956  30.296  49.431  1.00  0.00    -0.385 OA
HETATM   22  H   UNL     1       6.111  31.044  50.039  1.00  0.00     0.211 HD
ENDBRANCH  18  21
BRANCH  18  23
HETATM   23  C   UNL     1       3.693  29.690  49.928  1.00  0.00    -0.006 A 
HETATM   24  C   UNL     1       3.076  30.615  50.771  1.00  0.00     0.126 A 
HETATM   25  N   UNL     1       1.765  30.938  50.732  1.00  0.00    -0.272 NA
HETATM   26  C   UNL     1       1.019  30.387  49.757  1.00  0.00     0.116 A 
HETATM   27  C   UNL     1       1.533  29.511  48.821  1.00  0.00     0.020 A 
HETATM   28  C   UNL     1       2.882  29.168  48.907  1.00  0.00     0.013 A 
ENDBRANCH  18  23
ENDBRANCH  13  14
ENDBRANCH  10  13
BRANCH   1  29
HETATM   29  C   UNL     1       8.155  27.041  56.809  1.00  0.00     0.274 C 
BRANCH  29  30
HETATM   30  C   UNL     1       7.657  28.349  57.362  1.00  0.00    -0.030 A 
HETATM   31  C   UNL     1       8.547  29.214  58.009  1.00  0.00     0.048 A 
HETATM   32  C   UNL     1       8.145  30.493  58.397  1.00  0.00     0.102 A 
HETATM   33  C   UNL     1       6.831  30.928  58.175  1.00  0.00     0.101 A 
HETATM   34  C   UNL     1       5.923  30.041  57.592  1.00  0.00     0.040 A 
HETATM   35  C   UNL     1       6.331  28.763  57.183  1.00  0.00     0.012 A 
BRANCH  32  36
HETATM   36  O   UNL     1       9.134  31.319  58.870  1.00  0.00    -0.353 OA
HETATM   37  C   UNL     1      10.298  31.260  58.039  1.00  0.00     0.210 C 
ENDBRANCH  32  36
BRANCH  33  38
HETATM   38  O   UNL     1       6.549  32.225  58.507  1.00  0.00    -0.353 OA
HETATM   39  C   UNL     1       5.874  32.450  59.740  1.00  0.00     0.210 C 
ENDBRANCH  33  38
ENDBRANCH  29  30
ENDBRANCH   1  29
TORSDOF 8
ENDMDL
MODEL 8
REMARK VINA RESULT:      -8.7      3.342      9.984
REMARK  8 active torsions:
REMARK  status: ('A' for Active; 'I' for Inactive)
REMARK    1  A    between atoms: O_2  and  C_3 
REMARK    2  A    between atoms: C_4  and  O_5 
REMARK    3  A    between atoms: C_8  and  C_9 
REMARK    4  A    between atoms: C_9  and  N_10 
REMARK    5  A    between atoms: C_19  and  C_20 
REMARK    6  A    between atoms: C_20  and  N_21 
REMARK    7  A    between atoms: C_25  and  O_26 
REMARK    8  A    between atoms: C_25  and  C_27 
ROOT
HETATM    1  N   UNL     1       6.923  27.009  57.050  1.00  0.00    -0.061 N 
HETATM    2  H   UNL     1       6.805  27.456  57.966  1.00  0.00     0.280 HD
HETATM    3  C   UNL     1       5.552  27.114  56.409  1.00  0.00     0.276 C 
HETATM    4  C   UNL     1       5.464  26.670  54.975  1.00  0.00     0.002 A 
HETATM    5  C   UNL     1       5.760  25.352  54.623  1.00  0.00     0.076 A 
HETATM    6  O   UNL     1       6.093  24.429  55.572  1.00  0.00    -0.349 OA
HETATM    7  C   UNL     1       7.393  24.675  56.126  1.00  0.00     0.203 C 
HETATM    8  C   UNL     1       7.313  25.571  57.366  1.00  0.00     0.262 C 
HETATM    9  C   UNL     1       5.054  27.555  53.960  1.00  0.00     0.020 A 
HETATM   10  C   UNL     1       4.990  27.150  52.613  1.00  0.00    -0.032 A 
HETATM   11  C   UNL     1       5.281  25.816  52.298  1.00  0.00     0.011 A 
HETATM   12  C   UNL     1       5.644  24.917  53.305  1.00  0.00     0.038 A 
ENDROOT
BRANCH  10  13
HETATM   13  C   UNL     1       4.643  28.145  51.529  1.00  0.00     0.273 C 
BRANCH  13  14
HETATM   14  N   UNL     1       3.847  27.578  50.368  1.00  0.00    -0.067 N 
HETATM   15  H   UNL     1       3.530  26.641  50.653  1.00  0.00     0.280 HD
HETATM   16  C   UNL     1       2.615  28.395  50.057  1.00  0.00     0.238 C 
HETATM   17  C   UNL     1       1.878  27.796  48.872  1.00  0.00     0.071 C 
HETATM   18  C   UNL     1       2.764  27.747  47.610  1.00  0.00     0.089 C 
HETATM   19  C   UNL     1       3.972  26.862  47.976  1.00  0.00     0.071 C 
HETATM   20  C   UNL     1       4.751  27.401  49.165  1.00  0.00     0.238 C 
BRANCH  18  21
HETATM   21  O   UNL     1       2.021  27.028  46.625  1.00  0.00    -0.385 OA
HETATM   22  H   UNL     1       1.331  27.600  46.237  1.00  0.00     0.211 HD
ENDBRANCH  18  21
BRANCH  18  23
HETATM   23  C   UNL     1       3.099  29.125  47.049  1.00  0.00    -0.006 A 
HETATM   24  C   UNL     1       2.133  29.981  46.520  1.00  0.00     0.126 A 
HETATM   25  N   UNL     1       2.393  31.175  45.947  1.00  0.00    -0.272 NA
HETATM   26  C   UNL     1       3.669  31.605  45.960  1.00  0.00     0.116 A 
HETATM   27  C   UNL     1       4.702  30.877  46.517  1.00  0.00     0.020 A 
HETATM   28  C   UNL     1       4.409  29.631  47.070  1.00  0.00     0.013 A 
ENDBRANCH  18  23
ENDBRANCH  13  14
ENDBRANCH  10  13
BRANCH   1  29
HETATM   29  C   UNL     1       8.037  27.796  56.384  1.00  0.00     0.274 C 
BRANCH  29  30
HETATM   30  C   UNL     1       8.384  29.077  57.092  1.00  0.00    -0.030 A 
HETATM   31  C   UNL     1       7.373  29.839  57.690  1.00  0.00     0.048 A 
HETATM   32  C   UNL     1       7.685  30.948  58.476  1.00  0.00     0.102 A 
HETATM   33  C   UNL     1       9.017  31.343  58.661  1.00  0.00     0.101 A 
HETATM   34  C   UNL     1      10.023  30.625  58.010  1.00  0.00     0.040 A 
HETATM   35  C   UNL     1       9.713  29.499  57.234  1.00  0.00     0.012 A 
BRANCH  32  36
HETATM   36  O   UNL     1       6.636  31.523  59.150  1.00  0.00    -0.353 OA
HETATM   37  C   UNL     1       5.683  32.084  58.242  1.00  0.00     0.210 C 
ENDBRANCH  32  36
BRANCH  33  38
HETATM   38  O   UNL     1       9.235  32.387  59.518  1.00  0.00    -0.353 OA
HETATM   39  C   UNL     1       9.663  32.068  60.838  1.00  0.00     0.210 C 
ENDBRANCH  33  38
ENDBRANCH  29  30
ENDBRANCH   1  29
TORSDOF 8
ENDMDL
MODEL 9
REMARK VINA RESULT:      -8.5      2.760      9.170
REMARK  8 active torsions:
REMARK  status: ('A' for Active; 'I' for Inactive)
REMARK    1  A    between atoms: O_2  and  C_3 
REMARK    2  A    between atoms: C_4  and  O_5 
REMARK    3  A    between atoms: C_8  and  C_9 
REMARK    4  A    between atoms: C_9  and  N_10 
REMARK    5  A    between atoms: C_19  and  C_20 
REMARK    6  A    between atoms: C_20  and  N_21 
REMARK    7  A    between atoms: C_25  and  O_26 
REMARK    8  A    between atoms: C_25  and  C_27 
ROOT
HETATM    1  N   UNL     1       7.219  26.817  57.175  1.00  0.00    -0.061 N 
HETATM    2  H   UNL     1       6.934  27.372  57.989  1.00  0.00     0.280 HD
HETATM    3  C   UNL     1       5.908  26.407  56.531  1.00  0.00     0.276 C 
HETATM    4  C   UNL     1       6.021  25.702  55.208  1.00  0.00     0.002 A 
HETATM    5  C   UNL     1       6.692  24.482  55.112  1.00  0.00     0.076 A 
HETATM    6  O   UNL     1       7.223  23.883  56.218  1.00  0.00    -0.349 OA
HETATM    7  C   UNL     1       8.372  24.586  56.709  1.00  0.00     0.203 C 
HETATM    8  C   UNL     1       7.980  25.634  57.757  1.00  0.00     0.262 C 
HETATM    9  C   UNL     1       5.431  26.231  54.044  1.00  0.00     0.020 A 
HETATM   10  C   UNL     1       5.551  25.585  52.799  1.00  0.00    -0.032 A 
HETATM   11  C   UNL     1       6.221  24.355  52.743  1.00  0.00     0.011 A 
HETATM   12  C   UNL     1       6.770  23.798  53.901  1.00  0.00     0.038 A 
ENDROOT
BRANCH  10  13
HETATM   13  C   UNL     1       4.994  26.223  51.547  1.00  0.00     0.273 C 
BRANCH  13  14
HETATM   14  N   UNL     1       5.059  27.739  51.516  1.00  0.00    -0.067 N 
HETATM   15  H   UNL     1       5.681  28.027  52.283  1.00  0.00     0.280 HD
HETATM   16  C   UNL     1       5.652  28.267  50.231  1.00  0.00     0.238 C 
HETATM   17  C   UNL     1       5.663  29.786  50.248  1.00  0.00     0.071 C 
HETATM   18  C   UNL     1       4.244  30.368  50.407  1.00  0.00     0.089 C 
HETATM   19  C   UNL     1       3.717  29.835  51.754  1.00  0.00     0.071 C 
HETATM   20  C   UNL     1       3.688  28.316  51.809  1.00  0.00     0.238 C 
BRANCH  18  21
HETATM   21  O   UNL     1       4.404  31.778  50.567  1.00  0.00    -0.385 OA
HETATM   22  H   UNL     1       3.922  32.087  51.358  1.00  0.00     0.211 HD
ENDBRANCH  18  21
BRANCH  18  23
HETATM   23  C   UNL     1       3.346  30.120  49.200  1.00  0.00    -0.006 A 
HETATM   24  C   UNL     1       2.001  29.770  49.319  1.00  0.00     0.126 A 
HETATM   25  N   UNL     1       1.189  29.469  48.282  1.00  0.00    -0.272 NA
HETATM   26  C   UNL     1       1.695  29.594  47.041  1.00  0.00     0.116 A 
HETATM   27  C   UNL     1       2.992  29.998  46.795  1.00  0.00     0.020 A 
HETATM   28  C   UNL     1       3.818  30.269  47.885  1.00  0.00     0.013 A 
ENDBRANCH  18  23
ENDBRANCH  13  14
ENDBRANCH  10  13
BRANCH   1  29
HETATM   29  C   UNL     1       8.099  27.753  56.367  1.00  0.00     0.274 C 
BRANCH  29  30
HETATM   30  C   UNL     1       8.419  29.045  57.069  1.00  0.00    -0.030 A 
HETATM   31  C   UNL     1       7.389  29.796  57.649  1.00  0.00     0.048 A 
HETATM   32  C   UNL     1       7.675  30.916  58.430  1.00  0.00     0.102 A 
HETATM   33  C   UNL     1       8.998  31.333  58.627  1.00  0.00     0.101 A 
HETATM   34  C   UNL     1      10.023  30.626  57.992  1.00  0.00     0.040 A 
HETATM   35  C   UNL     1       9.739  29.488  57.223  1.00  0.00     0.012 A 
BRANCH  32  36
HETATM   36  O   UNL     1       6.610  31.480  59.087  1.00  0.00    -0.353 OA
HETATM   37  C   UNL     1       5.724  32.133  58.172  1.00  0.00     0.210 C 
ENDBRANCH  32  36
BRANCH  33  38
HETATM   38  O   UNL     1       9.191  32.387  59.477  1.00  0.00    -0.353 OA
HETATM   39  C   UNL     1       9.572  32.083  60.815  1.00  0.00     0.210 C 
ENDBRANCH  33  38
ENDBRANCH  29  30
ENDBRANCH   1  29
TORSDOF 8
ENDMDL
MODEL 10
REMARK VINA RESULT:      -8.1      3.372      8.680
REMARK  8 active torsions:
REMARK  status: ('A' for Active; 'I' for Inactive)
REMARK    1  A    between atoms: O_2  and  C_3 
REMARK    2  A    between atoms: C_4  and  O_5 
REMARK    3  A    between atoms: C_8  and  C_9 
REMARK    4  A    between atoms: C_9  and  N_10 
REMARK    5  A    between atoms: C_19  and  C_20 
REMARK    6  A    between atoms: C_20  and  N_21 
REMARK    7  A    between atoms: C_25  and  O_26 
REMARK    8  A    between atoms: C_25  and  C_27 
ROOT
HETATM    1  N   UNL     1       3.287  32.363  54.431  1.00  0.00    -0.061 N 
HETATM    2  H   UNL     1       2.453  32.705  53.940  1.00  0.00     0.280 HD
HETATM    3  C   UNL     1       2.772  31.215  55.278  1.00  0.00     0.276 C 
HETATM    4  C   UNL     1       3.819  30.414  56.001  1.00  0.00     0.002 A 
HETATM    5  C   UNL     1       4.645  31.020  56.948  1.00  0.00     0.076 A 
HETATM    6  O   UNL     1       4.496  32.338  57.271  1.00  0.00    -0.349 OA
HETATM    7  C   UNL     1       4.919  33.202  56.207  1.00  0.00     0.203 C 
HETATM    8  C   UNL     1       3.757  33.545  55.269  1.00  0.00     0.262 C 
HETATM    9  C   UNL     1       3.974  29.034  55.767  1.00  0.00     0.020 A 
HETATM   10  C   UNL     1       4.967  28.283  56.425  1.00  0.00    -0.032 A 
HETATM   11  C   UNL     1       5.770  28.923  57.380  1.00  0.00     0.011 A 
HETATM   12  C   UNL     1       5.593  30.282  57.653  1.00  0.00     0.038 A 
ENDROOT
BRANCH  10  13
HETATM   13  C   UNL     1       5.179  26.826  56.084  1.00  0.00     0.273 C 
BRANCH  13  14
HETATM   14  N   UNL     1       5.736  26.566  54.697  1.00  0.00    -0.067 N 
HETATM   15  H   UNL     1       5.409  27.334  54.095  1.00  0.00     0.280 HD
HETATM   16  C   UNL     1       7.247  26.582  54.668  1.00  0.00     0.238 C 
HETATM   17  C   UNL     1       7.743  26.288  53.263  1.00  0.00     0.071 C 
HETATM   18  C   UNL     1       7.259  24.914  52.758  1.00  0.00     0.089 C 
HETATM   19  C   UNL     1       5.718  24.980  52.765  1.00  0.00     0.071 C 
HETATM   20  C   UNL     1       5.154  25.281  54.143  1.00  0.00     0.238 C 
BRANCH  18  21
HETATM   21  O   UNL     1       7.653  24.826  51.389  1.00  0.00    -0.385 OA
HETATM   22  H   UNL     1       7.026  25.316  50.823  1.00  0.00     0.211 HD
ENDBRANCH  18  21
BRANCH  18  23
HETATM   23  C   UNL     1       7.873  23.739  53.512  1.00  0.00    -0.006 A 
HETATM   24  C   UNL     1       8.416  23.863  54.791  1.00  0.00     0.126 A 
HETATM   25  N   UNL     1       9.034  22.869  55.465  1.00  0.00    -0.272 NA
HETATM   26  C   UNL     1       9.059  21.652  54.891  1.00  0.00     0.116 A 
HETATM   27  C   UNL     1       8.495  21.391  53.657  1.00  0.00     0.020 A 
HETATM   28  C   UNL     1       7.893  22.443  52.970  1.00  0.00     0.013 A 
ENDBRANCH  18  23
ENDBRANCH  13  14
ENDBRANCH  10  13
BRANCH   1  29
HETATM   29  C   UNL     1       4.255  31.996  53.322  1.00  0.00     0.274 C 
BRANCH  29  30
HETATM   30  C   UNL     1       3.606  31.315  52.147  1.00  0.00    -0.030 A 
HETATM   31  C   UNL     1       4.120  30.100  51.676  1.00  0.00     0.048 A 
HETATM   32  C   UNL     1       3.450  29.377  50.688  1.00  0.00     0.102 A 
HETATM   33  C   UNL     1       2.264  29.866  50.123  1.00  0.00     0.101 A 
HETATM   34  C   UNL     1       1.787  31.111  50.543  1.00  0.00     0.040 A 
HETATM   35  C   UNL     1       2.449  31.829  51.549  1.00  0.00     0.012 A 
BRANCH  32  36
HETATM   36  O   UNL     1       3.944  28.126  50.418  1.00  0.00    -0.353 OA
HETATM   37  C   UNL     1       5.296  27.995  50.870  1.00  0.00     0.210 C 
ENDBRANCH  32  36
BRANCH  33  38
HETATM   38  O   UNL     1       1.629  29.052  49.226  1.00  0.00    -0.353 OA
HETATM   39  C   UNL     1       0.980  29.677  48.124  1.00  0.00     0.210 C 
ENDBRANCH  33  38
ENDBRANCH  29  30
ENDBRANCH   1  29
TORSDOF 8
ENDMDL
