MODEL 1
REMARK VINA RESULT:      -8.8      0.000      0.000
REMARK  2 active torsions:
REMARK  status: ('A' for Active; 'I' for Inactive)
REMARK    1  A    between atoms: C_11  and  N_12 
REMARK    2  A    between atoms: N_12  and  C_13 
ROOT
HETATM    1  C   UNL     1       8.653  20.120  54.736  1.00  0.00     0.045 A 
HETATM    2  C   UNL     1       8.303  20.674  53.513  1.00  0.00     0.117 A 
HETATM    3  F   UNL     1       8.489  19.966  52.391  1.00  0.00    -0.206 F 
HETATM    4  C   UNL     1       7.751  21.950  53.429  1.00  0.00     0.054 A 
HETATM    5  C   UNL     1       7.535  22.715  54.588  1.00  0.00     0.001 A 
HETATM    6  C   UNL     1       7.940  22.155  55.812  1.00  0.00     0.077 A 
HETATM    7  O   UNL     1       7.799  22.850  56.984  1.00  0.00    -0.351 OA
HETATM    8  C   UNL     1       8.747  23.920  57.051  1.00  0.00     0.175 C 
HETATM    9  C   UNL     1       8.152  25.214  56.508  1.00  0.00     0.029 C 
HETATM   10  C   UNL     1       7.875  25.180  55.001  1.00  0.00     0.032 C 
HETATM   11  C   UNL     1       6.874  24.083  54.580  1.00  0.00     0.118 C 
HETATM   12  C   UNL     1       8.467  20.865  55.897  1.00  0.00     0.040 A 
ENDROOT
BRANCH  11  13
HETATM   13  N   UNL     1       6.346  24.444  53.263  1.00  0.00    -0.378 N 
HETATM   14  H   UNL     1       6.245  23.643  52.643  1.00  0.00     0.160 HD
BRANCH  13  15
HETATM   15  C   UNL     1       5.621  25.572  52.873  1.00  0.00     0.075 A 
HETATM   16  C   UNL     1       5.018  26.558  53.566  1.00  0.00     0.131 A 
HETATM   17 CL   UNL     1       5.018  26.663  55.295  1.00  0.00    -0.076 Cl
HETATM   18  C   UNL     1       4.270  27.657  52.881  1.00  0.00     0.285 A 
HETATM   19  O   UNL     1       3.715  28.571  53.485  1.00  0.00    -0.265 OA
HETATM   20  N   UNL     1       4.224  27.593  51.513  1.00  0.00    -0.242 N 
HETATM   21  N   UNL     1       4.820  26.648  50.748  1.00  0.00    -0.182 NA
HETATM   22  H   UNL     1       3.717  28.327  51.028  1.00  0.00     0.192 HD
HETATM   23  C   UNL     1       5.464  25.728  51.389  1.00  0.00     0.169 A 
ENDBRANCH  13  15
ENDBRANCH  11  13
TORSDOF 2
ENDMDL
MODEL 2
REMARK VINA RESULT:      -8.8      3.354      6.194
REMARK  2 active torsions:
REMARK  status: ('A' for Active; 'I' for Inactive)
REMARK    1  A    between atoms: C_11  and  N_12 
REMARK    2  A    between atoms: N_12  and  C_13 
ROOT
HETATM    1  C   UNL     1       5.584  26.664  52.349  1.00  0.00     0.045 A 
HETATM    2  C   UNL     1       5.176  25.405  52.768  1.00  0.00     0.117 A 
HETATM    3  F   UNL     1       4.222  24.760  52.085  1.00  0.00    -0.206 F 
HETATM    4  C   UNL     1       5.747  24.794  53.882  1.00  0.00     0.054 A 
HETATM    5  C   UNL     1       6.757  25.441  54.615  1.00  0.00     0.001 A 
HETATM    6  C   UNL     1       7.122  26.734  54.203  1.00  0.00     0.077 A 
HETATM    7  O   UNL     1       8.071  27.448  54.886  1.00  0.00    -0.351 OA
HETATM    8  C   UNL     1       7.557  27.891  56.145  1.00  0.00     0.175 C 
HETATM    9  C   UNL     1       7.878  26.893  57.250  1.00  0.00     0.029 C 
HETATM   10  C   UNL     1       7.144  25.555  57.105  1.00  0.00     0.032 C 
HETATM   11  C   UNL     1       7.474  24.807  55.795  1.00  0.00     0.118 C 
HETATM   12  C   UNL     1       6.568  27.333  53.070  1.00  0.00     0.040 A 
ENDROOT
BRANCH  11  13
HETATM   13  N   UNL     1       7.114  23.401  55.983  1.00  0.00    -0.378 N 
HETATM   14  H   UNL     1       6.121  23.266  56.163  1.00  0.00     0.160 HD
BRANCH  13  15
HETATM   15  C   UNL     1       7.790  22.247  55.581  1.00  0.00     0.075 A 
HETATM   16  C   UNL     1       8.049  21.712  54.371  1.00  0.00     0.131 A 
HETATM   17 CL   UNL     1       7.551  22.425  52.873  1.00  0.00    -0.076 Cl
HETATM   18  C   UNL     1       8.789  20.421  54.225  1.00  0.00     0.285 A 
HETATM   19  O   UNL     1       9.045  19.911  53.137  1.00  0.00    -0.265 OA
HETATM   20  N   UNL     1       9.175  19.812  55.390  1.00  0.00    -0.242 N 
HETATM   21  N   UNL     1       8.969  20.296  56.638  1.00  0.00    -0.182 NA
HETATM   22  H   UNL     1       9.675  18.932  55.313  1.00  0.00     0.192 HD
HETATM   23  C   UNL     1       8.336  21.421  56.708  1.00  0.00     0.169 A 
ENDBRANCH  13  15
ENDBRANCH  11  13
TORSDOF 2
ENDMDL
MODEL 3
REMARK VINA RESULT:      -8.7      3.629      4.995
REMARK  2 active torsions:
REMARK  status: ('A' for Active; 'I' for Inactive)
REMARK    1  A    between atoms: C_11  and  N_12 
REMARK    2  A    between atoms: N_12  and  C_13 
ROOT
HETATM    1  C   UNL     1       8.005  22.683  53.803  1.00  0.00     0.045 A 
HETATM    2  C   UNL     1       7.381  22.995  55.003  1.00  0.00     0.117 A 
HETATM    3  F   UNL     1       7.443  22.129  56.023  1.00  0.00    -0.206 F 
HETATM    4  C   UNL     1       6.697  24.197  55.170  1.00  0.00     0.054 A 
HETATM    5  C   UNL     1       6.621  25.130  54.122  1.00  0.00     0.001 A 
HETATM    6  C   UNL     1       7.218  24.775  52.901  1.00  0.00     0.077 A 
HETATM    7  O   UNL     1       7.156  25.612  51.819  1.00  0.00    -0.351 OA
HETATM    8  C   UNL     1       5.833  25.632  51.274  1.00  0.00     0.175 C 
HETATM    9  C   UNL     1       5.011  26.764  51.876  1.00  0.00     0.029 C 
HETATM   10  C   UNL     1       4.697  26.575  53.364  1.00  0.00     0.032 C 
HETATM   11  C   UNL     1       5.954  26.489  54.256  1.00  0.00     0.118 C 
HETATM   12  C   UNL     1       7.927  23.582  52.744  1.00  0.00     0.040 A 
ENDROOT
BRANCH  11  13
HETATM   13  N   UNL     1       5.546  26.783  55.631  1.00  0.00    -0.378 N 
HETATM   14  H   UNL     1       5.090  25.994  56.086  1.00  0.00     0.160 HD
BRANCH  13  15
HETATM   15  C   UNL     1       6.008  27.767  56.506  1.00  0.00     0.075 A 
HETATM   16  C   UNL     1       7.152  27.906  57.206  1.00  0.00     0.131 A 
HETATM   17 CL   UNL     1       8.457  26.768  57.161  1.00  0.00    -0.076 Cl
HETATM   18  C   UNL     1       7.383  29.074  58.111  1.00  0.00     0.285 A 
HETATM   19  O   UNL     1       8.416  29.231  58.757  1.00  0.00    -0.265 OA
HETATM   20  N   UNL     1       6.360  29.983  58.195  1.00  0.00    -0.242 N 
HETATM   21  N   UNL     1       5.194  29.921  57.510  1.00  0.00    -0.182 NA
HETATM   22  H   UNL     1       6.495  30.781  58.807  1.00  0.00     0.192 HD
HETATM   23  C   UNL     1       5.049  28.899  56.732  1.00  0.00     0.169 A 
ENDBRANCH  13  15
ENDBRANCH  11  13
TORSDOF 2
ENDMDL
MODEL 4
REMARK VINA RESULT:      -8.5      4.822      6.198
REMARK  2 active torsions:
REMARK  status: ('A' for Active; 'I' for Inactive)
REMARK    1  A    between atoms: C_11  and  N_12 
REMARK    2  A    between atoms: N_12  and  C_13 
ROOT
HETATM    1  C   UNL     1       7.933  23.378  55.779  1.00  0.00     0.045 A 
HETATM    2  C   UNL     1       8.191  24.019  56.983  1.00  0.00     0.117 A 
HETATM    3  F   UNL     1       8.680  23.316  58.012  1.00  0.00    -0.206 F 
HETATM    4  C   UNL     1       7.958  25.383  57.139  1.00  0.00     0.054 A 
HETATM    5  C   UNL     1       7.453  26.151  56.075  1.00  0.00     0.001 A 
HETATM    6  C   UNL     1       7.154  25.474  54.881  1.00  0.00     0.077 A 
HETATM    7  O   UNL     1       6.623  26.142  53.809  1.00  0.00    -0.351 OA
HETATM    8  C   UNL     1       5.260  26.495  54.062  1.00  0.00     0.175 C 
HETATM    9  C   UNL     1       5.158  27.892  54.659  1.00  0.00     0.029 C 
HETATM   10  C   UNL     1       5.741  28.003  56.072  1.00  0.00     0.032 C 
HETATM   11  C   UNL     1       7.242  27.654  56.151  1.00  0.00     0.118 C 
HETATM   12  C   UNL     1       7.413  24.111  54.717  1.00  0.00     0.040 A 
ENDROOT
BRANCH  11  13
HETATM   13  N   UNL     1       7.770  28.234  57.387  1.00  0.00    -0.378 N 
HETATM   14  H   UNL     1       7.616  27.642  58.201  1.00  0.00     0.160 HD
BRANCH  13  15
HETATM   15  C   UNL     1       8.747  29.216  57.564  1.00  0.00     0.075 A 
HETATM   16  C   UNL     1       8.760  30.382  58.241  1.00  0.00     0.131 A 
HETATM   17 CL   UNL     1       7.418  30.985  59.154  1.00  0.00    -0.076 Cl
HETATM   18  C   UNL     1       9.960  31.276  58.242  1.00  0.00     0.285 A 
HETATM   19  O   UNL     1      10.004  32.341  58.852  1.00  0.00    -0.265 OA
HETATM   20  N   UNL     1      11.033  30.846  57.506  1.00  0.00    -0.242 N 
HETATM   21  N   UNL     1      11.101  29.681  56.819  1.00  0.00    -0.182 NA
HETATM   22  H   UNL     1      11.856  31.440  57.490  1.00  0.00     0.192 HD
HETATM   23  C   UNL     1      10.043  28.939  56.860  1.00  0.00     0.169 A 
ENDBRANCH  13  15
ENDBRANCH  11  13
TORSDOF 2
ENDMDL
MODEL 5
REMARK VINA RESULT:      -8.5      3.638      6.918
REMARK  2 active torsions:
REMARK  status: ('A' for Active; 'I' for Inactive)
REMARK    1  A    between atoms: C_11  and  N_12 
REMARK    2  A    between atoms: N_12  and  C_13 
ROOT
HETATM    1  C   UNL     1       5.161  28.409  56.143  1.00  0.00     0.045 A 
HETATM    2  C   UNL     1       6.281  27.819  56.714  1.00  0.00     0.117 A 
HETATM    3  F   UNL     1       6.762  28.297  57.868  1.00  0.00    -0.206 F 
HETATM    4  C   UNL     1       6.910  26.731  56.112  1.00  0.00     0.054 A 
HETATM    5  C   UNL     1       6.425  26.200  54.904  1.00  0.00     0.001 A 
HETATM    6  C   UNL     1       5.320  26.841  54.319  1.00  0.00     0.077 A 
HETATM    7  O   UNL     1       4.809  26.410  53.123  1.00  0.00    -0.351 OA
HETATM    8  C   UNL     1       5.694  26.745  52.049  1.00  0.00     0.175 C 
HETATM    9  C   UNL     1       6.659  25.603  51.758  1.00  0.00     0.029 C 
HETATM   10  C   UNL     1       7.670  25.349  52.882  1.00  0.00     0.032 C 
HETATM   11  C   UNL     1       7.016  24.974  54.230  1.00  0.00     0.118 C 
HETATM   12  C   UNL     1       4.674  27.914  54.937  1.00  0.00     0.040 A 
ENDROOT
BRANCH  11  13
HETATM   13  N   UNL     1       8.034  24.316  55.051  1.00  0.00    -0.378 N 
HETATM   14  H   UNL     1       8.439  24.934  55.751  1.00  0.00     0.160 HD
BRANCH  13  15
HETATM   15  C   UNL     1       8.243  22.956  55.289  1.00  0.00     0.075 A 
HETATM   16  C   UNL     1       8.373  21.892  54.471  1.00  0.00     0.131 A 
HETATM   17 CL   UNL     1       8.312  21.989  52.743  1.00  0.00    -0.076 Cl
HETATM   18  C   UNL     1       8.569  20.510  55.006  1.00  0.00     0.285 A 
HETATM   19  O   UNL     1       8.696  19.522  54.287  1.00  0.00    -0.265 OA
HETATM   20  N   UNL     1       8.595  20.389  56.371  1.00  0.00    -0.242 N 
HETATM   21  N   UNL     1       8.492  21.410  57.254  1.00  0.00    -0.182 NA
HETATM   22  H   UNL     1       8.723  19.457  56.755  1.00  0.00     0.192 HD
HETATM   23  C   UNL     1       8.337  22.586  56.740  1.00  0.00     0.169 A 
ENDBRANCH  13  15
ENDBRANCH  11  13
TORSDOF 2
ENDMDL
MODEL 6
REMARK VINA RESULT:      -8.4      1.871      2.152
REMARK  2 active torsions:
REMARK  status: ('A' for Active; 'I' for Inactive)
REMARK    1  A    between atoms: C_11  and  N_12 
REMARK    2  A    between atoms: N_12  and  C_13 
ROOT
HETATM    1  C   UNL     1       8.737  21.187  54.453  1.00  0.00     0.045 A 
HETATM    2  C   UNL     1       7.964  21.904  53.551  1.00  0.00     0.117 A 
HETATM    3  F   UNL     1       7.870  21.483  52.283  1.00  0.00    -0.206 F 
HETATM    4  C   UNL     1       7.274  23.050  53.940  1.00  0.00     0.054 A 
HETATM    5  C   UNL     1       7.345  23.513  55.266  1.00  0.00     0.001 A 
HETATM    6  C   UNL     1       8.170  22.800  56.152  1.00  0.00     0.077 A 
HETATM    7  O   UNL     1       8.323  23.206  57.451  1.00  0.00    -0.351 OA
HETATM    8  C   UNL     1       9.119  24.394  57.515  1.00  0.00     0.175 C 
HETATM    9  C   UNL     1       8.244  25.641  57.495  1.00  0.00     0.029 C 
HETATM   10  C   UNL     1       7.518  25.863  56.164  1.00  0.00     0.032 C 
HETATM   11  C   UNL     1       6.565  24.711  55.779  1.00  0.00     0.118 C 
HETATM   12  C   UNL     1       8.839  21.636  55.766  1.00  0.00     0.040 A 
ENDROOT
BRANCH  11  13
HETATM   13  N   UNL     1       5.617  25.230  54.791  1.00  0.00    -0.378 N 
HETATM   14  H   UNL     1       4.743  24.708  54.768  1.00  0.00     0.160 HD
BRANCH  13  15
HETATM   15  C   UNL     1       5.553  26.490  54.193  1.00  0.00     0.075 A 
HETATM   16  C   UNL     1       5.955  26.955  52.993  1.00  0.00     0.131 A 
HETATM   17 CL   UNL     1       6.720  25.978  51.784  1.00  0.00    -0.076 Cl
HETATM   18  C   UNL     1       5.784  28.390  52.610  1.00  0.00     0.285 A 
HETATM   19  O   UNL     1       6.135  28.843  51.523  1.00  0.00    -0.265 OA
HETATM   20  N   UNL     1       5.208  29.202  53.552  1.00  0.00    -0.242 N 
HETATM   21  N   UNL     1       4.761  28.804  54.767  1.00  0.00    -0.182 NA
HETATM   22  H   UNL     1       5.086  30.181  53.313  1.00  0.00     0.192 HD
HETATM   23  C   UNL     1       4.922  27.552  55.044  1.00  0.00     0.169 A 
ENDBRANCH  13  15
ENDBRANCH  11  13
TORSDOF 2
ENDMDL
MODEL 7
REMARK VINA RESULT:      -8.2      2.440      3.318
REMARK  2 active torsions:
REMARK  status: ('A' for Active; 'I' for Inactive)
REMARK    1  A    between atoms: C_11  and  N_12 
REMARK    2  A    between atoms: N_12  and  C_13 
ROOT
HETATM    1  C   UNL     1       8.671  23.522  56.771  1.00  0.00     0.045 A 
HETATM    2  C   UNL     1       7.773  23.358  55.725  1.00  0.00     0.117 A 
HETATM    3  F   UNL     1       7.706  22.180  55.092  1.00  0.00    -0.206 F 
HETATM    4  C   UNL     1       6.934  24.395  55.324  1.00  0.00     0.054 A 
HETATM    5  C   UNL     1       6.974  25.641  55.973  1.00  0.00     0.001 A 
HETATM    6  C   UNL     1       7.922  25.801  56.998  1.00  0.00     0.077 A 
HETATM    7  O   UNL     1       8.052  26.996  57.655  1.00  0.00    -0.351 OA
HETATM    8  C   UNL     1       8.664  27.973  56.807  1.00  0.00     0.175 C 
HETATM    9  C   UNL     1       7.613  28.787  56.062  1.00  0.00     0.029 C 
HETATM   10  C   UNL     1       6.823  27.976  55.029  1.00  0.00     0.032 C 
HETATM   11  C   UNL     1       6.040  26.792  55.639  1.00  0.00     0.118 C 
HETATM   12  C   UNL     1       8.744  24.752  57.416  1.00  0.00     0.040 A 
ENDROOT
BRANCH  11  13
HETATM   13  N   UNL     1       4.997  26.411  54.686  1.00  0.00    -0.378 N 
HETATM   14  H   UNL     1       4.215  25.930  55.125  1.00  0.00     0.160 HD
BRANCH  13  15
HETATM   15  C   UNL     1       4.721  26.920  53.415  1.00  0.00     0.075 A 
HETATM   16  C   UNL     1       5.204  26.634  52.189  1.00  0.00     0.131 A 
HETATM   17 CL   UNL     1       6.405  25.425  51.882  1.00  0.00    -0.076 Cl
HETATM   18  C   UNL     1       4.741  27.368  50.972  1.00  0.00     0.285 A 
HETATM   19  O   UNL     1       5.159  27.127  49.842  1.00  0.00    -0.265 OA
HETATM   20  N   UNL     1       3.811  28.353  51.178  1.00  0.00    -0.242 N 
HETATM   21  N   UNL     1       3.266  28.683  52.373  1.00  0.00    -0.182 NA
HETATM   22  H   UNL     1       3.486  28.867  50.365  1.00  0.00     0.192 HD
HETATM   23  C   UNL     1       3.690  28.010  53.392  1.00  0.00     0.169 A 
ENDBRANCH  13  15
ENDBRANCH  11  13
TORSDOF 2
ENDMDL
MODEL 8
REMARK VINA RESULT:      -8.2      3.792      6.868
REMARK  2 active torsions:
REMARK  status: ('A' for Active; 'I' for Inactive)
REMARK    1  A    between atoms: C_11  and  N_12 
REMARK    2  A    between atoms: N_12  and  C_13 
ROOT
HETATM    1  C   UNL     1       7.336  29.315  57.508  1.00  0.00     0.045 A 
HETATM    2  C   UNL     1       8.437  28.497  57.295  1.00  0.00     0.117 A 
HETATM    3  F   UNL     1       9.631  28.860  57.779  1.00  0.00    -0.206 F 
HETATM    4  C   UNL     1       8.323  27.300  56.592  1.00  0.00     0.054 A 
HETATM    5  C   UNL     1       7.082  26.887  56.077  1.00  0.00     0.001 A 
HETATM    6  C   UNL     1       5.990  27.751  56.263  1.00  0.00     0.077 A 
HETATM    7  O   UNL     1       4.754  27.440  55.760  1.00  0.00    -0.351 OA
HETATM    8  C   UNL     1       4.742  27.577  54.335  1.00  0.00     0.175 C 
HETATM    9  C   UNL     1       5.071  26.255  53.655  1.00  0.00     0.029 C 
HETATM   10  C   UNL     1       6.514  25.789  53.878  1.00  0.00     0.032 C 
HETATM   11  C   UNL     1       6.868  25.562  55.364  1.00  0.00     0.118 C 
HETATM   12  C   UNL     1       6.101  28.938  56.991  1.00  0.00     0.040 A 
ENDROOT
BRANCH  11  13
HETATM   13  N   UNL     1       8.051  24.700  55.413  1.00  0.00    -0.378 N 
HETATM   14  H   UNL     1       8.872  25.174  55.784  1.00  0.00     0.160 HD
BRANCH  13  15
HETATM   15  C   UNL     1       8.137  23.306  55.415  1.00  0.00     0.075 A 
HETATM   16  C   UNL     1       8.084  22.384  54.434  1.00  0.00     0.131 A 
HETATM   17 CL   UNL     1       7.882  22.768  52.757  1.00  0.00    -0.076 Cl
HETATM   18  C   UNL     1       8.180  20.920  54.724  1.00  0.00     0.285 A 
HETATM   19  O   UNL     1       8.140  20.057  53.852  1.00  0.00    -0.265 OA
HETATM   20  N   UNL     1       8.312  20.575  56.044  1.00  0.00    -0.242 N 
HETATM   21  N   UNL     1       8.393  21.443  57.081  1.00  0.00    -0.182 NA
HETATM   22  H   UNL     1       8.374  19.586  56.264  1.00  0.00     0.192 HD
HETATM   23  C   UNL     1       8.317  22.696  56.774  1.00  0.00     0.169 A 
ENDBRANCH  13  15
ENDBRANCH  11  13
TORSDOF 2
ENDMDL
MODEL 9
REMARK VINA RESULT:      -8.0      6.343      8.265
REMARK  2 active torsions:
REMARK  status: ('A' for Active; 'I' for Inactive)
REMARK    1  A    between atoms: C_11  and  N_12 
REMARK    2  A    between atoms: N_12  and  C_13 
ROOT
HETATM    1  C   UNL     1       9.553  31.956  61.285  1.00  0.00     0.045 A 
HETATM    2  C   UNL     1       8.471  31.089  61.346  1.00  0.00     0.117 A 
HETATM    3  F   UNL     1       7.830  30.916  62.509  1.00  0.00    -0.206 F 
HETATM    4  C   UNL     1       8.032  30.401  60.217  1.00  0.00     0.054 A 
HETATM    5  C   UNL     1       8.678  30.567  58.980  1.00  0.00     0.001 A 
HETATM    6  C   UNL     1       9.800  31.412  58.950  1.00  0.00     0.077 A 
HETATM    7  O   UNL     1      10.509  31.600  57.793  1.00  0.00    -0.351 OA
HETATM    8  C   UNL     1      11.264  30.428  57.471  1.00  0.00     0.175 C 
HETATM    9  C   UNL     1      10.481  29.509  56.543  1.00  0.00     0.029 C 
HETATM   10  C   UNL     1       9.249  28.875  57.199  1.00  0.00     0.032 C 
HETATM   11  C   UNL     1       8.212  29.906  57.694  1.00  0.00     0.118 C 
HETATM   12  C   UNL     1      10.222  32.123  60.077  1.00  0.00     0.040 A 
ENDROOT
BRANCH  11  13
HETATM   13  N   UNL     1       6.933  29.211  57.851  1.00  0.00    -0.378 N 
HETATM   14  H   UNL     1       6.344  29.622  58.572  1.00  0.00     0.160 HD
BRANCH  13  15
HETATM   15  C   UNL     1       6.256  28.378  56.958  1.00  0.00     0.075 A 
HETATM   16  C   UNL     1       6.278  27.046  56.753  1.00  0.00     0.131 A 
HETATM   17 CL   UNL     1       7.255  25.943  57.664  1.00  0.00    -0.076 Cl
HETATM   18  C   UNL     1       5.452  26.402  55.685  1.00  0.00     0.285 A 
HETATM   19  O   UNL     1       5.446  25.191  55.478  1.00  0.00    -0.265 OA
HETATM   20  N   UNL     1       4.686  27.246  54.924  1.00  0.00    -0.242 N 
HETATM   21  N   UNL     1       4.597  28.587  55.083  1.00  0.00    -0.182 NA
HETATM   22  H   UNL     1       4.120  26.829  54.191  1.00  0.00     0.192 HD
HETATM   23  C   UNL     1       5.321  29.092  56.027  1.00  0.00     0.169 A 
ENDBRANCH  13  15
ENDBRANCH  11  13
TORSDOF 2
ENDMDL
MODEL 10
REMARK VINA RESULT:      -7.9      4.147      6.748
REMARK  2 active torsions:
REMARK  status: ('A' for Active; 'I' for Inactive)
REMARK    1  A    between atoms: C_11  and  N_12 
REMARK    2  A    between atoms: N_12  and  C_13 
ROOT
HETATM    1  C   UNL     1       9.029  30.000  58.168  1.00  0.00     0.045 A 
HETATM    2  C   UNL     1       9.608  29.330  57.099  1.00  0.00     0.117 A 
HETATM    3  F   UNL     1      10.925  29.444  56.884  1.00  0.00    -0.206 F 
HETATM    4  C   UNL     1       8.846  28.532  56.249  1.00  0.00     0.054 A 
HETATM    5  C   UNL     1       7.463  28.385  56.453  1.00  0.00     0.001 A 
HETATM    6  C   UNL     1       6.889  29.109  57.511  1.00  0.00     0.077 A 
HETATM    7  O   UNL     1       5.542  29.051  57.754  1.00  0.00    -0.351 OA
HETATM    8  C   UNL     1       4.818  29.764  56.747  1.00  0.00     0.175 C 
HETATM    9  C   UNL     1       4.397  28.837  55.614  1.00  0.00     0.029 C 
HETATM   10  C   UNL     1       5.570  28.302  54.787  1.00  0.00     0.032 C 
HETATM   11  C   UNL     1       6.583  27.477  55.611  1.00  0.00     0.118 C 
HETATM   12  C   UNL     1       7.659  29.887  58.379  1.00  0.00     0.040 A 
ENDROOT
BRANCH  11  13
HETATM   13  N   UNL     1       7.354  26.656  54.675  1.00  0.00    -0.378 N 
HETATM   14  H   UNL     1       8.119  27.165  54.239  1.00  0.00     0.160 HD
BRANCH  13  15
HETATM   15  C   UNL     1       7.461  25.266  54.588  1.00  0.00     0.075 A 
HETATM   16  C   UNL     1       7.661  24.426  53.553  1.00  0.00     0.131 A 
HETATM   17 CL   UNL     1       7.864  24.945  51.913  1.00  0.00    -0.076 Cl
HETATM   18  C   UNL     1       7.709  22.944  53.742  1.00  0.00     0.285 A 
HETATM   19  O   UNL     1       7.895  22.154  52.820  1.00  0.00    -0.265 OA
HETATM   20  N   UNL     1       7.524  22.493  55.023  1.00  0.00    -0.242 N 
HETATM   21  N   UNL     1       7.338  23.274  56.114  1.00  0.00    -0.182 NA
HETATM   22  H   UNL     1       7.548  21.489  55.172  1.00  0.00     0.192 HD
HETATM   23  C   UNL     1       7.318  24.548  55.898  1.00  0.00     0.169 A 
ENDBRANCH  13  15
ENDBRANCH  11  13
TORSDOF 2
ENDMDL
