MODEL 1
REMARK VINA RESULT:      -9.6      0.000      0.000
REMARK  4 active torsions:
REMARK  status: ('A' for Active; 'I' for Inactive)
REMARK    1  A    between atoms: N_2  and  C_4 
REMARK    2  A    between atoms: N_2  and  C_16 
REMARK    3  A    between atoms: C_4  and  C_5 
REMARK    4  A    between atoms: C_16  and  C_17 
ROOT
HETATM    1  C   UNL     1       5.380  25.168  53.495  1.00  0.00     0.270 C 
HETATM    2  N   UNL     1       6.371  25.975  52.708  1.00  0.00    -0.064 N 
HETATM    3  H   UNL     1       6.162  25.792  51.708  1.00  0.00     0.280 HD
ENDROOT
BRANCH   2   4
HETATM    4  C   UNL     1       6.187  27.473  52.877  1.00  0.00     0.312 C 
BRANCH   4   5
HETATM    5  C   UNL     1       6.803  27.980  54.176  1.00  0.00     0.133 A 
HETATM    6  N   UNL     1       8.020  28.424  54.164  1.00  0.00    -0.233 NA
HETATM    7  C   UNL     1       8.553  28.897  55.383  1.00  0.00     0.074 A 
HETATM    8  C   UNL     1       7.818  28.901  56.574  1.00  0.00     0.061 A 
HETATM    9  C   UNL     1       9.859  29.390  55.405  1.00  0.00     0.032 A 
HETATM   10  C   UNL     1       6.444  28.379  56.522  1.00  0.00     0.259 A 
HETATM   11  C   UNL     1       8.360  29.383  57.768  1.00  0.00     0.019 A 
HETATM   12  O   UNL     1       5.709  28.336  57.498  1.00  0.00    -0.267 OA
HETATM   13  N   UNL     1       6.018  27.942  55.293  1.00  0.00    -0.309 N 
HETATM   14  H   UNL     1       5.073  27.578  55.297  1.00  0.00     0.170 HD
HETATM   15  C   UNL     1       9.664  29.872  57.774  1.00  0.00     0.001 A 
HETATM   16  C   UNL     1      10.412  29.875  56.596  1.00  0.00     0.002 A 
ENDBRANCH   4   5
ENDBRANCH   2   4
BRANCH   2  17
HETATM   17  C   UNL     1       7.801  25.553  52.926  1.00  0.00     0.276 C 
BRANCH  17  18
HETATM   18  C   UNL     1       7.952  24.227  53.619  1.00  0.00     0.003 A 
HETATM   19  C   UNL     1       8.059  24.153  55.017  1.00  0.00     0.088 A 
HETATM   20  C   UNL     1       8.240  22.925  55.662  1.00  0.00     0.001 A 
HETATM   21  O   UNL     1       8.018  25.339  55.708  1.00  0.00    -0.325 OA
HETATM   22  C   UNL     1       8.377  22.880  57.154  1.00  0.00     0.212 C 
HETATM   23  C   UNL     1       8.268  21.747  54.905  1.00  0.00     0.036 A 
HETATM   24  O   UNL     1       8.777  24.159  57.631  1.00  0.00    -0.362 OA
HETATM   25  C   UNL     1       7.899  25.154  57.127  1.00  0.00     0.345 C 
HETATM   26  C   UNL     1       8.144  21.809  53.519  1.00  0.00     0.035 A 
HETATM   27 CL   UNL     1       8.195  20.365  52.588  1.00  0.00    -0.084 Cl
HETATM   28  C   UNL     1       7.990  23.037  52.874  1.00  0.00     0.035 A 
ENDBRANCH  17  18
ENDBRANCH   2  17
TORSDOF 4
ENDMDL
MODEL 2
REMARK VINA RESULT:      -9.6      2.531      6.595
REMARK  4 active torsions:
REMARK  status: ('A' for Active; 'I' for Inactive)
REMARK    1  A    between atoms: N_2  and  C_4 
REMARK    2  A    between atoms: N_2  and  C_16 
REMARK    3  A    between atoms: C_4  and  C_5 
REMARK    4  A    between atoms: C_16  and  C_17 
ROOT
HETATM    1  C   UNL     1       8.415  28.105  56.980  1.00  0.00     0.270 C 
HETATM    2  N   UNL     1       7.779  26.780  56.678  1.00  0.00    -0.064 N 
HETATM    3  H   UNL     1       8.013  26.566  55.690  1.00  0.00     0.280 HD
ENDROOT
BRANCH   2   4
HETATM    4  C   UNL     1       8.378  25.635  57.477  1.00  0.00     0.312 C 
BRANCH   4   5
HETATM    5  C   UNL     1       8.292  24.311  56.730  1.00  0.00     0.133 A 
HETATM    6  N   UNL     1       8.187  24.322  55.437  1.00  0.00    -0.233 NA
HETATM    7  C   UNL     1       8.122  23.076  54.778  1.00  0.00     0.074 A 
HETATM    8  C   UNL     1       8.168  21.857  55.466  1.00  0.00     0.061 A 
HETATM    9  C   UNL     1       8.016  23.051  53.386  1.00  0.00     0.032 A 
HETATM   10  C   UNL     1       8.283  21.912  56.931  1.00  0.00     0.259 A 
HETATM   11  C   UNL     1       8.113  20.634  54.794  1.00  0.00     0.019 A 
HETATM   12  O   UNL     1       8.335  20.913  57.634  1.00  0.00    -0.267 OA
HETATM   13  N   UNL     1       8.338  23.170  57.478  1.00  0.00    -0.309 N 
HETATM   14  H   UNL     1       8.403  23.169  58.489  1.00  0.00     0.170 HD
HETATM   15  C   UNL     1       8.008  20.626  53.405  1.00  0.00     0.001 A 
HETATM   16  C   UNL     1       7.959  21.831  52.703  1.00  0.00     0.002 A 
ENDBRANCH   4   5
ENDBRANCH   2   4
BRANCH   2  17
HETATM   17  C   UNL     1       6.275  26.801  56.762  1.00  0.00     0.276 C 
BRANCH  17  18
HETATM   18  C   UNL     1       5.587  26.988  55.438  1.00  0.00     0.003 A 
HETATM   19  C   UNL     1       4.982  28.211  55.107  1.00  0.00     0.088 A 
HETATM   20  C   UNL     1       4.306  28.376  53.893  1.00  0.00     0.001 A 
HETATM   21  O   UNL     1       5.051  29.214  56.043  1.00  0.00    -0.325 OA
HETATM   22  C   UNL     1       3.648  29.685  53.578  1.00  0.00     0.212 C 
HETATM   23  C   UNL     1       4.274  27.320  52.974  1.00  0.00     0.036 A 
HETATM   24  O   UNL     1       3.415  30.399  54.787  1.00  0.00    -0.362 OA
HETATM   25  C   UNL     1       4.618  30.484  55.533  1.00  0.00     0.345 C 
HETATM   26  C   UNL     1       4.887  26.109  53.286  1.00  0.00     0.035 A 
HETATM   27 CL   UNL     1       4.833  24.807  52.166  1.00  0.00    -0.084 Cl
HETATM   28  C   UNL     1       5.538  25.936  54.508  1.00  0.00     0.035 A 
ENDBRANCH  17  18
ENDBRANCH   2  17
TORSDOF 4
ENDMDL
MODEL 3
REMARK VINA RESULT:      -9.5      3.540      7.259
REMARK  4 active torsions:
REMARK  status: ('A' for Active; 'I' for Inactive)
REMARK    1  A    between atoms: N_2  and  C_4 
REMARK    2  A    between atoms: N_2  and  C_16 
REMARK    3  A    between atoms: C_4  and  C_5 
REMARK    4  A    between atoms: C_16  and  C_17 
ROOT
HETATM    1  C   UNL     1       7.661  28.289  57.265  1.00  0.00     0.270 C 
HETATM    2  N   UNL     1       6.812  27.161  56.754  1.00  0.00    -0.064 N 
HETATM    3  H   UNL     1       6.957  27.133  55.728  1.00  0.00     0.280 HD
ENDROOT
BRANCH   2   4
HETATM    4  C   UNL     1       7.270  25.800  57.251  1.00  0.00     0.312 C 
BRANCH   4   5
HETATM    5  C   UNL     1       7.503  24.824  56.104  1.00  0.00     0.133 A 
HETATM    6  N   UNL     1       7.528  23.552  56.354  1.00  0.00    -0.233 NA
HETATM    7  C   UNL     1       7.733  22.678  55.265  1.00  0.00     0.074 A 
HETATM    8  C   UNL     1       7.906  23.137  53.954  1.00  0.00     0.061 A 
HETATM    9  C   UNL     1       7.757  21.302  55.497  1.00  0.00     0.032 A 
HETATM   10  C   UNL     1       7.874  24.591  53.737  1.00  0.00     0.259 A 
HETATM   11  C   UNL     1       8.099  22.255  52.888  1.00  0.00     0.019 A 
HETATM   12  O   UNL     1       8.010  25.105  52.636  1.00  0.00    -0.267 OA
HETATM   13  N   UNL     1       7.669  25.357  54.858  1.00  0.00    -0.309 N 
HETATM   14  H   UNL     1       7.666  26.353  54.673  1.00  0.00     0.170 HD
HETATM   15  C   UNL     1       8.119  20.884  53.136  1.00  0.00     0.001 A 
HETATM   16  C   UNL     1       7.950  20.408  54.437  1.00  0.00     0.002 A 
ENDBRANCH   4   5
ENDBRANCH   2   4
BRANCH   2  17
HETATM   17  C   UNL     1       5.336  27.374  56.969  1.00  0.00     0.276 C 
BRANCH  17  18
HETATM   18  C   UNL     1       4.705  28.333  55.998  1.00  0.00     0.003 A 
HETATM   19  C   UNL     1       4.610  28.017  54.633  1.00  0.00     0.088 A 
HETATM   20  C   UNL     1       4.060  28.925  53.721  1.00  0.00     0.001 A 
HETATM   21  O   UNL     1       5.115  26.804  54.238  1.00  0.00    -0.325 OA
HETATM   22  C   UNL     1       3.996  28.571  52.265  1.00  0.00     0.212 C 
HETATM   23  C   UNL     1       3.555  30.146  54.183  1.00  0.00     0.036 A 
HETATM   24  O   UNL     1       4.946  27.550  51.984  1.00  0.00    -0.362 OA
HETATM   25  C   UNL     1       4.768  26.469  52.885  1.00  0.00     0.345 C 
HETATM   26  C   UNL     1       3.629  30.460  55.538  1.00  0.00     0.035 A 
HETATM   27 CL   UNL     1       3.024  31.965  56.104  1.00  0.00    -0.084 Cl
HETATM   28  C   UNL     1       4.201  29.566  56.444  1.00  0.00     0.035 A 
ENDBRANCH  17  18
ENDBRANCH   2  17
TORSDOF 4
ENDMDL
MODEL 4
REMARK VINA RESULT:      -9.4      3.749      6.143
REMARK  4 active torsions:
REMARK  status: ('A' for Active; 'I' for Inactive)
REMARK    1  A    between atoms: N_2  and  C_4 
REMARK    2  A    between atoms: N_2  and  C_16 
REMARK    3  A    between atoms: C_4  and  C_5 
REMARK    4  A    between atoms: C_16  and  C_17 
ROOT
HETATM    1  C   UNL     1       5.167  24.875  52.868  1.00  0.00     0.270 C 
HETATM    2  N   UNL     1       6.163  25.672  52.075  1.00  0.00    -0.064 N 
HETATM    3  H   UNL     1       6.136  25.289  51.112  1.00  0.00     0.280 HD
ENDROOT
BRANCH   2   4
HETATM    4  C   UNL     1       5.773  27.133  51.926  1.00  0.00     0.312 C 
BRANCH   4   5
HETATM    5  C   UNL     1       4.932  27.373  50.679  1.00  0.00     0.133 A 
HETATM    6  N   UNL     1       3.891  28.142  50.759  1.00  0.00    -0.233 NA
HETATM    7  C   UNL     1       3.144  28.352  49.580  1.00  0.00     0.074 A 
HETATM    8  C   UNL     1       3.489  27.768  48.356  1.00  0.00     0.061 A 
HETATM    9  C   UNL     1       2.021  29.181  49.628  1.00  0.00     0.032 A 
HETATM   10  C   UNL     1       4.677  26.902  48.332  1.00  0.00     0.259 A 
HETATM   11  C   UNL     1       2.742  27.996  47.198  1.00  0.00     0.019 A 
HETATM   12  O   UNL     1       5.075  26.341  47.321  1.00  0.00    -0.267 OA
HETATM   13  N   UNL     1       5.336  26.759  49.528  1.00  0.00    -0.309 N 
HETATM   14  H   UNL     1       6.140  26.146  49.477  1.00  0.00     0.170 HD
HETATM   15  C   UNL     1       1.625  28.826  47.262  1.00  0.00     0.001 A 
HETATM   16  C   UNL     1       1.265  29.417  48.474  1.00  0.00     0.002 A 
ENDBRANCH   4   5
ENDBRANCH   2   4
BRANCH   2  17
HETATM   17  C   UNL     1       7.582  25.512  52.556  1.00  0.00     0.276 C 
BRANCH  17  18
HETATM   18  C   UNL     1       7.819  24.270  53.370  1.00  0.00     0.003 A 
HETATM   19  C   UNL     1       7.926  24.335  54.768  1.00  0.00     0.088 A 
HETATM   20  C   UNL     1       8.187  23.187  55.525  1.00  0.00     0.001 A 
HETATM   21  O   UNL     1       7.802  25.575  55.346  1.00  0.00    -0.325 OA
HETATM   22  C   UNL     1       8.321  23.292  57.015  1.00  0.00     0.212 C 
HETATM   23  C   UNL     1       8.297  21.948  54.882  1.00  0.00     0.036 A 
HETATM   24  O   UNL     1       8.631  24.634  57.368  1.00  0.00    -0.362 OA
HETATM   25  C   UNL     1       7.690  25.515  56.776  1.00  0.00     0.345 C 
HETATM   26  C   UNL     1       8.175  21.872  53.497  1.00  0.00     0.035 A 
HETATM   27 CL   UNL     1       8.327  20.354  52.705  1.00  0.00    -0.084 Cl
HETATM   28  C   UNL     1       7.941  23.021  52.740  1.00  0.00     0.035 A 
ENDBRANCH  17  18
ENDBRANCH   2  17
TORSDOF 4
ENDMDL
MODEL 5
REMARK VINA RESULT:      -9.3      3.395      7.100
REMARK  4 active torsions:
REMARK  status: ('A' for Active; 'I' for Inactive)
REMARK    1  A    between atoms: N_2  and  C_4 
REMARK    2  A    between atoms: N_2  and  C_16 
REMARK    3  A    between atoms: C_4  and  C_5 
REMARK    4  A    between atoms: C_16  and  C_17 
ROOT
HETATM    1  C   UNL     1       8.464  27.908  56.972  1.00  0.00     0.270 C 
HETATM    2  N   UNL     1       7.685  26.629  56.871  1.00  0.00    -0.064 N 
HETATM    3  H   UNL     1       7.687  26.369  55.867  1.00  0.00     0.280 HD
ENDROOT
BRANCH   2   4
HETATM    4  C   UNL     1       8.359  25.465  57.577  1.00  0.00     0.312 C 
BRANCH   4   5
HETATM    5  C   UNL     1       8.271  24.178  56.765  1.00  0.00     0.133 A 
HETATM    6  N   UNL     1       8.138  24.253  55.478  1.00  0.00    -0.233 NA
HETATM    7  C   UNL     1       8.073  23.041  54.758  1.00  0.00     0.074 A 
HETATM    8  C   UNL     1       8.149  21.790  55.382  1.00  0.00     0.061 A 
HETATM    9  C   UNL     1       7.938  23.085  53.369  1.00  0.00     0.032 A 
HETATM   10  C   UNL     1       8.294  21.772  56.845  1.00  0.00     0.259 A 
HETATM   11  C   UNL     1       8.093  20.601  54.650  1.00  0.00     0.019 A 
HETATM   12  O   UNL     1       8.373  20.741  57.496  1.00  0.00    -0.267 OA
HETATM   13  N   UNL     1       8.346  23.002  57.454  1.00  0.00    -0.309 N 
HETATM   14  H   UNL     1       8.434  22.951  58.462  1.00  0.00     0.170 HD
HETATM   15  C   UNL     1       7.958  20.662  53.265  1.00  0.00     0.001 A 
HETATM   16  C   UNL     1       7.881  21.900  52.626  1.00  0.00     0.002 A 
ENDBRANCH   4   5
ENDBRANCH   2   4
BRANCH   2  17
HETATM   17  C   UNL     1       6.239  26.772  57.270  1.00  0.00     0.276 C 
BRANCH  17  18
HETATM   18  C   UNL     1       5.442  27.684  56.379  1.00  0.00     0.003 A 
HETATM   19  C   UNL     1       5.165  27.330  55.049  1.00  0.00     0.088 A 
HETATM   20  C   UNL     1       4.459  28.195  54.206  1.00  0.00     0.001 A 
HETATM   21  O   UNL     1       5.652  26.123  54.611  1.00  0.00    -0.325 OA
HETATM   22  C   UNL     1       4.200  27.800  52.782  1.00  0.00     0.212 C 
HETATM   23  C   UNL     1       3.980  29.410  54.709  1.00  0.00     0.036 A 
HETATM   24  O   UNL     1       5.137  26.804  52.390  1.00  0.00    -0.362 OA
HETATM   25  C   UNL     1       5.128  25.741  53.330  1.00  0.00     0.345 C 
HETATM   26  C   UNL     1       4.235  29.762  56.032  1.00  0.00     0.035 A 
HETATM   27 CL   UNL     1       3.663  31.261  56.647  1.00  0.00    -0.084 Cl
HETATM   28  C   UNL     1       4.963  28.911  56.866  1.00  0.00     0.035 A 
ENDBRANCH  17  18
ENDBRANCH   2  17
TORSDOF 4
ENDMDL
MODEL 6
REMARK VINA RESULT:      -9.1      3.347      7.334
REMARK  4 active torsions:
REMARK  status: ('A' for Active; 'I' for Inactive)
REMARK    1  A    between atoms: N_2  and  C_4 
REMARK    2  A    between atoms: N_2  and  C_16 
REMARK    3  A    between atoms: C_4  and  C_5 
REMARK    4  A    between atoms: C_16  and  C_17 
ROOT
HETATM    1  C   UNL     1       5.877  25.690  57.073  1.00  0.00     0.270 C 
HETATM    2  N   UNL     1       7.101  26.541  57.248  1.00  0.00    -0.064 N 
HETATM    3  H   UNL     1       6.982  27.033  58.153  1.00  0.00     0.280 HD
ENDROOT
BRANCH   2   4
HETATM    4  C   UNL     1       8.373  25.727  57.410  1.00  0.00     0.312 C 
BRANCH   4   5
HETATM    5  C   UNL     1       8.281  24.379  56.706  1.00  0.00     0.133 A 
HETATM    6  N   UNL     1       8.172  24.349  55.415  1.00  0.00    -0.233 NA
HETATM    7  C   UNL     1       8.102  23.082  54.797  1.00  0.00     0.074 A 
HETATM    8  C   UNL     1       8.148  21.886  55.523  1.00  0.00     0.061 A 
HETATM    9  C   UNL     1       7.991  23.012  53.407  1.00  0.00     0.032 A 
HETATM   10  C   UNL     1       8.268  21.988  56.985  1.00  0.00     0.259 A 
HETATM   11  C   UNL     1       8.088  20.642  54.891  1.00  0.00     0.019 A 
HETATM   12  O   UNL     1       8.321  21.013  57.721  1.00  0.00    -0.267 OA
HETATM   13  N   UNL     1       8.328  23.263  57.491  1.00  0.00    -0.309 N 
HETATM   14  H   UNL     1       8.397  23.295  58.501  1.00  0.00     0.170 HD
HETATM   15  C   UNL     1       7.978  20.589  53.504  1.00  0.00     0.001 A 
HETATM   16  C   UNL     1       7.930  21.770  52.763  1.00  0.00     0.002 A 
ENDBRANCH   4   5
ENDBRANCH   2   4
BRANCH   2  17
HETATM   17  C   UNL     1       7.244  27.612  56.198  1.00  0.00     0.276 C 
BRANCH  17  18
HETATM   18  C   UNL     1       6.612  28.925  56.568  1.00  0.00     0.003 A 
HETATM   19  C   UNL     1       7.109  29.688  57.636  1.00  0.00     0.088 A 
HETATM   20  C   UNL     1       6.497  30.891  58.008  1.00  0.00     0.001 A 
HETATM   21  O   UNL     1       8.189  29.181  58.315  1.00  0.00    -0.325 OA
HETATM   22  C   UNL     1       7.035  31.671  59.170  1.00  0.00     0.212 C 
HETATM   23  C   UNL     1       5.402  31.363  57.274  1.00  0.00     0.036 A 
HETATM   24  O   UNL     1       7.799  30.810  60.005  1.00  0.00    -0.362 OA
HETATM   25  C   UNL     1       8.769  30.126  59.227  1.00  0.00     0.345 C 
HETATM   26  C   UNL     1       4.913  30.620  56.202  1.00  0.00     0.035 A 
HETATM   27 CL   UNL     1       3.558  31.191  55.312  1.00  0.00    -0.084 Cl
HETATM   28  C   UNL     1       5.506  29.408  55.848  1.00  0.00     0.035 A 
ENDBRANCH  17  18
ENDBRANCH   2  17
TORSDOF 4
ENDMDL
MODEL 7
REMARK VINA RESULT:      -9.1      2.783      6.994
REMARK  4 active torsions:
REMARK  status: ('A' for Active; 'I' for Inactive)
REMARK    1  A    between atoms: N_2  and  C_4 
REMARK    2  A    between atoms: N_2  and  C_16 
REMARK    3  A    between atoms: C_4  and  C_5 
REMARK    4  A    between atoms: C_16  and  C_17 
ROOT
HETATM    1  C   UNL     1       5.182  26.712  55.348  1.00  0.00     0.270 C 
HETATM    2  N   UNL     1       6.597  27.171  55.145  1.00  0.00    -0.064 N 
HETATM    3  H   UNL     1       7.110  26.912  56.008  1.00  0.00     0.280 HD
ENDROOT
BRANCH   2   4
HETATM    4  C   UNL     1       7.310  26.425  54.029  1.00  0.00     0.312 C 
BRANCH   4   5
HETATM    5  C   UNL     1       7.644  24.992  54.424  1.00  0.00     0.133 A 
HETATM    6  N   UNL     1       7.618  24.066  53.517  1.00  0.00    -0.233 NA
HETATM    7  C   UNL     1       7.946  22.754  53.917  1.00  0.00     0.074 A 
HETATM    8  C   UNL     1       8.292  22.432  55.234  1.00  0.00     0.061 A 
HETATM    9  C   UNL     1       7.936  21.733  52.964  1.00  0.00     0.032 A 
HETATM   10  C   UNL     1       8.297  23.526  56.217  1.00  0.00     0.259 A 
HETATM   11  C   UNL     1       8.623  21.127  55.608  1.00  0.00     0.019 A 
HETATM   12  O   UNL     1       8.586  23.364  57.395  1.00  0.00    -0.267 OA
HETATM   13  N   UNL     1       7.964  24.766  55.732  1.00  0.00    -0.309 N 
HETATM   14  H   UNL     1       7.965  25.491  56.439  1.00  0.00     0.170 HD
HETATM   15  C   UNL     1       8.609  20.120  54.646  1.00  0.00     0.001 A 
HETATM   16  C   UNL     1       8.266  20.422  53.327  1.00  0.00     0.002 A 
ENDBRANCH   4   5
ENDBRANCH   2   4
BRANCH   2  17
HETATM   17  C   UNL     1       6.732  28.664  55.004  1.00  0.00     0.276 C 
BRANCH  17  18
HETATM   18  C   UNL     1       7.521  29.318  56.103  1.00  0.00     0.003 A 
HETATM   19  C   UNL     1       6.882  30.080  57.094  1.00  0.00     0.088 A 
HETATM   20  C   UNL     1       7.618  30.723  58.095  1.00  0.00     0.001 A 
HETATM   21  O   UNL     1       5.516  30.195  57.007  1.00  0.00    -0.325 OA
HETATM   22  C   UNL     1       6.909  31.552  59.125  1.00  0.00     0.212 C 
HETATM   23  C   UNL     1       9.008  30.565  58.138  1.00  0.00     0.036 A 
HETATM   24  O   UNL     1       5.633  31.935  58.627  1.00  0.00    -0.362 OA
HETATM   25  C   UNL     1       4.930  30.787  58.177  1.00  0.00     0.345 C 
HETATM   26  C   UNL     1       9.649  29.796  57.170  1.00  0.00     0.035 A 
HETATM   27 CL   UNL     1      11.358  29.615  57.211  1.00  0.00    -0.084 Cl
HETATM   28  C   UNL     1       8.918  29.177  56.155  1.00  0.00     0.035 A 
ENDBRANCH  17  18
ENDBRANCH   2  17
TORSDOF 4
ENDMDL
MODEL 8
REMARK VINA RESULT:      -9.0      1.890      2.657
REMARK  4 active torsions:
REMARK  status: ('A' for Active; 'I' for Inactive)
REMARK    1  A    between atoms: N_2  and  C_4 
REMARK    2  A    between atoms: N_2  and  C_16 
REMARK    3  A    between atoms: C_4  and  C_5 
REMARK    4  A    between atoms: C_16  and  C_17 
ROOT
HETATM    1  C   UNL     1       6.397  28.023  52.752  1.00  0.00     0.270 C 
HETATM    2  N   UNL     1       6.202  27.634  54.189  1.00  0.00    -0.064 N 
HETATM    3  H   UNL     1       7.152  27.527  54.590  1.00  0.00     0.280 HD
ENDROOT
BRANCH   2   4
HETATM    4  C   UNL     1       5.549  28.727  55.019  1.00  0.00     0.312 C 
BRANCH   4   5
HETATM    5  C   UNL     1       6.500  29.292  56.066  1.00  0.00     0.133 A 
HETATM    6  N   UNL     1       6.055  30.163  56.917  1.00  0.00    -0.233 NA
HETATM    7  C   UNL     1       6.961  30.654  57.881  1.00  0.00     0.074 A 
HETATM    8  C   UNL     1       8.295  30.235  57.942  1.00  0.00     0.061 A 
HETATM    9  C   UNL     1       6.514  31.588  58.818  1.00  0.00     0.032 A 
HETATM   10  C   UNL     1       8.741  29.249  56.946  1.00  0.00     0.259 A 
HETATM   11  C   UNL     1       9.174  30.726  58.911  1.00  0.00     0.019 A 
HETATM   12  O   UNL     1       9.880  28.809  56.905  1.00  0.00    -0.267 OA
HETATM   13  N   UNL     1       7.786  28.833  56.051  1.00  0.00    -0.309 N 
HETATM   14  H   UNL     1       8.131  28.165  55.373  1.00  0.00     0.170 HD
HETATM   15  C   UNL     1       8.712  31.656  59.839  1.00  0.00     0.001 A 
HETATM   16  C   UNL     1       7.386  32.087  59.792  1.00  0.00     0.002 A 
ENDBRANCH   4   5
ENDBRANCH   2   4
BRANCH   2  17
HETATM   17  C   UNL     1       5.515  26.304  54.365  1.00  0.00     0.276 C 
BRANCH  17  18
HETATM   18  C   UNL     1       6.449  25.164  54.660  1.00  0.00     0.003 A 
HETATM   19  C   UNL     1       7.144  25.098  55.878  1.00  0.00     0.088 A 
HETATM   20  C   UNL     1       8.044  24.059  56.139  1.00  0.00     0.001 A 
HETATM   21  O   UNL     1       6.927  26.115  56.774  1.00  0.00    -0.325 OA
HETATM   22  C   UNL     1       8.791  24.029  57.438  1.00  0.00     0.212 C 
HETATM   23  C   UNL     1       8.220  23.045  55.189  1.00  0.00     0.036 A 
HETATM   24  O   UNL     1       8.810  25.335  58.002  1.00  0.00    -0.362 OA
HETATM   25  C   UNL     1       7.489  25.848  58.068  1.00  0.00     0.345 C 
HETATM   26  C   UNL     1       7.521  23.092  53.986  1.00  0.00     0.035 A 
HETATM   27 CL   UNL     1       7.749  21.857  52.813  1.00  0.00    -0.084 Cl
HETATM   28  C   UNL     1       6.644  24.143  53.715  1.00  0.00     0.035 A 
ENDBRANCH  17  18
ENDBRANCH   2  17
TORSDOF 4
ENDMDL
MODEL 9
REMARK VINA RESULT:      -9.0      3.383      7.055
REMARK  4 active torsions:
REMARK  status: ('A' for Active; 'I' for Inactive)
REMARK    1  A    between atoms: N_2  and  C_4 
REMARK    2  A    between atoms: N_2  and  C_16 
REMARK    3  A    between atoms: C_4  and  C_5 
REMARK    4  A    between atoms: C_16  and  C_17 
ROOT
HETATM    1  C   UNL     1       4.869  27.352  56.811  1.00  0.00     0.270 C 
HETATM    2  N   UNL     1       6.084  27.958  56.170  1.00  0.00    -0.064 N 
HETATM    3  H   UNL     1       6.888  27.689  56.766  1.00  0.00     0.280 HD
ENDROOT
BRANCH   2   4
HETATM    4  C   UNL     1       6.394  27.366  54.805  1.00  0.00     0.312 C 
BRANCH   4   5
HETATM    5  C   UNL     1       7.058  25.999  54.915  1.00  0.00     0.133 A 
HETATM    6  N   UNL     1       6.967  25.173  53.921  1.00  0.00    -0.233 NA
HETATM    7  C   UNL     1       7.605  23.921  54.053  1.00  0.00     0.074 A 
HETATM    8  C   UNL     1       8.318  23.557  55.201  1.00  0.00     0.061 A 
HETATM    9  C   UNL     1       7.533  23.009  52.998  1.00  0.00     0.032 A 
HETATM   10  C   UNL     1       8.380  24.537  56.297  1.00  0.00     0.259 A 
HETATM   11  C   UNL     1       8.951  22.317  55.309  1.00  0.00     0.019 A 
HETATM   12  O   UNL     1       8.976  24.331  57.344  1.00  0.00    -0.267 OA
HETATM   13  N   UNL     1       7.728  25.724  56.073  1.00  0.00    -0.309 N 
HETATM   14  H   UNL     1       7.780  26.368  56.852  1.00  0.00     0.170 HD
HETATM   15  C   UNL     1       8.871  21.419  54.247  1.00  0.00     0.001 A 
HETATM   16  C   UNL     1       8.164  21.763  53.095  1.00  0.00     0.002 A 
ENDBRANCH   4   5
ENDBRANCH   2   4
BRANCH   2  17
HETATM   17  C   UNL     1       6.061  29.464  56.141  1.00  0.00     0.276 C 
BRANCH  17  18
HETATM   18  C   UNL     1       6.961  30.113  57.156  1.00  0.00     0.003 A 
HETATM   19  C   UNL     1       8.358  30.059  57.018  1.00  0.00     0.088 A 
HETATM   20  C   UNL     1       9.199  30.627  57.982  1.00  0.00     0.001 A 
HETATM   21  O   UNL     1       8.851  29.395  55.922  1.00  0.00    -0.325 OA
HETATM   22  C   UNL     1      10.686  30.532  57.821  1.00  0.00     0.212 C 
HETATM   23  C   UNL     1       8.639  31.298  59.076  1.00  0.00     0.036 A 
HETATM   24  O   UNL     1      10.999  29.457  56.944  1.00  0.00    -0.362 OA
HETATM   25  C   UNL     1      10.262  29.591  55.739  1.00  0.00     0.345 C 
HETATM   26  C   UNL     1       7.255  31.371  59.211  1.00  0.00     0.035 A 
HETATM   27 CL   UNL     1       6.567  32.180  60.562  1.00  0.00    -0.084 Cl
HETATM   28  C   UNL     1       6.416  30.782  58.264  1.00  0.00     0.035 A 
ENDBRANCH  17  18
ENDBRANCH   2  17
TORSDOF 4
ENDMDL
MODEL 10
REMARK VINA RESULT:      -9.0      4.455      7.756
REMARK  4 active torsions:
REMARK  status: ('A' for Active; 'I' for Inactive)
REMARK    1  A    between atoms: N_2  and  C_4 
REMARK    2  A    between atoms: N_2  and  C_16 
REMARK    3  A    between atoms: C_4  and  C_5 
REMARK    4  A    between atoms: C_16  and  C_17 
ROOT
HETATM    1  C   UNL     1       4.726  25.650  53.335  1.00  0.00     0.270 C 
HETATM    2  N   UNL     1       5.731  26.407  52.516  1.00  0.00    -0.064 N 
HETATM    3  H   UNL     1       5.468  27.408  52.591  1.00  0.00     0.280 HD
ENDROOT
BRANCH   2   4
HETATM    4  C   UNL     1       7.139  26.330  53.081  1.00  0.00     0.312 C 
BRANCH   4   5
HETATM    5  C   UNL     1       7.409  24.992  53.757  1.00  0.00     0.133 A 
HETATM    6  N   UNL     1       7.557  23.933  53.024  1.00  0.00    -0.233 NA
HETATM    7  C   UNL     1       7.818  22.714  53.684  1.00  0.00     0.074 A 
HETATM    8  C   UNL     1       7.922  22.620  55.077  1.00  0.00     0.061 A 
HETATM    9  C   UNL     1       7.990  21.556  52.925  1.00  0.00     0.032 A 
HETATM   10  C   UNL     1       7.740  23.856  55.853  1.00  0.00     0.259 A 
HETATM   11  C   UNL     1       8.192  21.405  55.712  1.00  0.00     0.019 A 
HETATM   12  O   UNL     1       7.811  23.894  57.073  1.00  0.00    -0.267 OA
HETATM   13  N   UNL     1       7.488  24.989  55.121  1.00  0.00    -0.309 N 
HETATM   14  H   UNL     1       7.356  25.817  55.688  1.00  0.00     0.170 HD
HETATM   15  C   UNL     1       8.362  20.258  54.939  1.00  0.00     0.001 A 
HETATM   16  C   UNL     1       8.261  20.333  53.550  1.00  0.00     0.002 A 
ENDBRANCH   4   5
ENDBRANCH   2   4
BRANCH   2  17
HETATM   17  C   UNL     1       5.691  26.067  51.049  1.00  0.00     0.276 C 
BRANCH  17  18
HETATM   18  C   UNL     1       5.107  27.148  50.182  1.00  0.00     0.003 A 
HETATM   19  C   UNL     1       4.257  26.831  49.111  1.00  0.00     0.088 A 
HETATM   20  C   UNL     1       3.744  27.832  48.278  1.00  0.00     0.001 A 
HETATM   21  O   UNL     1       3.988  25.501  48.901  1.00  0.00    -0.325 OA
HETATM   22  C   UNL     1       2.858  27.461  47.126  1.00  0.00     0.212 C 
HETATM   23  C   UNL     1       4.047  29.173  48.544  1.00  0.00     0.036 A 
HETATM   24  O   UNL     1       3.070  26.096  46.787  1.00  0.00    -0.362 OA
HETATM   25  C   UNL     1       2.937  25.288  47.946  1.00  0.00     0.345 C 
HETATM   26  C   UNL     1       4.876  29.497  49.615  1.00  0.00     0.035 A 
HETATM   27 CL   UNL     1       5.262  31.141  49.933  1.00  0.00    -0.084 Cl
HETATM   28  C   UNL     1       5.409  28.497  50.430  1.00  0.00     0.035 A 
ENDBRANCH  17  18
ENDBRANCH   2  17
TORSDOF 4
ENDMDL
