MODEL 1
REMARK VINA RESULT:      -6.5      0.000      0.000
REMARK  11 active torsions:
REMARK  status: ('A' for Active; 'I' for Inactive)
REMARK    1  A    between atoms: C_1  and  C_17 
REMARK    2  A    between atoms: C_1  and  S_18 
REMARK    3  A    between atoms: C_2  and  N_23 
REMARK    4  A    between atoms: C_3  and  C_13 
REMARK    5  A    between atoms: C_6  and  S_18 
REMARK    6  A    between atoms: C_6  and  S_19 
REMARK    7  A    between atoms: C_7  and  C_20 
REMARK    8  A    between atoms: C_7  and  C_21 
REMARK    9  A    between atoms: C_9  and  C_24 
REMARK   10  A    between atoms: C_16  and  C_17 
REMARK   11  A    between atoms: S_19  and  C_20 
ROOT
HETATM    1  C           1       4.445  26.322  53.623  0.00  0.00     0.092 C 
HETATM    2  C           1       4.055  28.663  54.021  0.00  0.00     0.156 C 
HETATM    3  C           1       5.691  26.870  54.259  0.00  0.00     0.127 C 
HETATM    4  C           1       5.593  28.378  53.916  0.00  0.00     0.136 C 
HETATM    5  C           1       6.055  28.635  52.518  0.00  0.00     0.079 C 
HETATM    6  N           1       6.572  28.743  51.484  0.00  0.00    -0.196 NA
HETATM    7  C           1       7.188  26.425  53.989  0.00  0.00     0.248 C 
HETATM    8  C           1       7.789  28.504  55.208  0.00  0.00     0.105 C 
HETATM    9  N           1       3.563  27.284  53.535  0.00  0.00    -0.350 N 
HETATM   10  N           1       8.162  27.112  55.001  0.00  0.00    -0.040 N 
HETATM   11  C           1       8.782  29.307  56.012  0.00  0.00     0.075 C 
HETATM   12  C           1       6.639  29.072  54.771  0.00  0.00     0.036 C 
HETATM   13  H           1       2.617  27.134  53.159  0.00  0.00     0.163 HD
HETATM   14  H           1       9.117  27.093  54.573  0.00  0.00     0.284 HD
HETATM   15  H           1       8.214  26.597  55.904  0.00  0.00     0.284 HD
ENDROOT
BRANCH   2  16
HETATM   16  S           1       3.484  29.921  52.832  0.00  0.00    -0.125 SA
BRANCH  16  17
HETATM   17  C           1       2.599  28.932  51.591  0.00  0.00     0.077 C 
BRANCH  17  18
HETATM   18  C           1       3.234  29.180  50.213  0.00  0.00     0.010 C 
BRANCH  18  19
HETATM   19  C           1       3.070  27.962  49.288  0.00  0.00    -0.004 C 
HETATM   20  C           1       4.265  27.005  49.386  0.00  0.00     0.005 C 
ENDBRANCH  18  19
ENDBRANCH  17  18
ENDBRANCH  16  17
ENDBRANCH   2  16
BRANCH   2  21
HETATM   21  S           1       3.567  28.890  55.764  0.00  0.00    -0.125 SA
BRANCH  21  22
HETATM   22  C           1       3.291  30.690  55.798  0.00  0.00     0.077 C 
BRANCH  22  23
HETATM   23  C           1       3.764  31.236  57.156  0.00  0.00     0.010 C 
BRANCH  23  24
HETATM   24  C           1       4.917  30.400  57.731  0.00  0.00    -0.004 C 
HETATM   25  C           1       6.191  31.236  57.919  0.00  0.00     0.005 C 
ENDBRANCH  23  24
ENDBRANCH  22  23
ENDBRANCH  21  22
ENDBRANCH   2  21
BRANCH   3  26
HETATM   26  C           1       5.703  26.639  55.727  0.00  0.00     0.105 C 
HETATM   27  N           1       5.099  26.006  56.486  0.00  0.00    -0.151 N 
ENDBRANCH   3  26
BRANCH   1  28
HETATM   28  N           1       4.237  25.111  53.309  0.00  0.00    -0.388 N 
HETATM   29  H           1       4.954  24.569  52.765  0.00  0.00     0.157 HD
HETATM   30  H           1       3.347  24.631  53.588  0.00  0.00     0.157 HD
ENDBRANCH   1  28
BRANCH   7  31
HETATM   31  C           1       7.366  24.915  53.964  0.00  0.00    -0.026 A 
HETATM   32  C           1       7.341  24.153  55.072  0.00  0.00     0.009 A 
HETATM   33  C           1       7.495  22.820  55.007  0.00  0.00     0.001 A 
HETATM   34  C           1       7.681  22.221  53.822  0.00  0.00     0.000 A 
HETATM   35  C           1       7.719  22.964  52.707  0.00  0.00     0.001 A 
HETATM   36  C           1       7.568  24.295  52.786  0.00  0.00     0.009 A 
ENDBRANCH   7  31
TORSDOF 11
ENDMDL
MODEL 2
REMARK VINA RESULT:      -5.7      3.373      7.991
REMARK  11 active torsions:
REMARK  status: ('A' for Active; 'I' for Inactive)
REMARK    1  A    between atoms: C_1  and  C_17 
REMARK    2  A    between atoms: C_1  and  S_18 
REMARK    3  A    between atoms: C_2  and  N_23 
REMARK    4  A    between atoms: C_3  and  C_13 
REMARK    5  A    between atoms: C_6  and  S_18 
REMARK    6  A    between atoms: C_6  and  S_19 
REMARK    7  A    between atoms: C_7  and  C_20 
REMARK    8  A    between atoms: C_7  and  C_21 
REMARK    9  A    between atoms: C_9  and  C_24 
REMARK   10  A    between atoms: C_16  and  C_17 
REMARK   11  A    between atoms: S_19  and  C_20 
ROOT
HETATM    1  C           1       5.305  29.981  49.381  0.00  0.00     0.092 C 
HETATM    2  C           1       4.622  27.936  50.451  0.00  0.00     0.156 C 
HETATM    3  C           1       4.034  29.541  48.711  0.00  0.00     0.127 C 
HETATM    4  C           1       4.023  28.019  49.005  0.00  0.00     0.136 C 
HETATM    5  C           1       4.914  27.290  48.052  0.00  0.00     0.079 C 
HETATM    6  N           1       5.507  26.809  47.177  0.00  0.00    -0.196 NA
HETATM    7  C           1       3.631  29.726  47.190  0.00  0.00     0.248 C 
HETATM    8  C           1       1.833  28.090  47.699  0.00  0.00     0.105 C 
HETATM    9  N           1       5.589  29.133  50.336  0.00  0.00    -0.350 N 
HETATM   10  N           1       2.145  29.302  46.953  0.00  0.00    -0.040 N 
HETATM   11  C           1       0.486  27.488  47.382  0.00  0.00     0.075 C 
HETATM   12  C           1       2.633  27.531  48.639  0.00  0.00     0.036 C 
HETATM   13  H           1       6.402  29.250  50.955  0.00  0.00     0.163 HD
HETATM   14  H           1       2.043  29.089  45.934  0.00  0.00     0.284 HD
HETATM   15  H           1       1.479  30.068  47.182  0.00  0.00     0.284 HD
ENDROOT
BRANCH   2  16
HETATM   16  S           1       5.612  26.429  50.724  0.00  0.00    -0.125 SA
BRANCH  16  17
HETATM   17  C           1       4.714  25.594  52.064  0.00  0.00     0.077 C 
BRANCH  17  18
HETATM   18  C           1       5.710  24.755  52.881  0.00  0.00     0.010 C 
BRANCH  18  19
HETATM   19  C           1       7.128  24.826  52.289  0.00  0.00    -0.004 C 
HETATM   20  C           1       8.015  23.679  52.791  0.00  0.00     0.005 C 
ENDBRANCH  18  19
ENDBRANCH  17  18
ENDBRANCH  16  17
ENDBRANCH   2  16
BRANCH   2  21
HETATM   21  S           1       3.342  28.321  51.693  0.00  0.00    -0.125 SA
BRANCH  21  22
HETATM   22  C           1       4.331  29.245  52.911  0.00  0.00     0.077 C 
BRANCH  22  23
HETATM   23  C           1       4.290  28.493  54.253  0.00  0.00     0.010 C 
BRANCH  23  24
HETATM   24  C           1       5.676  28.439  54.913  0.00  0.00    -0.004 C 
HETATM   25  C           1       6.789  28.184  53.887  0.00  0.00     0.005 C 
ENDBRANCH  23  24
ENDBRANCH  22  23
ENDBRANCH  21  22
ENDBRANCH   2  21
BRANCH   3  26
HETATM   26  C           1       2.847  30.221  49.290  0.00  0.00     0.105 C 
HETATM   27  N           1       2.649  31.123  49.990  0.00  0.00    -0.151 N 
ENDBRANCH   3  26
BRANCH   1  28
HETATM   28  N           1       5.949  31.045  49.136  0.00  0.00    -0.388 N 
HETATM   29  H           1       6.376  31.603  49.917  0.00  0.00     0.157 HD
HETATM   30  H           1       6.066  31.386  48.151  0.00  0.00     0.157 HD
ENDBRANCH   1  28
BRANCH   7  31
HETATM   31  C           1       3.913  31.126  46.665  0.00  0.00    -0.026 A 
HETATM   32  C           1       3.098  32.173  46.888  0.00  0.00     0.009 A 
HETATM   33  C           1       3.387  33.396  46.414  0.00  0.00     0.001 A 
HETATM   34  C           1       4.504  33.595  45.698  0.00  0.00     0.000 A 
HETATM   35  C           1       5.322  32.561  45.456  0.00  0.00     0.001 A 
HETATM   36  C           1       5.022  31.344  45.933  0.00  0.00     0.009 A 
ENDBRANCH   7  31
TORSDOF 11
ENDMDL
MODEL 3
REMARK VINA RESULT:      -5.5     16.684     20.037
REMARK  11 active torsions:
REMARK  status: ('A' for Active; 'I' for Inactive)
REMARK    1  A    between atoms: C_1  and  C_17 
REMARK    2  A    between atoms: C_1  and  S_18 
REMARK    3  A    between atoms: C_2  and  N_23 
REMARK    4  A    between atoms: C_3  and  C_13 
REMARK    5  A    between atoms: C_6  and  S_18 
REMARK    6  A    between atoms: C_6  and  S_19 
REMARK    7  A    between atoms: C_7  and  C_20 
REMARK    8  A    between atoms: C_7  and  C_21 
REMARK    9  A    between atoms: C_9  and  C_24 
REMARK   10  A    between atoms: C_16  and  C_17 
REMARK   11  A    between atoms: S_19  and  C_20 
ROOT
HETATM    1  C           1      14.812   8.356  52.991  0.00  0.00     0.092 C 
HETATM    2  C           1      13.033   9.438  54.198  0.00  0.00     0.156 C 
HETATM    3  C           1      14.414   9.565  52.192  0.00  0.00     0.127 C 
HETATM    4  C           1      12.963   9.811  52.677  0.00  0.00     0.136 C 
HETATM    5  C           1      12.010   8.894  51.980  0.00  0.00     0.079 C 
HETATM    6  N           1      11.344   8.250  51.281  0.00  0.00    -0.196 NA
HETATM    7  C           1      14.414   9.722  50.615  0.00  0.00     0.248 C 
HETATM    8  C           1      13.071  11.767  51.043  0.00  0.00     0.105 C 
HETATM    9  N           1      14.089   8.321  54.081  0.00  0.00    -0.350 N 
HETATM   10  N           1      14.118  11.201  50.204  0.00  0.00    -0.040 N 
HETATM   11  C           1      12.575  13.121  50.599  0.00  0.00     0.075 C 
HETATM   12  C           1      12.576  11.186  52.163  0.00  0.00     0.036 C 
HETATM   13  H           1      14.210   7.595  54.800  0.00  0.00     0.163 HD
HETATM   14  H           1      13.769  11.184  49.218  0.00  0.00     0.284 HD
HETATM   15  H           1      14.977  11.790  50.223  0.00  0.00     0.284 HD
ENDROOT
BRANCH   2  16
HETATM   16  S           1      11.487   8.697  54.818  0.00  0.00    -0.125 SA
BRANCH  16  17
HETATM   17  C           1      10.461  10.151  55.186  0.00  0.00     0.077 C 
BRANCH  17  18
HETATM   18  C           1       9.291  10.196  54.191  0.00  0.00     0.010 C 
BRANCH  18  19
HETATM   19  C           1       9.036  11.626  53.683  0.00  0.00    -0.004 C 
HETATM   20  C           1       7.634  12.125  54.059  0.00  0.00     0.005 C 
ENDBRANCH  18  19
ENDBRANCH  17  18
ENDBRANCH  16  17
ENDBRANCH   2  16
BRANCH   2  21
HETATM   21  S           1      13.731  10.822  55.161  0.00  0.00    -0.125 SA
BRANCH  21  22
HETATM   22  C           1      14.840   9.915  56.285  0.00  0.00     0.077 C 
BRANCH  22  23
HETATM   23  C           1      16.128  10.734  56.475  0.00  0.00     0.010 C 
BRANCH  23  24
HETATM   24  C           1      17.294   9.852  56.949  0.00  0.00    -0.004 C 
HETATM   25  C           1      17.839  10.308  58.309  0.00  0.00     0.005 C 
ENDBRANCH  23  24
ENDBRANCH  22  23
ENDBRANCH  21  22
ENDBRANCH   2  21
BRANCH   3  26
HETATM   26  C           1      15.295  10.726  52.482  0.00  0.00     0.105 C 
HETATM   27  N           1      16.298  10.908  53.034  0.00  0.00    -0.151 N 
ENDBRANCH   3  26
BRANCH   1  28
HETATM   28  N           1      15.753   7.554  52.714  0.00  0.00    -0.388 N 
HETATM   29  H           1      15.632   6.520  52.852  0.00  0.00     0.157 HD
HETATM   30  H           1      16.667   7.908  52.342  0.00  0.00     0.157 HD
ENDBRANCH   1  28
BRANCH   7  31
HETATM   31  C           1      15.682   9.193  49.963  0.00  0.00    -0.026 A 
HETATM   32  C           1      16.853   9.854  49.989  0.00  0.00     0.009 A 
HETATM   33  C           1      17.953   9.348  49.407  0.00  0.00     0.001 A 
HETATM   34  C           1      17.900   8.164  48.781  0.00  0.00     0.000 A 
HETATM   35  C           1      16.740   7.496  48.735  0.00  0.00     0.001 A 
HETATM   36  C           1      15.646   8.012  49.316  0.00  0.00     0.009 A 
ENDBRANCH   7  31
TORSDOF 11
ENDMDL
MODEL 4
REMARK VINA RESULT:      -5.5      2.871      7.463
REMARK  11 active torsions:
REMARK  status: ('A' for Active; 'I' for Inactive)
REMARK    1  A    between atoms: C_1  and  C_17 
REMARK    2  A    between atoms: C_1  and  S_18 
REMARK    3  A    between atoms: C_2  and  N_23 
REMARK    4  A    between atoms: C_3  and  C_13 
REMARK    5  A    between atoms: C_6  and  S_18 
REMARK    6  A    between atoms: C_6  and  S_19 
REMARK    7  A    between atoms: C_7  and  C_20 
REMARK    8  A    between atoms: C_7  and  C_21 
REMARK    9  A    between atoms: C_9  and  C_24 
REMARK   10  A    between atoms: C_16  and  C_17 
REMARK   11  A    between atoms: S_19  and  C_20 
ROOT
HETATM    1  C           1       2.314  29.016  51.223  0.00  0.00     0.092 C 
HETATM    2  C           1       4.215  29.369  52.656  0.00  0.00     0.156 C 
HETATM    3  C           1       3.272  29.894  50.469  0.00  0.00     0.127 C 
HETATM    4  C           1       4.095  30.535  51.616  0.00  0.00     0.136 C 
HETATM    5  C           1       3.349  31.677  52.227  0.00  0.00     0.079 C 
HETATM    6  N           1       2.758  32.630  52.526  0.00  0.00    -0.196 NA
HETATM    7  C           1       2.920  31.050  49.443  0.00  0.00     0.248 C 
HETATM    8  C           1       5.306  31.692  49.691  0.00  0.00     0.105 C 
HETATM    9  N           1       2.847  28.712  52.378  0.00  0.00    -0.350 N 
HETATM   10  N           1       4.210  31.579  48.738  0.00  0.00    -0.040 N 
HETATM   11  C           1       6.536  32.381  49.154  0.00  0.00     0.075 C 
HETATM   12  C           1       5.288  31.201  50.954  0.00  0.00     0.036 C 
HETATM   13  H           1       2.383  28.090  53.054  0.00  0.00     0.163 HD
HETATM   14  H           1       3.995  32.538  48.378  0.00  0.00     0.284 HD
HETATM   15  H           1       4.479  30.991  47.922  0.00  0.00     0.284 HD
ENDROOT
BRANCH   2  16
HETATM   16  S           1       4.222  29.957  54.382  0.00  0.00    -0.125 SA
BRANCH  16  17
HETATM   17  C           1       5.622  29.054  55.109  0.00  0.00     0.077 C 
BRANCH  17  18
HETATM   18  C           1       5.077  27.949  56.027  0.00  0.00     0.010 C 
BRANCH  18  19
HETATM   19  C           1       6.089  26.802  56.194  0.00  0.00    -0.004 C 
HETATM   20  C           1       5.392  25.450  56.392  0.00  0.00     0.005 C 
ENDBRANCH  18  19
ENDBRANCH  17  18
ENDBRANCH  16  17
ENDBRANCH   2  16
BRANCH   2  21
HETATM   21  S           1       5.542  28.215  52.169  0.00  0.00    -0.125 SA
BRANCH  21  22
HETATM   22  C           1       4.761  26.622  52.581  0.00  0.00     0.077 C 
BRANCH  22  23
HETATM   23  C           1       5.498  25.502  51.827  0.00  0.00     0.010 C 
BRANCH  23  24
HETATM   24  C           1       6.146  24.500  52.795  0.00  0.00    -0.004 C 
HETATM   25  C           1       7.594  24.882  53.129  0.00  0.00     0.005 C 
ENDBRANCH  23  24
ENDBRANCH  22  23
ENDBRANCH  21  22
ENDBRANCH   2  21
BRANCH   3  26
HETATM   26  C           1       4.132  29.103  49.551  0.00  0.00     0.105 C 
HETATM   27  N           1       4.199  28.002  49.196  0.00  0.00    -0.151 N 
ENDBRANCH   3  26
BRANCH   1  28
HETATM   28  N           1       1.215  28.561  50.785  0.00  0.00    -0.388 N 
HETATM   29  H           1       0.383  29.192  50.671  0.00  0.00     0.157 HD
HETATM   30  H           1       1.118  27.549  50.528  0.00  0.00     0.157 HD
ENDBRANCH   1  28
BRANCH   7  31
HETATM   31  C           1       1.848  30.651  48.441  0.00  0.00    -0.026 A 
HETATM   32  C           1       2.073  29.804  47.420  0.00  0.00     0.009 A 
HETATM   33  C           1       1.096  29.471  46.561  0.00  0.00     0.001 A 
HETATM   34  C           1      -0.134  29.984  46.706  0.00  0.00     0.000 A 
HETATM   35  C           1      -0.375  30.838  47.711  0.00  0.00     0.001 A 
HETATM   36  C           1       0.609  31.166  48.561  0.00  0.00     0.009 A 
ENDBRANCH   7  31
TORSDOF 11
ENDMDL
MODEL 5
REMARK VINA RESULT:      -5.4      3.348      8.338
REMARK  11 active torsions:
REMARK  status: ('A' for Active; 'I' for Inactive)
REMARK    1  A    between atoms: C_1  and  C_17 
REMARK    2  A    between atoms: C_1  and  S_18 
REMARK    3  A    between atoms: C_2  and  N_23 
REMARK    4  A    between atoms: C_3  and  C_13 
REMARK    5  A    between atoms: C_6  and  S_18 
REMARK    6  A    between atoms: C_6  and  S_19 
REMARK    7  A    between atoms: C_7  and  C_20 
REMARK    8  A    between atoms: C_7  and  C_21 
REMARK    9  A    between atoms: C_9  and  C_24 
REMARK   10  A    between atoms: C_16  and  C_17 
REMARK   11  A    between atoms: S_19  and  C_20 
ROOT
HETATM    1  C           1       2.406  29.102  50.800  0.00  0.00     0.092 C 
HETATM    2  C           1       4.759  28.808  51.214  0.00  0.00     0.156 C 
HETATM    3  C           1       3.099  30.328  50.275  0.00  0.00     0.127 C 
HETATM    4  C           1       4.414  30.332  51.094  0.00  0.00     0.136 C 
HETATM    5  C           1       4.187  30.903  52.457  0.00  0.00     0.079 C 
HETATM    6  N           1       3.939  31.493  53.425  0.00  0.00    -0.196 NA
HETATM    7  C           1       2.550  31.815  50.263  0.00  0.00     0.248 C 
HETATM    8  C           1       4.896  32.438  49.737  0.00  0.00     0.105 C 
HETATM    9  N           1       3.311  28.280  51.266  0.00  0.00    -0.350 N 
HETATM   10  N           1       3.503  32.751  49.451  0.00  0.00    -0.040 N 
HETATM   11  C           1       5.890  33.415  49.157  0.00  0.00     0.075 C 
HETATM   12  C           1       5.320  31.352  50.427  0.00  0.00     0.036 C 
HETATM   13  H           1       3.072  27.355  51.649  0.00  0.00     0.163 HD
HETATM   14  H           1       3.319  33.731  49.770  0.00  0.00     0.284 HD
HETATM   15  H           1       3.309  32.714  48.429  0.00  0.00     0.284 HD
ENDROOT
BRANCH   2  16
HETATM   16  S           1       5.575  28.387  52.789  0.00  0.00    -0.125 SA
BRANCH  16  17
HETATM   17  C           1       5.040  26.674  53.074  0.00  0.00     0.077 C 
BRANCH  17  18
HETATM   18  C           1       6.257  25.839  53.503  0.00  0.00     0.010 C 
BRANCH  18  19
HETATM   19  C           1       6.235  24.439  52.864  0.00  0.00    -0.004 C 
HETATM   20  C           1       7.638  23.820  52.797  0.00  0.00     0.005 C 
ENDBRANCH  18  19
ENDBRANCH  17  18
ENDBRANCH  16  17
ENDBRANCH   2  16
BRANCH   2  21
HETATM   21  S           1       5.556  28.214  49.684  0.00  0.00    -0.125 SA
BRANCH  21  22
HETATM   22  C           1       4.695  26.625  49.458  0.00  0.00     0.077 C 
BRANCH  22  23
HETATM   23  C           1       4.530  26.363  47.952  0.00  0.00     0.010 C 
BRANCH  23  24
HETATM   24  C           1       3.317  25.464  47.664  0.00  0.00    -0.004 C 
HETATM   25  C           1       2.189  26.233  46.964  0.00  0.00     0.005 C 
ENDBRANCH  23  24
ENDBRANCH  22  23
ENDBRANCH  21  22
ENDBRANCH   2  21
BRANCH   3  26
HETATM   26  C           1       3.360  30.227  48.816  0.00  0.00     0.105 C 
HETATM   27  N           1       2.973  29.585  47.932  0.00  0.00    -0.151 N 
ENDBRANCH   3  26
BRANCH   1  28
HETATM   28  N           1       1.166  28.853  50.720  0.00  0.00    -0.388 N 
HETATM   29  H           1       0.828  27.942  50.321  0.00  0.00     0.157 HD
HETATM   30  H           1       0.457  29.551  51.051  0.00  0.00     0.157 HD
ENDBRANCH   1  28
BRANCH   7  31
HETATM   31  C           1       1.110  31.915  49.783  0.00  0.00    -0.026 A 
HETATM   32  C           1       0.768  31.945  48.482  0.00  0.00     0.009 A 
HETATM   33  C           1      -0.517  32.026  48.100  0.00  0.00     0.001 A 
HETATM   34  C           1      -1.491  32.082  49.019  0.00  0.00     0.000 A 
HETATM   35  C           1      -1.170  32.065  50.321  0.00  0.00     0.001 A 
HETATM   36  C           1       0.117  31.987  50.691  0.00  0.00     0.009 A 
ENDBRANCH   7  31
TORSDOF 11
ENDMDL
MODEL 6
REMARK VINA RESULT:      -5.4     16.438     19.500
REMARK  11 active torsions:
REMARK  status: ('A' for Active; 'I' for Inactive)
REMARK    1  A    between atoms: C_1  and  C_17 
REMARK    2  A    between atoms: C_1  and  S_18 
REMARK    3  A    between atoms: C_2  and  N_23 
REMARK    4  A    between atoms: C_3  and  C_13 
REMARK    5  A    between atoms: C_6  and  S_18 
REMARK    6  A    between atoms: C_6  and  S_19 
REMARK    7  A    between atoms: C_7  and  C_20 
REMARK    8  A    between atoms: C_7  and  C_21 
REMARK    9  A    between atoms: C_9  and  C_24 
REMARK   10  A    between atoms: C_16  and  C_17 
REMARK   11  A    between atoms: S_19  and  C_20 
ROOT
HETATM    1  C           1      12.931   9.255  52.771  0.00  0.00     0.092 C 
HETATM    2  C           1      12.013   9.461  54.986  0.00  0.00     0.156 C 
HETATM    3  C           1      14.068   9.620  53.683  0.00  0.00     0.127 C 
HETATM    4  C           1      13.331  10.300  54.864  0.00  0.00     0.136 C 
HETATM    5  C           1      12.992  11.718  54.530  0.00  0.00     0.079 C 
HETATM    6  N           1      12.913  12.836  54.231  0.00  0.00    -0.196 NA
HETATM    7  C           1      15.331  10.514  53.342  0.00  0.00     0.248 C 
HETATM    8  C           1      15.691  10.549  55.799  0.00  0.00     0.105 C 
HETATM    9  N           1      11.843   9.137  53.487  0.00  0.00    -0.350 N 
HETATM   10  N           1      16.368  10.481  54.511  0.00  0.00    -0.040 N 
HETATM   11  C           1      16.611  10.723  56.982  0.00  0.00     0.075 C 
HETATM   12  C           1      14.353  10.431  55.978  0.00  0.00     0.036 C 
HETATM   13  H           1      10.940   8.860  53.079  0.00  0.00     0.163 HD
HETATM   14  H           1      16.969  11.333  54.416  0.00  0.00     0.284 HD
HETATM   15  H           1      16.992   9.650  54.456  0.00  0.00     0.284 HD
ENDROOT
BRANCH   2  16
HETATM   16  S           1      10.582  10.459  55.517  0.00  0.00    -0.125 SA
BRANCH  16  17
HETATM   17  C           1       9.416  10.259  54.138  0.00  0.00     0.077 C 
BRANCH  17  18
HETATM   18  C           1       8.849  11.638  53.763  0.00  0.00     0.010 C 
BRANCH  18  19
HETATM   19  C           1       7.376  11.776  54.184  0.00  0.00    -0.004 C 
HETATM   20  C           1       6.742  10.416  54.503  0.00  0.00     0.005 C 
ENDBRANCH  18  19
ENDBRANCH  17  18
ENDBRANCH  16  17
ENDBRANCH   2  16
BRANCH   2  21
HETATM   21  S           1      12.326   7.913  55.899  0.00  0.00    -0.125 SA
BRANCH  21  22
HETATM   22  C           1      11.309   8.194  57.383  0.00  0.00     0.077 C 
BRANCH  22  23
HETATM   23  C           1      12.204   8.770  58.494  0.00  0.00     0.010 C 
BRANCH  23  24
HETATM   24  C           1      11.587  10.030  59.121  0.00  0.00    -0.004 C 
HETATM   25  C           1      11.686  10.013  60.652  0.00  0.00     0.005 C 
ENDBRANCH  23  24
ENDBRANCH  22  23
ENDBRANCH  21  22
ENDBRANCH   2  21
BRANCH   3  26
HETATM   26  C           1      14.822   8.418  54.125  0.00  0.00     0.105 C 
HETATM   27  N           1      14.902   7.307  53.805  0.00  0.00    -0.151 N 
ENDBRANCH   3  26
BRANCH   1  28
HETATM   28  N           1      13.019   9.006  51.531  0.00  0.00    -0.388 N 
HETATM   29  H           1      13.940   9.090  51.033  0.00  0.00     0.157 HD
HETATM   30  H           1      12.175   8.712  50.983  0.00  0.00     0.157 HD
ENDBRANCH   1  28
BRANCH   7  31
HETATM   31  C           1      15.968  10.162  52.006  0.00  0.00    -0.026 A 
HETATM   32  C           1      15.575  10.702  50.838  0.00  0.00     0.009 A 
HETATM   33  C           1      16.169  10.369  49.680  0.00  0.00     0.001 A 
HETATM   34  C           1      17.173   9.481  49.669  0.00  0.00     0.000 A 
HETATM   35  C           1      17.571   8.923  50.821  0.00  0.00     0.001 A 
HETATM   36  C           1      16.968   9.261  51.971  0.00  0.00     0.009 A 
ENDBRANCH   7  31
TORSDOF 11
ENDMDL
MODEL 7
REMARK VINA RESULT:      -5.1      3.719      6.954
REMARK  11 active torsions:
REMARK  status: ('A' for Active; 'I' for Inactive)
REMARK    1  A    between atoms: C_1  and  C_17 
REMARK    2  A    between atoms: C_1  and  S_18 
REMARK    3  A    between atoms: C_2  and  N_23 
REMARK    4  A    between atoms: C_3  and  C_13 
REMARK    5  A    between atoms: C_6  and  S_18 
REMARK    6  A    between atoms: C_6  and  S_19 
REMARK    7  A    between atoms: C_7  and  C_20 
REMARK    8  A    between atoms: C_7  and  C_21 
REMARK    9  A    between atoms: C_9  and  C_24 
REMARK   10  A    between atoms: C_16  and  C_17 
REMARK   11  A    between atoms: S_19  and  C_20 
ROOT
HETATM    1  C           1       4.697  30.113  50.379  0.00  0.00     0.092 C 
HETATM    2  C           1       3.297  30.646  48.496  0.00  0.00     0.156 C 
HETATM    3  C           1       4.329  28.811  49.727  0.00  0.00     0.127 C 
HETATM    4  C           1       3.022  29.181  48.981  0.00  0.00     0.136 C 
HETATM    5  C           1       1.857  29.175  49.918  0.00  0.00     0.079 C 
HETATM    6  N           1       1.008  28.995  50.689  0.00  0.00    -0.196 NA
HETATM    7  C           1       4.084  27.413  50.434  0.00  0.00     0.248 C 
HETATM    8  C           1       3.102  26.737  48.255  0.00  0.00     0.105 C 
HETATM    9  N           1       4.169  31.090  49.688  0.00  0.00    -0.350 N 
HETATM   10  N           1       3.914  26.277  49.373  0.00  0.00    -0.040 N 
HETATM   11  C           1       2.715  25.656  47.276  0.00  0.00     0.075 C 
HETATM   12  C           1       2.731  28.023  48.043  0.00  0.00     0.036 C 
HETATM   13  H           1       4.315  32.080  49.930  0.00  0.00     0.163 HD
HETATM   14  H           1       3.406  25.491  49.841  0.00  0.00     0.284 HD
HETATM   15  H           1       4.831  25.907  49.047  0.00  0.00     0.284 HD
ENDROOT
BRANCH   2  16
HETATM   16  S           1       1.795  31.680  48.474  0.00  0.00    -0.125 SA
BRANCH  16  17
HETATM   17  C           1       1.077  31.313  46.846  0.00  0.00     0.077 C 
BRANCH  17  18
HETATM   18  C           1      -0.072  30.308  47.025  0.00  0.00     0.010 C 
BRANCH  18  19
HETATM   19  C           1      -0.163  29.335  45.837  0.00  0.00    -0.004 C 
HETATM   20  C           1      -0.440  27.897  46.296  0.00  0.00     0.005 C 
ENDBRANCH  18  19
ENDBRANCH  17  18
ENDBRANCH  16  17
ENDBRANCH   2  16
BRANCH   2  21
HETATM   21  S           1       4.316  30.634  46.983  0.00  0.00    -0.125 SA
BRANCH  21  22
HETATM   22  C           1       5.251  32.181  47.203  0.00  0.00     0.077 C 
BRANCH  22  23
HETATM   23  C           1       5.592  32.753  45.816  0.00  0.00     0.010 C 
BRANCH  23  24
HETATM   24  C           1       6.935  33.501  45.828  0.00  0.00    -0.004 C 
HETATM   25  C           1       7.382  33.850  47.254  0.00  0.00     0.005 C 
ENDBRANCH  23  24
ENDBRANCH  22  23
ENDBRANCH  21  22
ENDBRANCH   2  21
BRANCH   3  26
HETATM   26  C           1       5.385  28.349  48.790  0.00  0.00     0.105 C 
HETATM   27  N           1       6.466  28.665  48.515  0.00  0.00    -0.151 N 
ENDBRANCH   3  26
BRANCH   1  28
HETATM   28  N           1       5.470  30.258  51.374  0.00  0.00    -0.388 N 
HETATM   29  H           1       6.406  29.781  51.398  0.00  0.00     0.157 HD
HETATM   30  H           1       5.189  30.855  52.189  0.00  0.00     0.157 HD
ENDBRANCH   1  28
BRANCH   7  31
HETATM   31  C           1       5.148  27.073  51.466  0.00  0.00    -0.026 A 
HETATM   32  C           1       5.267  27.718  52.641  0.00  0.00     0.009 A 
HETATM   33  C           1       6.216  27.382  53.529  0.00  0.00     0.001 A 
HETATM   34  C           1       7.073  26.388  53.256  0.00  0.00     0.000 A 
HETATM   35  C           1       6.978  25.740  52.086  0.00  0.00     0.001 A 
HETATM   36  C           1       6.028  26.087  51.205  0.00  0.00     0.009 A 
ENDBRANCH   7  31
TORSDOF 11
ENDMDL
MODEL 8
REMARK VINA RESULT:      -5.0      4.720      8.430
REMARK  11 active torsions:
REMARK  status: ('A' for Active; 'I' for Inactive)
REMARK    1  A    between atoms: C_1  and  C_17 
REMARK    2  A    between atoms: C_1  and  S_18 
REMARK    3  A    between atoms: C_2  and  N_23 
REMARK    4  A    between atoms: C_3  and  C_13 
REMARK    5  A    between atoms: C_6  and  S_18 
REMARK    6  A    between atoms: C_6  and  S_19 
REMARK    7  A    between atoms: C_7  and  C_20 
REMARK    8  A    between atoms: C_7  and  C_21 
REMARK    9  A    between atoms: C_9  and  C_24 
REMARK   10  A    between atoms: C_16  and  C_17 
REMARK   11  A    between atoms: S_19  and  C_20 
ROOT
HETATM    1  C           1       5.132  30.427  49.086  0.00  0.00     0.092 C 
HETATM    2  C           1       3.812  31.455  47.357  0.00  0.00     0.156 C 
HETATM    3  C           1       4.037  29.458  48.739  0.00  0.00     0.127 C 
HETATM    4  C           1       2.960  30.392  48.132  0.00  0.00     0.136 C 
HETATM    5  C           1       2.177  31.069  49.211  0.00  0.00     0.079 C 
HETATM    6  N           1       1.538  31.420  50.114  0.00  0.00    -0.196 NA
HETATM    7  C           1       3.292  28.454  49.713  0.00  0.00     0.248 C 
HETATM    8  C           1       1.662  28.213  47.853  0.00  0.00     0.105 C 
HETATM    9  N           1       5.022  31.476  48.313  0.00  0.00    -0.350 N 
HETATM   10  N           1       2.359  27.491  48.909  0.00  0.00    -0.040 N 
HETATM   11  C           1       0.591  27.416  47.150  0.00  0.00     0.075 C 
HETATM   12  C           1       1.941  29.483  47.469  0.00  0.00     0.036 C 
HETATM   13  H           1       5.687  32.261  48.349  0.00  0.00     0.163 HD
HETATM   14  H           1       1.642  27.125  49.578  0.00  0.00     0.284 HD
HETATM   15  H           1       2.878  26.673  48.528  0.00  0.00     0.284 HD
ENDROOT
BRANCH   2  16
HETATM   16  S           1       3.054  33.114  47.363  0.00  0.00    -0.125 SA
BRANCH  16  17
HETATM   17  C           1       4.421  34.179  47.909  0.00  0.00     0.077 C 
BRANCH  17  18
HETATM   18  C           1       5.126  34.755  46.670  0.00  0.00     0.010 C 
BRANCH  18  19
HETATM   19  C           1       6.643  34.509  46.718  0.00  0.00    -0.004 C 
HETATM   20  C           1       7.095  33.511  45.644  0.00  0.00     0.005 C 
ENDBRANCH  18  19
ENDBRANCH  17  18
ENDBRANCH  16  17
ENDBRANCH   2  16
BRANCH   2  21
HETATM   21  S           1       4.339  30.793  45.741  0.00  0.00    -0.125 SA
BRANCH  21  22
HETATM   22  C           1       3.409  31.883  44.618  0.00  0.00     0.077 C 
BRANCH  22  23
HETATM   23  C           1       4.345  32.339  43.486  0.00  0.00     0.010 C 
BRANCH  23  24
HETATM   24  C           1       4.127  33.819  43.134  0.00  0.00    -0.004 C 
HETATM   25  C           1       2.819  34.361  43.728  0.00  0.00     0.005 C 
ENDBRANCH  23  24
ENDBRANCH  22  23
ENDBRANCH  21  22
ENDBRANCH   2  21
BRANCH   3  26
HETATM   26  C           1       4.497  28.440  47.759  0.00  0.00     0.105 C 
HETATM   27  N           1       5.512  28.083  47.327  0.00  0.00    -0.151 N 
ENDBRANCH   3  26
BRANCH   1  28
HETATM   28  N           1       6.068  30.229  49.918  0.00  0.00    -0.388 N 
HETATM   29  H           1       6.902  29.646  49.656  0.00  0.00     0.157 HD
HETATM   30  H           1       6.025  30.642  50.881  0.00  0.00     0.157 HD
ENDBRANCH   1  28
BRANCH   7  31
HETATM   31  C           1       4.241  27.696  50.627  0.00  0.00    -0.026 A 
HETATM   32  C           1       4.869  26.564  50.260  0.00  0.00     0.009 A 
HETATM   33  C           1       5.706  25.927  51.095  0.00  0.00     0.001 A 
HETATM   34  C           1       5.931  26.413  52.324  0.00  0.00     0.000 A 
HETATM   35  C           1       5.306  27.534  52.712  0.00  0.00     0.001 A 
HETATM   36  C           1       4.469  28.159  51.871  0.00  0.00     0.009 A 
ENDBRANCH   7  31
TORSDOF 11
ENDMDL
MODEL 9
REMARK VINA RESULT:      -4.9      3.935      6.749
REMARK  11 active torsions:
REMARK  status: ('A' for Active; 'I' for Inactive)
REMARK    1  A    between atoms: C_1  and  C_17 
REMARK    2  A    between atoms: C_1  and  S_18 
REMARK    3  A    between atoms: C_2  and  N_23 
REMARK    4  A    between atoms: C_3  and  C_13 
REMARK    5  A    between atoms: C_6  and  S_18 
REMARK    6  A    between atoms: C_6  and  S_19 
REMARK    7  A    between atoms: C_7  and  C_20 
REMARK    8  A    between atoms: C_7  and  C_21 
REMARK    9  A    between atoms: C_9  and  C_24 
REMARK   10  A    between atoms: C_16  and  C_17 
REMARK   11  A    between atoms: S_19  and  C_20 
ROOT
HETATM    1  C           1       2.018  29.226  50.524  0.00  0.00     0.092 C 
HETATM    2  C           1       2.016  30.209  48.327  0.00  0.00     0.156 C 
HETATM    3  C           1       3.257  30.071  50.422  0.00  0.00     0.127 C 
HETATM    4  C           1       3.476  30.139  48.889  0.00  0.00     0.136 C 
HETATM    5  C           1       4.144  28.895  48.395  0.00  0.00     0.079 C 
HETATM    6  N           1       4.793  27.967  48.142  0.00  0.00    -0.196 NA
HETATM    7  C           1       4.669  29.796  51.086  0.00  0.00     0.248 C 
HETATM    8  C           1       5.486  31.566  49.547  0.00  0.00     0.105 C 
HETATM    9  N           1       1.343  29.338  49.408  0.00  0.00    -0.350 N 
HETATM   10  N           1       5.622  31.020  50.890  0.00  0.00    -0.040 N 
HETATM   11  C           1       6.504  32.622  49.194  0.00  0.00     0.075 C 
HETATM   12  C           1       4.520  31.218  48.663  0.00  0.00     0.036 C 
HETATM   13  H           1       0.438  28.872  49.261  0.00  0.00     0.163 HD
HETATM   14  H           1       6.602  30.669  51.000  0.00  0.00     0.284 HD
HETATM   15  H           1       5.469  31.753  51.613  0.00  0.00     0.284 HD
ENDROOT
BRANCH   2  16
HETATM   16  S           1       1.832  29.364  46.722  0.00  0.00    -0.125 SA
BRANCH  16  17
HETATM   17  C           1       0.877  27.879  47.155  0.00  0.00     0.077 C 
BRANCH  17  18
HETATM   18  C           1      -0.133  27.594  46.032  0.00  0.00     0.010 C 
BRANCH  18  19
HETATM   19  C           1      -1.241  28.660  45.984  0.00  0.00    -0.004 C 
HETATM   20  C           1      -1.488  29.164  44.556  0.00  0.00     0.005 C 
ENDBRANCH  18  19
ENDBRANCH  17  18
ENDBRANCH  16  17
ENDBRANCH   2  16
BRANCH   2  21
HETATM   21  S           1       1.369  31.911  48.444  0.00  0.00    -0.125 SA
BRANCH  21  22
HETATM   22  C           1      -0.405  31.576  48.681  0.00  0.00     0.077 C 
BRANCH  22  23
HETATM   23  C           1      -0.848  32.185  50.021  0.00  0.00     0.010 C 
BRANCH  23  24
HETATM   24  C           1      -2.310  31.839  50.344  0.00  0.00    -0.004 C 
HETATM   25  C           1      -2.617  31.992  51.840  0.00  0.00     0.005 C 
ENDBRANCH  23  24
ENDBRANCH  22  23
ENDBRANCH  21  22
ENDBRANCH   2  21
BRANCH   3  26
HETATM   26  C           1       3.048  31.420  51.008  0.00  0.00     0.105 C 
HETATM   27  N           1       2.263  31.932  51.689  0.00  0.00    -0.151 N 
ENDBRANCH   3  26
BRANCH   1  28
HETATM   28  N           1       1.632  28.586  51.548  0.00  0.00    -0.388 N 
HETATM   29  H           1       1.271  27.604  51.460  0.00  0.00     0.157 HD
HETATM   30  H           1       1.667  29.026  52.499  0.00  0.00     0.157 HD
ENDBRANCH   1  28
BRANCH   7  31
HETATM   31  C           1       4.570  29.379  52.545  0.00  0.00    -0.026 A 
HETATM   32  C           1       4.328  30.248  53.544  0.00  0.00     0.009 A 
HETATM   33  C           1       4.240  29.839  54.820  0.00  0.00     0.001 A 
HETATM   34  C           1       4.399  28.542  55.124  0.00  0.00     0.000 A 
HETATM   35  C           1       4.652  27.663  54.144  0.00  0.00     0.001 A 
HETATM   36  C           1       4.741  28.084  52.874  0.00  0.00     0.009 A 
ENDBRANCH   7  31
TORSDOF 11
ENDMDL
MODEL 10
REMARK VINA RESULT:      -4.9      4.249      7.852
REMARK  11 active torsions:
REMARK  status: ('A' for Active; 'I' for Inactive)
REMARK    1  A    between atoms: C_1  and  C_17 
REMARK    2  A    between atoms: C_1  and  S_18 
REMARK    3  A    between atoms: C_2  and  N_23 
REMARK    4  A    between atoms: C_3  and  C_13 
REMARK    5  A    between atoms: C_6  and  S_18 
REMARK    6  A    between atoms: C_6  and  S_19 
REMARK    7  A    between atoms: C_7  and  C_20 
REMARK    8  A    between atoms: C_7  and  C_21 
REMARK    9  A    between atoms: C_9  and  C_24 
REMARK   10  A    between atoms: C_16  and  C_17 
REMARK   11  A    between atoms: S_19  and  C_20 
ROOT
HETATM    1  C           1       5.119  30.496  49.358  0.00  0.00     0.092 C 
HETATM    2  C           1       3.712  31.514  47.693  0.00  0.00     0.156 C 
HETATM    3  C           1       4.059  29.490  49.007  0.00  0.00     0.127 C 
HETATM    4  C           1       2.927  30.392  48.455  0.00  0.00     0.136 C 
HETATM    5  C           1       2.143  31.001  49.573  0.00  0.00     0.079 C 
HETATM    6  N           1       1.513  31.297  50.501  0.00  0.00    -0.196 NA
HETATM    7  C           1       3.384  28.426  49.967  0.00  0.00     0.248 C 
HETATM    8  C           1       1.720  28.167  48.141  0.00  0.00     0.105 C 
HETATM    9  N           1       4.944  31.561  48.620  0.00  0.00    -0.350 N 
HETATM   10  N           1       2.474  27.446  49.158  0.00  0.00    -0.040 N 
HETATM   11  C           1       0.667  27.344  47.440  0.00  0.00     0.075 C 
HETATM   12  C           1       1.932  29.458  47.789  0.00  0.00     0.036 C 
HETATM   13  H           1       5.574  32.374  48.663  0.00  0.00     0.163 HD
HETATM   14  H           1       1.791  27.029  49.832  0.00  0.00     0.284 HD
HETATM   15  H           1       3.018  26.663  48.739  0.00  0.00     0.284 HD
ENDROOT
BRANCH   2  16
HETATM   16  S           1       2.882  33.136  47.767  0.00  0.00    -0.125 SA
BRANCH  16  17
HETATM   17  C           1       4.052  34.144  48.726  0.00  0.00     0.077 C 
BRANCH  17  18
HETATM   18  C           1       3.406  34.507  50.072  0.00  0.00     0.010 C 
BRANCH  18  19
HETATM   19  C           1       4.103  33.795  51.244  0.00  0.00    -0.004 C 
HETATM   20  C           1       5.626  33.974  51.197  0.00  0.00     0.005 C 
ENDBRANCH  18  19
ENDBRANCH  17  18
ENDBRANCH  16  17
ENDBRANCH   2  16
BRANCH   2  21
HETATM   21  S           1       4.227  30.924  46.045  0.00  0.00    -0.125 SA
BRANCH  21  22
HETATM   22  C           1       3.828  32.383  45.032  0.00  0.00     0.077 C 
BRANCH  22  23
HETATM   23  C           1       5.137  32.978  44.486  0.00  0.00     0.010 C 
BRANCH  23  24
HETATM   24  C           1       6.146  33.254  45.613  0.00  0.00    -0.004 C 
HETATM   25  C           1       7.433  33.900  45.082  0.00  0.00     0.005 C 
ENDBRANCH  23  24
ENDBRANCH  22  23
ENDBRANCH  21  22
ENDBRANCH   2  21
BRANCH   3  26
HETATM   26  C           1       4.539  28.523  47.986  0.00  0.00     0.105 C 
HETATM   27  N           1       5.558  28.218  47.525  0.00  0.00    -0.151 N 
ENDBRANCH   3  26
BRANCH   1  28
HETATM   28  N           1       6.084  30.315  50.160  0.00  0.00    -0.388 N 
HETATM   29  H           1       7.062  30.584  49.889  0.00  0.00     0.157 HD
HETATM   30  H           1       5.921  29.895  51.108  0.00  0.00     0.157 HD
ENDBRANCH   1  28
BRANCH   7  31
HETATM   31  C           1       4.388  27.683  50.835  0.00  0.00    -0.026 A 
HETATM   32  C           1       4.783  28.123  52.044  0.00  0.00     0.009 A 
HETATM   33  C           1       5.667  27.433  52.783  0.00  0.00     0.001 A 
HETATM   34  C           1       6.179  26.283  52.322  0.00  0.00     0.000 A 
HETATM   35  C           1       5.806  25.834  51.115  0.00  0.00     0.001 A 
HETATM   36  C           1       4.925  26.534  50.384  0.00  0.00     0.009 A 
ENDBRANCH   7  31
TORSDOF 11
ENDMDL
