MODEL 1
REMARK VINA RESULT:      -9.4      0.000      0.000
REMARK  6 active torsions:
REMARK  status: ('A' for Active; 'I' for Inactive)
REMARK    1  A    between atoms: C_2  and  C_3 
REMARK       I    between atoms: C_3  and  N_4 
REMARK    2  A    between atoms: N_4  and  C_5 
REMARK    3  A    between atoms: C_7  and  N_8 
REMARK       I    between atoms: N_8  and  C_9 
REMARK    4  A    between atoms: C_9  and  C_10 
REMARK    5  A    between atoms: C_13  and  C_14 
REMARK    6  A    between atoms: C_14  and  C_15 
ROOT
HETATM    1  N   UNL     1       6.423  28.111  55.804  1.00  0.00    -0.322 N 
HETATM    2  C   UNL     1       7.258  27.797  54.746  1.00  0.00     0.256 C 
HETATM    3  O   UNL     1       7.978  28.574  54.130  1.00  0.00    -0.267 OA
HETATM    4  H   UNL     1       5.831  27.375  56.152  1.00  0.00     0.169 HD
ENDROOT
BRANCH   1   5
HETATM    5  C   UNL     1       6.373  29.328  56.534  1.00  0.00     0.043 A 
HETATM    6  C   UNL     1       7.141  29.543  57.692  1.00  0.00     0.059 A 
HETATM    7  C   UNL     1       6.979  30.696  58.467  1.00  0.00     0.036 A 
HETATM    8  C   UNL     1       6.057  31.663  58.055  1.00  0.00     0.030 A 
HETATM    9  C   UNL     1       5.312  31.482  56.891  1.00  0.00     0.011 A 
HETATM   10  C   UNL     1       5.456  30.319  56.122  1.00  0.00    -0.035 A 
HETATM   11  C   UNL     1       4.612  30.177  54.884  1.00  0.00     0.050 C 
BRANCH   7  12
HETATM   12  N   UNL     1       7.641  30.935  59.692  1.00  0.00    -0.327 N 
HETATM   13  C   UNL     1       8.761  31.714  59.911  1.00  0.00     0.221 C 
HETATM   14  O   UNL     1       9.323  32.423  59.082  1.00  0.00    -0.273 OA
HETATM   15  H   UNL     1       7.224  30.496  60.499  1.00  0.00     0.169 HD
BRANCH  13  16
HETATM   16  C   UNL     1       9.361  31.578  61.305  1.00  0.00     0.098 C 
HETATM   17  C   UNL     1       8.481  32.042  62.451  1.00  0.00     0.014 C 
ENDBRANCH  13  16
ENDBRANCH   7  12
ENDBRANCH   1   5
BRANCH   2  18
HETATM   18  C   UNL     1       7.293  26.356  54.355  1.00  0.00     0.032 A 
HETATM   19  C   UNL     1       6.844  25.324  55.188  1.00  0.00     0.017 A 
HETATM   20  C   UNL     1       6.962  23.991  54.779  1.00  0.00     0.008 A 
HETATM   21  C   UNL     1       7.519  23.670  53.531  1.00  0.00    -0.051 A 
HETATM   22  C   UNL     1       7.927  24.710  52.684  1.00  0.00     0.008 A 
HETATM   23  C   UNL     1       7.814  26.040  53.092  1.00  0.00     0.017 A 
BRANCH  21  24
HETATM   24  C   UNL     1       7.666  22.229  53.097  1.00  0.00     0.120 C 
BRANCH  24  25
HETATM   25  C   UNL     1       8.234  21.495  54.258  1.00  0.00     0.151 A 
HETATM   26  N   UNL     1       9.458  21.737  54.753  1.00  0.00    -0.158 NA
HETATM   27  N   UNL     1       9.523  20.845  55.755  1.00  0.00    -0.270 N 
HETATM   28  H   UNL     1      10.350  20.810  56.337  1.00  0.00     0.190 HD
HETATM   29  C   UNL     1       8.397  20.089  55.815  1.00  0.00     0.227 A 
HETATM   30  N   UNL     1       7.566  20.461  54.873  1.00  0.00    -0.225 NA
ENDBRANCH  24  25
ENDBRANCH  21  24
ENDBRANCH   2  18
TORSDOF 6
ENDMDL
MODEL 2
REMARK VINA RESULT:      -9.3      1.894      2.604
REMARK  6 active torsions:
REMARK  status: ('A' for Active; 'I' for Inactive)
REMARK    1  A    between atoms: C_2  and  C_3 
REMARK       I    between atoms: C_3  and  N_4 
REMARK    2  A    between atoms: N_4  and  C_5 
REMARK    3  A    between atoms: C_7  and  N_8 
REMARK       I    between atoms: N_8  and  C_9 
REMARK    4  A    between atoms: C_9  and  C_10 
REMARK    5  A    between atoms: C_13  and  C_14 
REMARK    6  A    between atoms: C_14  and  C_15 
ROOT
HETATM    1  N   UNL     1       8.314  28.249  57.451  1.00  0.00    -0.322 N 
HETATM    2  C   UNL     1       7.416  28.160  56.402  1.00  0.00     0.256 C 
HETATM    3  O   UNL     1       6.739  29.071  55.943  1.00  0.00    -0.267 OA
HETATM    4  H   UNL     1       8.735  27.390  57.766  1.00  0.00     0.169 HD
ENDROOT
BRANCH   1   5
HETATM    5  C   UNL     1       8.801  29.428  58.075  1.00  0.00     0.043 A 
HETATM    6  C   UNL     1       8.172  30.002  59.193  1.00  0.00     0.059 A 
HETATM    7  C   UNL     1       8.591  31.233  59.711  1.00  0.00     0.036 A 
HETATM    8  C   UNL     1       9.679  31.879  59.118  1.00  0.00     0.030 A 
HETATM    9  C   UNL     1      10.337  31.307  58.030  1.00  0.00     0.011 A 
HETATM   10  C   UNL     1       9.908  30.084  57.495  1.00  0.00    -0.035 A 
HETATM   11  C   UNL     1      10.650  29.527  56.310  1.00  0.00     0.050 C 
BRANCH   7  12
HETATM   12  N   UNL     1       7.947  31.917  60.766  1.00  0.00    -0.327 N 
HETATM   13  C   UNL     1       7.955  31.597  62.110  1.00  0.00     0.221 C 
HETATM   14  O   UNL     1       8.613  30.708  62.640  1.00  0.00    -0.273 OA
HETATM   15  H   UNL     1       7.444  32.748  60.496  1.00  0.00     0.169 HD
BRANCH  13  16
HETATM   16  C   UNL     1       6.974  32.402  62.955  1.00  0.00     0.098 C 
HETATM   17  C   UNL     1       7.536  32.997  64.233  1.00  0.00     0.014 C 
ENDBRANCH  13  16
ENDBRANCH   7  12
ENDBRANCH   1   5
BRANCH   2  18
HETATM   18  C   UNL     1       7.302  26.816  55.760  1.00  0.00     0.032 A 
HETATM   19  C   UNL     1       6.963  25.655  56.465  1.00  0.00     0.017 A 
HETATM   20  C   UNL     1       6.933  24.420  55.809  1.00  0.00     0.008 A 
HETATM   21  C   UNL     1       7.232  24.326  54.440  1.00  0.00    -0.051 A 
HETATM   22  C   UNL     1       7.529  25.498  53.731  1.00  0.00     0.008 A 
HETATM   23  C   UNL     1       7.563  26.731  54.385  1.00  0.00     0.017 A 
BRANCH  21  24
HETATM   24  C   UNL     1       7.220  22.988  53.736  1.00  0.00     0.120 C 
BRANCH  24  25
HETATM   25  C   UNL     1       7.980  22.049  54.600  1.00  0.00     0.151 A 
HETATM   26  N   UNL     1       9.306  22.136  54.790  1.00  0.00    -0.158 NA
HETATM   27  N   UNL     1       9.528  21.097  55.612  1.00  0.00    -0.270 N 
HETATM   28  H   UNL     1      10.466  20.920  55.949  1.00  0.00     0.190 HD
HETATM   29  C   UNL     1       8.382  20.412  55.859  1.00  0.00     0.227 A 
HETATM   30  N   UNL     1       7.386  20.977  55.223  1.00  0.00    -0.225 NA
ENDBRANCH  24  25
ENDBRANCH  21  24
ENDBRANCH   2  18
TORSDOF 6
ENDMDL
MODEL 3
REMARK VINA RESULT:      -9.2      3.642     10.927
REMARK  6 active torsions:
REMARK  status: ('A' for Active; 'I' for Inactive)
REMARK    1  A    between atoms: C_2  and  C_3 
REMARK       I    between atoms: C_3  and  N_4 
REMARK    2  A    between atoms: N_4  and  C_5 
REMARK    3  A    between atoms: C_7  and  N_8 
REMARK       I    between atoms: N_8  and  C_9 
REMARK    4  A    between atoms: C_9  and  C_10 
REMARK    5  A    between atoms: C_13  and  C_14 
REMARK    6  A    between atoms: C_14  and  C_15 
ROOT
HETATM    1  N   UNL     1       7.788  30.711  59.694  1.00  0.00    -0.322 N 
HETATM    2  C   UNL     1       8.335  30.801  60.962  1.00  0.00     0.256 C 
HETATM    3  O   UNL     1       9.230  30.101  61.421  1.00  0.00    -0.267 OA
HETATM    4  H   UNL     1       7.000  31.305  59.494  1.00  0.00     0.169 HD
ENDROOT
BRANCH   1   5
HETATM    5  C   UNL     1       8.271  29.951  58.596  1.00  0.00     0.043 A 
HETATM    6  C   UNL     1       7.622  28.791  58.140  1.00  0.00     0.059 A 
HETATM    7  C   UNL     1       8.186  27.988  57.142  1.00  0.00     0.036 A 
HETATM    8  C   UNL     1       9.401  28.375  56.570  1.00  0.00     0.030 A 
HETATM    9  C   UNL     1      10.041  29.542  56.986  1.00  0.00     0.011 A 
HETATM   10  C   UNL     1       9.490  30.339  57.999  1.00  0.00    -0.035 A 
HETATM   11  C   UNL     1      10.237  31.578  58.414  1.00  0.00     0.050 C 
BRANCH   7  12
HETATM   12  N   UNL     1       7.644  26.759  56.704  1.00  0.00    -0.327 N 
HETATM   13  C   UNL     1       7.874  25.499  57.222  1.00  0.00     0.221 C 
HETATM   14  O   UNL     1       8.523  25.238  58.230  1.00  0.00    -0.273 OA
HETATM   15  H   UNL     1       6.995  26.826  55.934  1.00  0.00     0.169 HD
BRANCH  13  16
HETATM   16  C   UNL     1       7.318  24.359  56.379  1.00  0.00     0.098 C 
HETATM   17  C   UNL     1       8.119  24.001  55.140  1.00  0.00     0.014 C 
ENDBRANCH  13  16
ENDBRANCH   7  12
ENDBRANCH   1   5
BRANCH   2  18
HETATM   18  C   UNL     1       7.788  31.889  61.828  1.00  0.00     0.032 A 
HETATM   19  C   UNL     1       8.142  32.051  63.172  1.00  0.00     0.017 A 
HETATM   20  C   UNL     1       7.544  33.057  63.938  1.00  0.00     0.008 A 
HETATM   21  C   UNL     1       6.592  33.921  63.372  1.00  0.00    -0.051 A 
HETATM   22  C   UNL     1       6.274  33.780  62.014  1.00  0.00     0.008 A 
HETATM   23  C   UNL     1       6.867  32.774  61.250  1.00  0.00     0.017 A 
BRANCH  21  24
HETATM   24  C   UNL     1       5.931  34.995  64.205  1.00  0.00     0.120 C 
BRANCH  24  25
HETATM   25  C   UNL     1       4.479  34.935  63.896  1.00  0.00     0.151 A 
HETATM   26  N   UNL     1       3.812  35.937  63.302  1.00  0.00    -0.158 NA
HETATM   27  N   UNL     1       2.567  35.435  63.247  1.00  0.00    -0.270 N 
HETATM   28  H   UNL     1       1.829  35.980  62.818  1.00  0.00     0.190 HD
HETATM   29  C   UNL     1       2.506  34.206  63.820  1.00  0.00     0.227 A 
HETATM   30  N   UNL     1       3.693  33.865  64.256  1.00  0.00    -0.225 NA
ENDBRANCH  24  25
ENDBRANCH  21  24
ENDBRANCH   2  18
TORSDOF 6
ENDMDL
MODEL 4
REMARK VINA RESULT:      -9.0      1.802      2.677
REMARK  6 active torsions:
REMARK  status: ('A' for Active; 'I' for Inactive)
REMARK    1  A    between atoms: C_2  and  C_3 
REMARK       I    between atoms: C_3  and  N_4 
REMARK    2  A    between atoms: N_4  and  C_5 
REMARK    3  A    between atoms: C_7  and  N_8 
REMARK       I    between atoms: N_8  and  C_9 
REMARK    4  A    between atoms: C_9  and  C_10 
REMARK    5  A    between atoms: C_13  and  C_14 
REMARK    6  A    between atoms: C_14  and  C_15 
ROOT
HETATM    1  N   UNL     1       8.273  28.059  56.975  1.00  0.00    -0.322 N 
HETATM    2  C   UNL     1       7.506  27.988  55.825  1.00  0.00     0.256 C 
HETATM    3  O   UNL     1       6.778  28.867  55.379  1.00  0.00    -0.267 OA
HETATM    4  H   UNL     1       8.755  27.221  57.254  1.00  0.00     0.169 HD
ENDROOT
BRANCH   1   5
HETATM    5  C   UNL     1       8.551  29.210  57.760  1.00  0.00     0.043 A 
HETATM    6  C   UNL     1       7.620  29.745  58.667  1.00  0.00     0.059 A 
HETATM    7  C   UNL     1       7.865  30.952  59.331  1.00  0.00     0.036 A 
HETATM    8  C   UNL     1       9.076  31.612  59.108  1.00  0.00     0.030 A 
HETATM    9  C   UNL     1      10.025  31.078  58.238  1.00  0.00     0.011 A 
HETATM   10  C   UNL     1       9.776  29.879  57.554  1.00  0.00    -0.035 A 
HETATM   11  C   UNL     1      10.835  29.363  56.617  1.00  0.00     0.050 C 
BRANCH   7  12
HETATM   12  N   UNL     1       6.938  31.599  60.179  1.00  0.00    -0.327 N 
HETATM   13  C   UNL     1       6.043  32.599  59.848  1.00  0.00     0.221 C 
HETATM   14  O   UNL     1       5.828  33.035  58.722  1.00  0.00    -0.273 OA
HETATM   15  H   UNL     1       6.921  31.266  61.131  1.00  0.00     0.169 HD
BRANCH  13  16
HETATM   16  C   UNL     1       5.347  33.241  61.041  1.00  0.00     0.098 C 
HETATM   17  C   UNL     1       6.253  33.935  62.042  1.00  0.00     0.014 C 
ENDBRANCH  13  16
ENDBRANCH   7  12
ENDBRANCH   1   5
BRANCH   2  18
HETATM   18  C   UNL     1       7.617  26.716  55.051  1.00  0.00     0.032 A 
HETATM   19  C   UNL     1       7.759  26.674  53.658  1.00  0.00     0.017 A 
HETATM   20  C   UNL     1       7.798  25.445  52.994  1.00  0.00     0.008 A 
HETATM   21  C   UNL     1       7.706  24.239  53.708  1.00  0.00    -0.051 A 
HETATM   22  C   UNL     1       7.607  24.287  55.105  1.00  0.00     0.008 A 
HETATM   23  C   UNL     1       7.564  25.513  55.770  1.00  0.00     0.017 A 
BRANCH  21  24
HETATM   24  C   UNL     1       7.727  22.910  52.987  1.00  0.00     0.120 C 
BRANCH  24  25
HETATM   25  C   UNL     1       8.260  21.915  53.954  1.00  0.00     0.151 A 
HETATM   26  N   UNL     1       9.459  22.034  54.545  1.00  0.00    -0.158 NA
HETATM   27  N   UNL     1       9.499  20.922  55.297  1.00  0.00    -0.270 N 
HETATM   28  H   UNL     1      10.303  20.748  55.887  1.00  0.00     0.190 HD
HETATM   29  C   UNL     1       8.383  20.168  55.121  1.00  0.00     0.227 A 
HETATM   30  N   UNL     1       7.585  20.757  54.265  1.00  0.00    -0.225 NA
ENDBRANCH  24  25
ENDBRANCH  21  24
ENDBRANCH   2  18
TORSDOF 6
ENDMDL
MODEL 5
REMARK VINA RESULT:      -8.8      2.694     10.021
REMARK  6 active torsions:
REMARK  status: ('A' for Active; 'I' for Inactive)
REMARK    1  A    between atoms: C_2  and  C_3 
REMARK       I    between atoms: C_3  and  N_4 
REMARK    2  A    between atoms: N_4  and  C_5 
REMARK    3  A    between atoms: C_7  and  N_8 
REMARK       I    between atoms: N_8  and  C_9 
REMARK    4  A    between atoms: C_9  and  C_10 
REMARK    5  A    between atoms: C_13  and  C_14 
REMARK    6  A    between atoms: C_14  and  C_15 
ROOT
HETATM    1  N   UNL     1       7.119  29.418  58.436  1.00  0.00    -0.322 N 
HETATM    2  C   UNL     1       8.256  30.132  58.771  1.00  0.00     0.256 C 
HETATM    3  O   UNL     1       9.266  30.256  58.089  1.00  0.00    -0.267 OA
HETATM    4  H   UNL     1       6.403  29.343  59.140  1.00  0.00     0.169 HD
ENDROOT
BRANCH   1   5
HETATM    5  C   UNL     1       6.788  28.863  57.171  1.00  0.00     0.043 A 
HETATM    6  C   UNL     1       7.268  27.610  56.751  1.00  0.00     0.059 A 
HETATM    7  C   UNL     1       7.036  27.142  55.452  1.00  0.00     0.036 A 
HETATM    8  C   UNL     1       6.282  27.927  54.576  1.00  0.00     0.030 A 
HETATM    9  C   UNL     1       5.769  29.156  54.988  1.00  0.00     0.011 A 
HETATM   10  C   UNL     1       6.016  29.639  56.281  1.00  0.00    -0.035 A 
HETATM   11  C   UNL     1       5.446  30.980  56.659  1.00  0.00     0.050 C 
BRANCH   7  12
HETATM   12  N   UNL     1       7.569  25.943  54.929  1.00  0.00    -0.327 N 
HETATM   13  C   UNL     1       7.297  24.650  55.331  1.00  0.00     0.221 C 
HETATM   14  O   UNL     1       6.458  24.310  56.158  1.00  0.00    -0.273 OA
HETATM   15  H   UNL     1       8.206  26.058  54.155  1.00  0.00     0.169 HD
BRANCH  13  16
HETATM   16  C   UNL     1       8.209  23.594  54.718  1.00  0.00     0.098 C 
HETATM   17  C   UNL     1       8.055  23.372  53.225  1.00  0.00     0.014 C 
ENDBRANCH  13  16
ENDBRANCH   7  12
ENDBRANCH   1   5
BRANCH   2  18
HETATM   18  C   UNL     1       8.212  30.840  60.086  1.00  0.00     0.032 A 
HETATM   19  C   UNL     1       8.874  30.377  61.229  1.00  0.00     0.017 A 
HETATM   20  C   UNL     1       8.740  31.060  62.442  1.00  0.00     0.008 A 
HETATM   21  C   UNL     1       7.951  32.219  62.530  1.00  0.00    -0.051 A 
HETATM   22  C   UNL     1       7.326  32.701  61.372  1.00  0.00     0.008 A 
HETATM   23  C   UNL     1       7.456  32.018  60.162  1.00  0.00     0.017 A 
BRANCH  21  24
HETATM   24  C   UNL     1       7.789  32.946  63.846  1.00  0.00     0.120 C 
BRANCH  24  25
HETATM   25  C   UNL     1       6.353  33.312  63.951  1.00  0.00     0.151 A 
HETATM   26  N   UNL     1       5.370  32.405  64.066  1.00  0.00    -0.158 NA
HETATM   27  N   UNL     1       4.283  33.192  64.115  1.00  0.00    -0.270 N 
HETATM   28  H   UNL     1       3.369  32.772  64.224  1.00  0.00     0.190 HD
HETATM   29  C   UNL     1       4.618  34.503  63.995  1.00  0.00     0.227 A 
HETATM   30  N   UNL     1       5.918  34.614  63.873  1.00  0.00    -0.225 NA
ENDBRANCH  24  25
ENDBRANCH  21  24
ENDBRANCH   2  18
TORSDOF 6
ENDMDL
MODEL 6
REMARK VINA RESULT:      -8.7      2.068      9.072
REMARK  6 active torsions:
REMARK  status: ('A' for Active; 'I' for Inactive)
REMARK    1  A    between atoms: C_2  and  C_3 
REMARK       I    between atoms: C_3  and  N_4 
REMARK    2  A    between atoms: N_4  and  C_5 
REMARK    3  A    between atoms: C_7  and  N_8 
REMARK       I    between atoms: N_8  and  C_9 
REMARK    4  A    between atoms: C_9  and  C_10 
REMARK    5  A    between atoms: C_13  and  C_14 
REMARK    6  A    between atoms: C_14  and  C_15 
ROOT
HETATM    1  N   UNL     1       7.507  27.439  55.188  1.00  0.00    -0.322 N 
HETATM    2  C   UNL     1       6.721  28.198  56.038  1.00  0.00     0.256 C 
HETATM    3  O   UNL     1       5.503  28.138  56.152  1.00  0.00    -0.267 OA
HETATM    4  H   UNL     1       8.488  27.664  55.151  1.00  0.00     0.169 HD
ENDROOT
BRANCH   1   5
HETATM    5  C   UNL     1       7.115  26.301  54.434  1.00  0.00     0.043 A 
HETATM    6  C   UNL     1       7.311  24.988  54.895  1.00  0.00     0.059 A 
HETATM    7  C   UNL     1       7.037  23.884  54.080  1.00  0.00     0.036 A 
HETATM    8  C   UNL     1       6.527  24.101  52.797  1.00  0.00     0.030 A 
HETATM    9  C   UNL     1       6.294  25.396  52.337  1.00  0.00     0.011 A 
HETATM   10  C   UNL     1       6.586  26.506  53.141  1.00  0.00    -0.035 A 
HETATM   11  C   UNL     1       6.326  27.879  52.580  1.00  0.00     0.050 C 
BRANCH   7  12
HETATM   12  N   UNL     1       7.300  22.543  54.438  1.00  0.00    -0.327 N 
HETATM   13  C   UNL     1       8.414  21.787  54.126  1.00  0.00     0.221 C 
HETATM   14  O   UNL     1       9.426  22.187  53.560  1.00  0.00    -0.273 OA
HETATM   15  H   UNL     1       6.593  22.103  55.008  1.00  0.00     0.169 HD
BRANCH  13  16
HETATM   16  C   UNL     1       8.287  20.307  54.466  1.00  0.00     0.098 C 
HETATM   17  C   UNL     1       8.253  19.968  55.945  1.00  0.00     0.014 C 
ENDBRANCH  13  16
ENDBRANCH   7  12
ENDBRANCH   1   5
BRANCH   2  18
HETATM   18  C   UNL     1       7.458  29.156  56.916  1.00  0.00     0.032 A 
HETATM   19  C   UNL     1       8.854  29.188  57.017  1.00  0.00     0.017 A 
HETATM   20  C   UNL     1       9.473  30.073  57.906  1.00  0.00     0.008 A 
HETATM   21  C   UNL     1       8.710  30.945  58.699  1.00  0.00    -0.051 A 
HETATM   22  C   UNL     1       7.314  30.938  58.562  1.00  0.00     0.008 A 
HETATM   23  C   UNL     1       6.695  30.053  57.679  1.00  0.00     0.017 A 
BRANCH  21  24
HETATM   24  C   UNL     1       9.378  31.887  59.674  1.00  0.00     0.120 C 
BRANCH  24  25
HETATM   25  C   UNL     1       9.010  31.416  61.035  1.00  0.00     0.151 A 
HETATM   26  N   UNL     1       9.315  30.193  61.495  1.00  0.00    -0.158 NA
HETATM   27  N   UNL     1       8.781  30.230  62.728  1.00  0.00    -0.270 N 
HETATM   28  H   UNL     1       8.876  29.426  63.336  1.00  0.00     0.190 HD
HETATM   29  C   UNL     1       8.159  31.414  62.959  1.00  0.00     0.227 A 
HETATM   30  N   UNL     1       8.270  32.183  61.904  1.00  0.00    -0.225 NA
ENDBRANCH  24  25
ENDBRANCH  21  24
ENDBRANCH   2  18
TORSDOF 6
ENDMDL
MODEL 7
REMARK VINA RESULT:      -8.6      3.236      9.292
REMARK  6 active torsions:
REMARK  status: ('A' for Active; 'I' for Inactive)
REMARK    1  A    between atoms: C_2  and  C_3 
REMARK       I    between atoms: C_3  and  N_4 
REMARK    2  A    between atoms: N_4  and  C_5 
REMARK    3  A    between atoms: C_7  and  N_8 
REMARK       I    between atoms: N_8  and  C_9 
REMARK    4  A    between atoms: C_9  and  C_10 
REMARK    5  A    between atoms: C_13  and  C_14 
REMARK    6  A    between atoms: C_14  and  C_15 
ROOT
HETATM    1  N   UNL     1       7.212  27.690  54.807  1.00  0.00    -0.322 N 
HETATM    2  C   UNL     1       6.533  28.280  55.858  1.00  0.00     0.256 C 
HETATM    3  O   UNL     1       5.350  28.132  56.138  1.00  0.00    -0.267 OA
HETATM    4  H   UNL     1       8.166  27.977  54.661  1.00  0.00     0.169 HD
ENDROOT
BRANCH   1   5
HETATM    5  C   UNL     1       6.757  26.640  53.965  1.00  0.00     0.043 A 
HETATM    6  C   UNL     1       6.041  26.882  52.781  1.00  0.00     0.059 A 
HETATM    7  C   UNL     1       5.491  25.831  52.037  1.00  0.00     0.036 A 
HETATM    8  C   UNL     1       5.694  24.518  52.471  1.00  0.00     0.030 A 
HETATM    9  C   UNL     1       6.432  24.259  53.624  1.00  0.00     0.011 A 
HETATM   10  C   UNL     1       6.967  25.308  54.384  1.00  0.00    -0.035 A 
HETATM   11  C   UNL     1       7.741  24.962  55.628  1.00  0.00     0.050 C 
BRANCH   7  12
HETATM   12  N   UNL     1       4.678  26.002  50.895  1.00  0.00    -0.327 N 
HETATM   13  C   UNL     1       4.749  27.005  49.947  1.00  0.00     0.221 C 
HETATM   14  O   UNL     1       5.608  27.879  49.880  1.00  0.00    -0.273 OA
HETATM   15  H   UNL     1       3.980  25.287  50.753  1.00  0.00     0.169 HD
BRANCH  13  16
HETATM   16  C   UNL     1       3.582  27.031  48.967  1.00  0.00     0.098 C 
HETATM   17  C   UNL     1       3.352  25.755  48.179  1.00  0.00     0.014 C 
ENDBRANCH  13  16
ENDBRANCH   7  12
ENDBRANCH   1   5
BRANCH   2  18
HETATM   18  C   UNL     1       7.354  29.157  56.747  1.00  0.00     0.032 A 
HETATM   19  C   UNL     1       8.747  29.059  56.847  1.00  0.00     0.017 A 
HETATM   20  C   UNL     1       9.445  29.874  57.745  1.00  0.00     0.008 A 
HETATM   21  C   UNL     1       8.765  30.804  58.548  1.00  0.00    -0.051 A 
HETATM   22  C   UNL     1       7.375  30.926  58.412  1.00  0.00     0.008 A 
HETATM   23  C   UNL     1       6.677  30.112  57.520  1.00  0.00     0.017 A 
BRANCH  21  24
HETATM   24  C   UNL     1       9.516  31.670  59.534  1.00  0.00     0.120 C 
BRANCH  24  25
HETATM   25  C   UNL     1       9.083  31.241  60.888  1.00  0.00     0.151 A 
HETATM   26  N   UNL     1       9.369  30.035  61.404  1.00  0.00    -0.158 NA
HETATM   27  N   UNL     1       8.774  30.109  62.606  1.00  0.00    -0.270 N 
HETATM   28  H   UNL     1       8.841  29.326  63.244  1.00  0.00     0.190 HD
HETATM   29  C   UNL     1       8.135  31.296  62.767  1.00  0.00     0.227 A 
HETATM   30  N   UNL     1       8.296  32.031  61.694  1.00  0.00    -0.225 NA
ENDBRANCH  24  25
ENDBRANCH  21  24
ENDBRANCH   2  18
TORSDOF 6
ENDMDL
MODEL 8
REMARK VINA RESULT:      -8.4      2.425      9.535
REMARK  6 active torsions:
REMARK  status: ('A' for Active; 'I' for Inactive)
REMARK    1  A    between atoms: C_2  and  C_3 
REMARK       I    between atoms: C_3  and  N_4 
REMARK    2  A    between atoms: N_4  and  C_5 
REMARK    3  A    between atoms: C_7  and  N_8 
REMARK       I    between atoms: N_8  and  C_9 
REMARK    4  A    between atoms: C_9  and  C_10 
REMARK    5  A    between atoms: C_13  and  C_14 
REMARK    6  A    between atoms: C_14  and  C_15 
ROOT
HETATM    1  N   UNL     1       6.511  27.793  57.079  1.00  0.00    -0.322 N 
HETATM    2  C   UNL     1       7.711  28.462  57.246  1.00  0.00     0.256 C 
HETATM    3  O   UNL     1       8.771  28.208  56.689  1.00  0.00    -0.267 OA
HETATM    4  H   UNL     1       5.747  28.071  57.672  1.00  0.00     0.169 HD
ENDROOT
BRANCH   1   5
HETATM    5  C   UNL     1       6.192  26.824  56.091  1.00  0.00     0.043 A 
HETATM    6  C   UNL     1       6.675  25.506  56.146  1.00  0.00     0.059 A 
HETATM    7  C   UNL     1       6.455  24.607  55.096  1.00  0.00     0.036 A 
HETATM    8  C   UNL     1       5.709  25.028  53.991  1.00  0.00     0.030 A 
HETATM    9  C   UNL     1       5.193  26.322  53.936  1.00  0.00     0.011 A 
HETATM   10  C   UNL     1       5.428  27.233  54.976  1.00  0.00    -0.035 A 
HETATM   11  C   UNL     1       4.856  28.619  54.849  1.00  0.00     0.050 C 
BRANCH   7  12
HETATM   12  N   UNL     1       6.991  23.302  55.037  1.00  0.00    -0.327 N 
HETATM   13  C   UNL     1       7.836  22.776  54.078  1.00  0.00     0.221 C 
HETATM   14  O   UNL     1       8.353  23.393  53.152  1.00  0.00    -0.273 OA
HETATM   15  H   UNL     1       6.738  22.697  55.804  1.00  0.00     0.169 HD
BRANCH  13  16
HETATM   16  C   UNL     1       8.046  21.271  54.179  1.00  0.00     0.098 C 
HETATM   17  C   UNL     1       8.247  20.541  52.864  1.00  0.00     0.014 C 
ENDBRANCH  13  16
ENDBRANCH   7  12
ENDBRANCH   1   5
BRANCH   2  18
HETATM   18  C   UNL     1       7.677  29.628  58.180  1.00  0.00     0.032 A 
HETATM   19  C   UNL     1       8.649  29.853  59.162  1.00  0.00     0.017 A 
HETATM   20  C   UNL     1       8.521  30.933  60.041  1.00  0.00     0.008 A 
HETATM   21  C   UNL     1       7.428  31.810  59.947  1.00  0.00    -0.051 A 
HETATM   22  C   UNL     1       6.480  31.603  58.934  1.00  0.00     0.008 A 
HETATM   23  C   UNL     1       6.605  30.523  58.059  1.00  0.00     0.017 A 
BRANCH  21  24
HETATM   24  C   UNL     1       7.278  32.966  60.910  1.00  0.00     0.120 C 
BRANCH  24  25
HETATM   25  C   UNL     1       6.082  32.671  61.740  1.00  0.00     0.151 A 
HETATM   26  N   UNL     1       6.055  31.708  62.675  1.00  0.00    -0.158 NA
HETATM   27  N   UNL     1       4.797  31.814  63.133  1.00  0.00    -0.270 N 
HETATM   28  H   UNL     1       4.486  31.207  63.881  1.00  0.00     0.190 HD
HETATM   29  C   UNL     1       4.108  32.775  62.464  1.00  0.00     0.227 A 
HETATM   30  N   UNL     1       4.885  33.327  61.565  1.00  0.00    -0.225 NA
ENDBRANCH  24  25
ENDBRANCH  21  24
ENDBRANCH   2  18
TORSDOF 6
ENDMDL
MODEL 9
REMARK VINA RESULT:      -8.0      5.520      8.368
REMARK  6 active torsions:
REMARK  status: ('A' for Active; 'I' for Inactive)
REMARK    1  A    between atoms: C_2  and  C_3 
REMARK       I    between atoms: C_3  and  N_4 
REMARK    2  A    between atoms: N_4  and  C_5 
REMARK    3  A    between atoms: C_7  and  N_8 
REMARK       I    between atoms: N_8  and  C_9 
REMARK    4  A    between atoms: C_9  and  C_10 
REMARK    5  A    between atoms: C_13  and  C_14 
REMARK    6  A    between atoms: C_14  and  C_15 
ROOT
HETATM    1  N   UNL     1       5.149  26.343  49.849  1.00  0.00    -0.322 N 
HETATM    2  C   UNL     1       5.400  26.718  51.158  1.00  0.00     0.256 C 
HETATM    3  O   UNL     1       5.151  27.804  51.665  1.00  0.00    -0.267 OA
HETATM    4  H   UNL     1       5.488  25.440  49.560  1.00  0.00     0.169 HD
ENDROOT
BRANCH   1   5
HETATM    5  C   UNL     1       4.371  27.038  48.885  1.00  0.00     0.043 A 
HETATM    6  C   UNL     1       4.478  28.426  48.691  1.00  0.00     0.059 A 
HETATM    7  C   UNL     1       3.611  29.107  47.829  1.00  0.00     0.036 A 
HETATM    8  C   UNL     1       2.647  28.380  47.126  1.00  0.00     0.030 A 
HETATM    9  C   UNL     1       2.550  26.998  47.281  1.00  0.00     0.011 A 
HETATM   10  C   UNL     1       3.402  26.313  48.159  1.00  0.00    -0.035 A 
HETATM   11  C   UNL     1       3.236  24.823  48.293  1.00  0.00     0.050 C 
BRANCH   7  12
HETATM   12  N   UNL     1       3.594  30.510  47.658  1.00  0.00    -0.327 N 
HETATM   13  C   UNL     1       4.291  31.258  46.728  1.00  0.00     0.221 C 
HETATM   14  O   UNL     1       4.978  30.818  45.812  1.00  0.00    -0.273 OA
HETATM   15  H   UNL     1       2.979  31.011  48.281  1.00  0.00     0.169 HD
BRANCH  13  16
HETATM   16  C   UNL     1       4.231  32.763  46.958  1.00  0.00     0.098 C 
HETATM   17  C   UNL     1       5.466  33.386  47.582  1.00  0.00     0.014 C 
ENDBRANCH  13  16
ENDBRANCH   7  12
ENDBRANCH   1   5
BRANCH   2  18
HETATM   18  C   UNL     1       6.007  25.665  52.027  1.00  0.00     0.032 A 
HETATM   19  C   UNL     1       5.336  25.084  53.110  1.00  0.00     0.017 A 
HETATM   20  C   UNL     1       5.988  24.145  53.916  1.00  0.00     0.008 A 
HETATM   21  C   UNL     1       7.314  23.766  53.649  1.00  0.00    -0.051 A 
HETATM   22  C   UNL     1       7.965  24.321  52.538  1.00  0.00     0.008 A 
HETATM   23  C   UNL     1       7.317  25.260  51.735  1.00  0.00     0.017 A 
BRANCH  21  24
HETATM   24  C   UNL     1       8.026  22.768  54.533  1.00  0.00     0.120 C 
BRANCH  24  25
HETATM   25  C   UNL     1       8.244  23.441  55.840  1.00  0.00     0.151 A 
HETATM   26  N   UNL     1       8.331  22.777  57.003  1.00  0.00    -0.158 NA
HETATM   27  N   UNL     1       8.513  23.784  57.873  1.00  0.00    -0.270 N 
HETATM   28  H   UNL     1       8.634  23.577  58.857  1.00  0.00     0.190 HD
HETATM   29  C   UNL     1       8.494  24.988  57.245  1.00  0.00     0.227 A 
HETATM   30  N   UNL     1       8.310  24.810  55.960  1.00  0.00    -0.225 NA
ENDBRANCH  24  25
ENDBRANCH  21  24
ENDBRANCH   2  18
TORSDOF 6
ENDMDL
MODEL 10
REMARK VINA RESULT:      -7.9      5.006      6.946
REMARK  6 active torsions:
REMARK  status: ('A' for Active; 'I' for Inactive)
REMARK    1  A    between atoms: C_2  and  C_3 
REMARK       I    between atoms: C_3  and  N_4 
REMARK    2  A    between atoms: N_4  and  C_5 
REMARK    3  A    between atoms: C_7  and  N_8 
REMARK       I    between atoms: N_8  and  C_9 
REMARK    4  A    between atoms: C_9  and  C_10 
REMARK    5  A    between atoms: C_13  and  C_14 
REMARK    6  A    between atoms: C_14  and  C_15 
ROOT
HETATM    1  N   UNL     1       6.702  26.728  53.511  1.00  0.00    -0.322 N 
HETATM    2  C   UNL     1       5.448  27.131  53.088  1.00  0.00     0.256 C 
HETATM    3  O   UNL     1       4.494  27.415  53.801  1.00  0.00    -0.267 OA
HETATM    4  H   UNL     1       7.357  26.450  52.799  1.00  0.00     0.169 HD
ENDROOT
BRANCH   1   5
HETATM    5  C   UNL     1       7.219  26.759  54.833  1.00  0.00     0.043 A 
HETATM    6  C   UNL     1       7.597  27.956  55.466  1.00  0.00     0.059 A 
HETATM    7  C   UNL     1       8.224  27.950  56.717  1.00  0.00     0.036 A 
HETATM    8  C   UNL     1       8.444  26.727  57.356  1.00  0.00     0.030 A 
HETATM    9  C   UNL     1       8.045  25.532  56.759  1.00  0.00     0.011 A 
HETATM   10  C   UNL     1       7.434  25.531  55.496  1.00  0.00    -0.035 A 
HETATM   11  C   UNL     1       7.040  24.207  54.898  1.00  0.00     0.050 C 
BRANCH   7  12
HETATM   12  N   UNL     1       8.719  29.102  57.367  1.00  0.00    -0.327 N 
HETATM   13  C   UNL     1       9.822  29.860  57.024  1.00  0.00     0.221 C 
HETATM   14  O   UNL     1      10.515  29.719  56.021  1.00  0.00    -0.273 OA
HETATM   15  H   UNL     1       8.181  29.411  58.164  1.00  0.00     0.169 HD
BRANCH  13  16
HETATM   16  C   UNL     1      10.220  30.901  58.063  1.00  0.00     0.098 C 
HETATM   17  C   UNL     1       9.086  31.474  58.894  1.00  0.00     0.014 C 
ENDBRANCH  13  16
ENDBRANCH   7  12
ENDBRANCH   1   5
BRANCH   2  18
HETATM   18  C   UNL     1       5.273  27.255  51.609  1.00  0.00     0.032 A 
HETATM   19  C   UNL     1       5.361  28.474  50.926  1.00  0.00     0.017 A 
HETATM   20  C   UNL     1       5.128  28.524  49.547  1.00  0.00     0.008 A 
HETATM   21  C   UNL     1       4.814  27.358  48.830  1.00  0.00    -0.051 A 
HETATM   22  C   UNL     1       4.769  26.135  49.513  1.00  0.00     0.008 A 
HETATM   23  C   UNL     1       4.998  26.084  50.888  1.00  0.00     0.017 A 
BRANCH  21  24
HETATM   24  C   UNL     1       4.541  27.415  47.344  1.00  0.00     0.120 C 
BRANCH  24  25
HETATM   25  C   UNL     1       3.073  27.582  47.190  1.00  0.00     0.151 A 
HETATM   26  N   UNL     1       2.216  26.549  47.150  1.00  0.00    -0.158 NA
HETATM   27  N   UNL     1       1.041  27.182  46.993  1.00  0.00    -0.270 N 
HETATM   28  H   UNL     1       0.187  26.641  46.949  1.00  0.00     0.190 HD
HETATM   29  C   UNL     1       1.213  28.526  46.908  1.00  0.00     0.227 A 
HETATM   30  N   UNL     1       2.487  28.814  47.012  1.00  0.00    -0.225 NA
ENDBRANCH  24  25
ENDBRANCH  21  24
ENDBRANCH   2  18
TORSDOF 6
ENDMDL
