MODEL 1
REMARK VINA RESULT:      -8.4      0.000      0.000
REMARK  6 active torsions:
REMARK  status: ('A' for Active; 'I' for Inactive)
REMARK    1  A    between atoms: C_2  and  N_3 
REMARK    2  A    between atoms: C_2  and  C_18 
REMARK    3  A    between atoms: N_3  and  C_6 
REMARK    4  A    between atoms: C_6  and  C_7 
REMARK    5  A    between atoms: C_10  and  N_11 
REMARK       I    between atoms: N_11  and  C_12 
REMARK    6  A    between atoms: C_12  and  O_13 
ROOT
HETATM    1  N   UNL     1       5.855  25.982  55.931  1.00  0.00    -0.061 N 
HETATM    2  H   UNL     1       5.461  25.103  55.568  1.00  0.00     0.278 HD
HETATM    3  H   UNL     1       5.591  25.951  56.928  1.00  0.00     0.278 HD
ENDROOT
BRANCH   1   4
HETATM    4  C   UNL     1       7.358  25.864  55.863  1.00  0.00     0.241 C 
HETATM    5  C   UNL     1       7.963  26.232  57.215  1.00  0.00     0.047 C 
BRANCH   4   6
HETATM    6  C   UNL     1       7.706  24.443  55.494  1.00  0.00     0.106 A 
HETATM    7  S   UNL     1       8.258  23.324  56.663  1.00  0.00    -0.070 SA
HETATM    8  C   UNL     1       8.370  22.112  55.443  1.00  0.00     0.035 A 
HETATM    9  C   UNL     1       7.994  22.665  54.215  1.00  0.00     0.075 A 
HETATM   10  C   UNL     1       8.762  20.769  55.563  1.00  0.00     0.021 A 
HETATM   11  N   UNL     1       7.633  24.007  54.254  1.00  0.00    -0.243 NA
HETATM   12  C   UNL     1       8.010  21.845  53.068  1.00  0.00     0.033 A 
HETATM   13  C   UNL     1       8.396  20.505  53.180  1.00  0.00     0.002 A 
HETATM   14  C   UNL     1       8.766  19.976  54.412  1.00  0.00     0.002 A 
ENDBRANCH   4   6
ENDBRANCH   1   4
BRANCH   1  15
HETATM   15  C   UNL     1       5.208  27.123  55.242  1.00  0.00     0.271 C 
BRANCH  15  16
HETATM   16  C   UNL     1       5.257  26.958  53.749  1.00  0.00    -0.033 A 
HETATM   17  C   UNL     1       5.595  28.036  52.920  1.00  0.00     0.011 A 
HETATM   18  C   UNL     1       5.627  27.887  51.527  1.00  0.00     0.030 A 
HETATM   19  C   UNL     1       5.327  26.662  50.932  1.00  0.00     0.036 A 
HETATM   20  C   UNL     1       4.997  25.585  51.763  1.00  0.00     0.030 A 
HETATM   21  C   UNL     1       4.955  25.728  53.155  1.00  0.00     0.011 A 
BRANCH  19  22
HETATM   22  N   UNL     1       5.341  26.409  49.551  1.00  0.00    -0.303 N 
HETATM   23  C   UNL     1       4.432  26.653  48.554  1.00  0.00     0.364 C 
HETATM   24  O   UNL     1       4.700  26.350  47.396  1.00  0.00    -0.238 OA
HETATM   25  H   UNL     1       6.161  25.954  49.169  1.00  0.00     0.171 HD
BRANCH  23  26
HETATM   26  O   UNL     1       3.261  27.210  48.946  1.00  0.00    -0.309 OA
HETATM   27  C   UNL     1       2.156  26.900  48.094  1.00  0.00     0.215 C 
ENDBRANCH  23  26
ENDBRANCH  19  22
ENDBRANCH  15  16
ENDBRANCH   1  15
TORSDOF 6
ENDMDL
MODEL 2
REMARK VINA RESULT:      -8.3      4.969      8.388
REMARK  6 active torsions:
REMARK  status: ('A' for Active; 'I' for Inactive)
REMARK    1  A    between atoms: C_2  and  N_3 
REMARK    2  A    between atoms: C_2  and  C_18 
REMARK    3  A    between atoms: N_3  and  C_6 
REMARK    4  A    between atoms: C_6  and  C_7 
REMARK    5  A    between atoms: C_10  and  N_11 
REMARK       I    between atoms: N_11  and  C_12 
REMARK    6  A    between atoms: C_12  and  O_13 
ROOT
HETATM    1  N   UNL     1       7.459  27.367  57.401  1.00  0.00    -0.061 N 
HETATM    2  H   UNL     1       8.312  26.797  57.313  1.00  0.00     0.278 HD
HETATM    3  H   UNL     1       7.335  27.428  58.423  1.00  0.00     0.278 HD
ENDROOT
BRANCH   1   4
HETATM    4  C   UNL     1       7.791  28.754  56.907  1.00  0.00     0.241 C 
HETATM    5  C   UNL     1       6.745  29.198  55.888  1.00  0.00     0.047 C 
BRANCH   4   6
HETATM    6  C   UNL     1       7.808  29.689  58.091  1.00  0.00     0.106 A 
HETATM    7  S   UNL     1       6.687  30.970  58.237  1.00  0.00    -0.070 SA
HETATM    8  C   UNL     1       7.402  31.418  59.740  1.00  0.00     0.035 A 
HETATM    9  C   UNL     1       8.470  30.558  60.011  1.00  0.00     0.075 A 
HETATM   10  C   UNL     1       7.043  32.455  60.616  1.00  0.00     0.021 A 
HETATM   11  N   UNL     1       8.705  29.582  59.049  1.00  0.00    -0.243 NA
HETATM   12  C   UNL     1       9.204  30.742  61.200  1.00  0.00     0.033 A 
HETATM   13  C   UNL     1       8.851  31.770  62.081  1.00  0.00     0.002 A 
HETATM   14  C   UNL     1       7.784  32.614  61.791  1.00  0.00     0.002 A 
ENDBRANCH   4   6
ENDBRANCH   1   4
BRANCH   1  15
HETATM   15  C   UNL     1       6.330  26.647  56.767  1.00  0.00     0.271 C 
BRANCH  15  16
HETATM   16  C   UNL     1       6.813  25.486  55.945  1.00  0.00    -0.033 A 
HETATM   17  C   UNL     1       7.990  24.808  56.285  1.00  0.00     0.011 A 
HETATM   18  C   UNL     1       8.449  23.734  55.511  1.00  0.00     0.030 A 
HETATM   19  C   UNL     1       7.743  23.312  54.385  1.00  0.00     0.036 A 
HETATM   20  C   UNL     1       6.562  23.987  54.051  1.00  0.00     0.030 A 
HETATM   21  C   UNL     1       6.102  25.065  54.816  1.00  0.00     0.011 A 
BRANCH  19  22
HETATM   22  N   UNL     1       8.112  22.244  53.551  1.00  0.00    -0.303 N 
HETATM   23  C   UNL     1       8.080  20.884  53.718  1.00  0.00     0.364 C 
HETATM   24  O   UNL     1       8.445  20.148  52.806  1.00  0.00    -0.238 OA
HETATM   25  H   UNL     1       8.484  22.473  52.638  1.00  0.00     0.171 HD
BRANCH  23  26
HETATM   26  O   UNL     1       7.653  20.447  54.927  1.00  0.00    -0.309 OA
HETATM   27  C   UNL     1       8.704  20.013  55.794  1.00  0.00     0.215 C 
ENDBRANCH  23  26
ENDBRANCH  19  22
ENDBRANCH  15  16
ENDBRANCH   1  15
TORSDOF 6
ENDMDL
MODEL 3
REMARK VINA RESULT:      -8.3      4.478      6.626
REMARK  6 active torsions:
REMARK  status: ('A' for Active; 'I' for Inactive)
REMARK    1  A    between atoms: C_2  and  N_3 
REMARK    2  A    between atoms: C_2  and  C_18 
REMARK    3  A    between atoms: N_3  and  C_6 
REMARK    4  A    between atoms: C_6  and  C_7 
REMARK    5  A    between atoms: C_10  and  N_11 
REMARK       I    between atoms: N_11  and  C_12 
REMARK    6  A    between atoms: C_12  and  O_13 
ROOT
HETATM    1  N   UNL     1       5.421  26.123  55.654  1.00  0.00    -0.061 N 
HETATM    2  H   UNL     1       4.705  25.455  55.971  1.00  0.00     0.278 HD
HETATM    3  H   UNL     1       6.207  25.931  56.293  1.00  0.00     0.278 HD
ENDROOT
BRANCH   1   4
HETATM    4  C   UNL     1       5.854  25.697  54.272  1.00  0.00     0.241 C 
HETATM    5  C   UNL     1       6.767  26.762  53.670  1.00  0.00     0.047 C 
BRANCH   4   6
HETATM    6  C   UNL     1       6.580  24.379  54.388  1.00  0.00     0.106 A 
HETATM    7  S   UNL     1       7.121  23.784  55.896  1.00  0.00    -0.070 SA
HETATM    8  C   UNL     1       7.747  22.382  55.113  1.00  0.00     0.035 A 
HETATM    9  C   UNL     1       7.512  22.484  53.738  1.00  0.00     0.075 A 
HETATM   10  C   UNL     1       8.398  21.272  55.674  1.00  0.00     0.021 A 
HETATM   11  N   UNL     1       6.858  23.642  53.333  1.00  0.00    -0.243 NA
HETATM   12  C   UNL     1       7.944  21.439  52.897  1.00  0.00     0.033 A 
HETATM   13  C   UNL     1       8.590  20.327  53.448  1.00  0.00     0.002 A 
HETATM   14  C   UNL     1       8.813  20.247  54.819  1.00  0.00     0.002 A 
ENDBRANCH   4   6
ENDBRANCH   1   4
BRANCH   1  15
HETATM   15  C   UNL     1       4.909  27.502  55.834  1.00  0.00     0.271 C 
BRANCH  15  16
HETATM   16  C   UNL     1       5.866  28.341  56.635  1.00  0.00    -0.033 A 
HETATM   17  C   UNL     1       6.995  27.767  57.231  1.00  0.00     0.011 A 
HETATM   18  C   UNL     1       7.880  28.545  57.990  1.00  0.00     0.030 A 
HETATM   19  C   UNL     1       7.660  29.911  58.165  1.00  0.00     0.036 A 
HETATM   20  C   UNL     1       6.533  30.484  57.561  1.00  0.00     0.030 A 
HETATM   21  C   UNL     1       5.641  29.710  56.809  1.00  0.00     0.011 A 
BRANCH  19  22
HETATM   22  N   UNL     1       8.489  30.777  58.895  1.00  0.00    -0.303 N 
HETATM   23  C   UNL     1       9.677  31.394  58.598  1.00  0.00     0.364 C 
HETATM   24  O   UNL     1      10.199  32.140  59.420  1.00  0.00    -0.238 OA
HETATM   25  H   UNL     1       8.196  31.021  59.833  1.00  0.00     0.171 HD
BRANCH  23  26
HETATM   26  O   UNL     1      10.206  31.103  57.386  1.00  0.00    -0.309 OA
HETATM   27  C   UNL     1      11.204  30.079  57.418  1.00  0.00     0.215 C 
ENDBRANCH  23  26
ENDBRANCH  19  22
ENDBRANCH  15  16
ENDBRANCH   1  15
TORSDOF 6
ENDMDL
MODEL 4
REMARK VINA RESULT:      -8.2      4.630      6.852
REMARK  6 active torsions:
REMARK  status: ('A' for Active; 'I' for Inactive)
REMARK    1  A    between atoms: C_2  and  N_3 
REMARK    2  A    between atoms: C_2  and  C_18 
REMARK    3  A    between atoms: N_3  and  C_6 
REMARK    4  A    between atoms: C_6  and  C_7 
REMARK    5  A    between atoms: C_10  and  N_11 
REMARK       I    between atoms: N_11  and  C_12 
REMARK    6  A    between atoms: C_12  and  O_13 
ROOT
HETATM    1  N   UNL     1       7.375  26.596  53.734  1.00  0.00    -0.061 N 
HETATM    2  H   UNL     1       8.284  26.372  54.162  1.00  0.00     0.278 HD
HETATM    3  H   UNL     1       7.514  26.316  52.751  1.00  0.00     0.278 HD
ENDROOT
BRANCH   1   4
HETATM    4  C   UNL     1       6.354  25.654  54.326  1.00  0.00     0.241 C 
HETATM    5  C   UNL     1       5.072  25.704  53.500  1.00  0.00     0.047 C 
BRANCH   4   6
HETATM    6  C   UNL     1       6.934  24.262  54.323  1.00  0.00     0.106 A 
HETATM    7  S   UNL     1       7.484  23.524  52.883  1.00  0.00    -0.070 SA
HETATM    8  C   UNL     1       7.931  22.121  53.778  1.00  0.00     0.035 A 
HETATM    9  C   UNL     1       7.603  22.313  55.123  1.00  0.00     0.075 A 
HETATM   10  C   UNL     1       8.528  20.934  53.322  1.00  0.00     0.021 A 
HETATM   11  N   UNL     1       7.016  23.539  55.420  1.00  0.00    -0.243 NA
HETATM   12  C   UNL     1       7.883  21.284  56.044  1.00  0.00     0.033 A 
HETATM   13  C   UNL     1       8.482  20.101  55.600  1.00  0.00     0.002 A 
HETATM   14  C   UNL     1       8.800  19.930  54.256  1.00  0.00     0.002 A 
ENDBRANCH   4   6
ENDBRANCH   1   4
BRANCH   1  15
HETATM   15  C   UNL     1       7.134  28.053  53.846  1.00  0.00     0.271 C 
BRANCH  15  16
HETATM   16  C   UNL     1       7.281  28.524  55.266  1.00  0.00    -0.033 A 
HETATM   17  C   UNL     1       8.440  28.239  55.999  1.00  0.00     0.011 A 
HETATM   18  C   UNL     1       8.573  28.665  57.327  1.00  0.00     0.030 A 
HETATM   19  C   UNL     1       7.555  29.388  57.950  1.00  0.00     0.036 A 
HETATM   20  C   UNL     1       6.401  29.678  57.212  1.00  0.00     0.030 A 
HETATM   21  C   UNL     1       6.259  29.249  55.888  1.00  0.00     0.011 A 
BRANCH  19  22
HETATM   22  N   UNL     1       7.595  29.868  59.269  1.00  0.00    -0.303 N 
HETATM   23  C   UNL     1       8.038  31.045  59.815  1.00  0.00     0.364 C 
HETATM   24  O   UNL     1       7.937  31.233  61.023  1.00  0.00    -0.238 OA
HETATM   25  H   UNL     1       7.241  29.259  59.997  1.00  0.00     0.171 HD
BRANCH  23  26
HETATM   26  O   UNL     1       8.590  31.927  58.948  1.00  0.00    -0.309 OA
HETATM   27  C   UNL     1      10.011  31.817  58.831  1.00  0.00     0.215 C 
ENDBRANCH  23  26
ENDBRANCH  19  22
ENDBRANCH  15  16
ENDBRANCH   1  15
TORSDOF 6
ENDMDL
MODEL 5
REMARK VINA RESULT:      -8.1      4.610      7.875
REMARK  6 active torsions:
REMARK  status: ('A' for Active; 'I' for Inactive)
REMARK    1  A    between atoms: C_2  and  N_3 
REMARK    2  A    between atoms: C_2  and  C_18 
REMARK    3  A    between atoms: N_3  and  C_6 
REMARK    4  A    between atoms: C_6  and  C_7 
REMARK    5  A    between atoms: C_10  and  N_11 
REMARK       I    between atoms: N_11  and  C_12 
REMARK    6  A    between atoms: C_12  and  O_13 
ROOT
HETATM    1  N   UNL     1       7.144  27.918  54.867  1.00  0.00    -0.061 N 
HETATM    2  H   UNL     1       7.965  28.506  54.665  1.00  0.00     0.278 HD
HETATM    3  H   UNL     1       7.537  27.187  55.479  1.00  0.00     0.278 HD
ENDROOT
BRANCH   1   4
HETATM    4  C   UNL     1       6.196  28.742  55.705  1.00  0.00     0.241 C 
HETATM    5  C   UNL     1       5.193  27.822  56.396  1.00  0.00     0.047 C 
BRANCH   4   6
HETATM    6  C   UNL     1       7.005  29.506  56.723  1.00  0.00     0.106 A 
HETATM    7  S   UNL     1       8.705  29.360  56.809  1.00  0.00    -0.070 SA
HETATM    8  C   UNL     1       8.731  30.486  58.114  1.00  0.00     0.035 A 
HETATM    9  C   UNL     1       7.422  30.878  58.404  1.00  0.00     0.075 A 
HETATM   10  C   UNL     1       9.832  30.986  58.829  1.00  0.00     0.021 A 
HETATM   11  N   UNL     1       6.439  30.296  57.612  1.00  0.00    -0.243 NA
HETATM   12  C   UNL     1       7.206  31.803  59.446  1.00  0.00     0.033 A 
HETATM   13  C   UNL     1       8.296  32.310  60.160  1.00  0.00     0.002 A 
HETATM   14  C   UNL     1       9.591  31.905  59.854  1.00  0.00     0.002 A 
ENDBRANCH   4   6
ENDBRANCH   1   4
BRANCH   1  15
HETATM   15  C   UNL     1       6.639  27.341  53.599  1.00  0.00     0.271 C 
BRANCH  15  16
HETATM   16  C   UNL     1       6.967  25.878  53.495  1.00  0.00    -0.033 A 
HETATM   17  C   UNL     1       6.616  24.991  54.520  1.00  0.00     0.011 A 
HETATM   18  C   UNL     1       6.933  23.628  54.430  1.00  0.00     0.030 A 
HETATM   19  C   UNL     1       7.603  23.123  53.316  1.00  0.00     0.036 A 
HETATM   20  C   UNL     1       7.946  24.012  52.289  1.00  0.00     0.030 A 
HETATM   21  C   UNL     1       7.639  25.374  52.376  1.00  0.00     0.011 A 
BRANCH  19  22
HETATM   22  N   UNL     1       7.956  21.777  53.127  1.00  0.00    -0.303 N 
HETATM   23  C   UNL     1       8.724  20.908  53.858  1.00  0.00     0.364 C 
HETATM   24  O   UNL     1       8.861  19.749  53.480  1.00  0.00    -0.238 OA
HETATM   25  H   UNL     1       7.601  21.315  52.299  1.00  0.00     0.171 HD
BRANCH  23  26
HETATM   26  O   UNL     1       9.307  21.424  54.966  1.00  0.00    -0.309 OA
HETATM   27  C   UNL     1       8.854  20.837  56.189  1.00  0.00     0.215 C 
ENDBRANCH  23  26
ENDBRANCH  19  22
ENDBRANCH  15  16
ENDBRANCH   1  15
TORSDOF 6
ENDMDL
MODEL 6
REMARK VINA RESULT:      -8.0      1.440      1.936
REMARK  6 active torsions:
REMARK  status: ('A' for Active; 'I' for Inactive)
REMARK    1  A    between atoms: C_2  and  N_3 
REMARK    2  A    between atoms: C_2  and  C_18 
REMARK    3  A    between atoms: N_3  and  C_6 
REMARK    4  A    between atoms: C_6  and  C_7 
REMARK    5  A    between atoms: C_10  and  N_11 
REMARK       I    between atoms: N_11  and  C_12 
REMARK    6  A    between atoms: C_12  and  O_13 
ROOT
HETATM    1  N   UNL     1       7.272  27.040  53.918  1.00  0.00    -0.061 N 
HETATM    2  H   UNL     1       8.123  27.597  54.074  1.00  0.00     0.278 HD
HETATM    3  H   UNL     1       7.562  26.390  53.171  1.00  0.00     0.278 HD
ENDROOT
BRANCH   1   4
HETATM    4  C   UNL     1       7.038  26.217  55.162  1.00  0.00     0.241 C 
HETATM    5  C   UNL     1       5.582  26.352  55.599  1.00  0.00     0.047 C 
BRANCH   4   6
HETATM    6  C   UNL     1       7.366  24.778  54.847  1.00  0.00     0.106 A 
HETATM    7  S   UNL     1       7.803  24.283  53.271  1.00  0.00    -0.070 SA
HETATM    8  C   UNL     1       7.982  22.664  53.833  1.00  0.00     0.035 A 
HETATM    9  C   UNL     1       7.670  22.617  55.195  1.00  0.00     0.075 A 
HETATM   10  C   UNL     1       8.371  21.518  53.121  1.00  0.00     0.021 A 
HETATM   11  N   UNL     1       7.301  23.833  55.761  1.00  0.00    -0.243 NA
HETATM   12  C   UNL     1       7.750  21.381  55.867  1.00  0.00     0.033 A 
HETATM   13  C   UNL     1       8.141  20.235  55.167  1.00  0.00     0.002 A 
HETATM   14  C   UNL     1       8.446  20.305  53.812  1.00  0.00     0.002 A 
ENDBRANCH   4   6
ENDBRANCH   1   4
BRANCH   1  15
HETATM   15  C   UNL     1       6.186  27.936  53.456  1.00  0.00     0.271 C 
BRANCH  15  16
HETATM   16  C   UNL     1       5.701  27.548  52.087  1.00  0.00    -0.033 A 
HETATM   17  C   UNL     1       5.590  28.503  51.069  1.00  0.00     0.011 A 
HETATM   18  C   UNL     1       5.124  28.145  49.796  1.00  0.00     0.030 A 
HETATM   19  C   UNL     1       4.764  26.828  49.513  1.00  0.00     0.036 A 
HETATM   20  C   UNL     1       4.882  25.873  50.531  1.00  0.00     0.030 A 
HETATM   21  C   UNL     1       5.339  26.226  51.806  1.00  0.00     0.011 A 
BRANCH  19  22
HETATM   22  N   UNL     1       4.297  26.367  48.271  1.00  0.00    -0.303 N 
HETATM   23  C   UNL     1       3.058  26.377  47.684  1.00  0.00     0.364 C 
HETATM   24  O   UNL     1       2.915  25.923  46.553  1.00  0.00    -0.238 OA
HETATM   25  H   UNL     1       4.970  25.930  47.654  1.00  0.00     0.171 HD
BRANCH  23  26
HETATM   26  O   UNL     1       2.053  26.888  48.435  1.00  0.00    -0.309 OA
HETATM   27  C   UNL     1       1.307  27.920  47.785  1.00  0.00     0.215 C 
ENDBRANCH  23  26
ENDBRANCH  19  22
ENDBRANCH  15  16
ENDBRANCH   1  15
TORSDOF 6
ENDMDL
MODEL 7
REMARK VINA RESULT:      -7.9      6.018      8.338
REMARK  6 active torsions:
REMARK  status: ('A' for Active; 'I' for Inactive)
REMARK    1  A    between atoms: C_2  and  N_3 
REMARK    2  A    between atoms: C_2  and  C_18 
REMARK    3  A    between atoms: N_3  and  C_6 
REMARK    4  A    between atoms: C_6  and  C_7 
REMARK    5  A    between atoms: C_10  and  N_11 
REMARK       I    between atoms: N_11  and  C_12 
REMARK    6  A    between atoms: C_12  and  O_13 
ROOT
HETATM    1  N   UNL     1       7.446  27.810  56.423  1.00  0.00    -0.061 N 
HETATM    2  H   UNL     1       8.247  27.813  57.068  1.00  0.00     0.278 HD
HETATM    3  H   UNL     1       7.884  27.573  55.520  1.00  0.00     0.278 HD
ENDROOT
BRANCH   1   4
HETATM    4  C   UNL     1       6.561  26.649  56.809  1.00  0.00     0.241 C 
HETATM    5  C   UNL     1       5.096  27.050  56.658  1.00  0.00     0.047 C 
BRANCH   4   6
HETATM    6  C   UNL     1       6.888  25.484  55.908  1.00  0.00     0.106 A 
HETATM    7  S   UNL     1       7.054  25.677  54.218  1.00  0.00    -0.070 SA
HETATM    8  C   UNL     1       7.401  23.996  54.065  1.00  0.00     0.035 A 
HETATM    9  C   UNL     1       7.342  23.400  55.328  1.00  0.00     0.075 A 
HETATM   10  C   UNL     1       7.703  23.257  52.909  1.00  0.00     0.021 A 
HETATM   11  N   UNL     1       7.029  24.261  56.375  1.00  0.00    -0.243 NA
HETATM   12  C   UNL     1       7.594  22.018  55.439  1.00  0.00     0.033 A 
HETATM   13  C   UNL     1       7.900  21.275  54.294  1.00  0.00     0.002 A 
HETATM   14  C   UNL     1       7.954  21.888  53.047  1.00  0.00     0.002 A 
ENDBRANCH   4   6
ENDBRANCH   1   4
BRANCH   1  15
HETATM   15  C   UNL     1       6.848  29.165  56.388  1.00  0.00     0.271 C 
BRANCH  15  16
HETATM   16  C   UNL     1       7.171  29.938  57.636  1.00  0.00    -0.033 A 
HETATM   17  C   UNL     1       6.382  31.027  58.028  1.00  0.00     0.011 A 
HETATM   18  C   UNL     1       6.690  31.757  59.184  1.00  0.00     0.030 A 
HETATM   19  C   UNL     1       7.786  31.413  59.975  1.00  0.00     0.036 A 
HETATM   20  C   UNL     1       8.568  30.319  59.585  1.00  0.00     0.030 A 
HETATM   21  C   UNL     1       8.271  29.591  58.427  1.00  0.00     0.011 A 
BRANCH  19  22
HETATM   22  N   UNL     1       8.172  32.072  61.154  1.00  0.00    -0.303 N 
HETATM   23  C   UNL     1       7.697  32.027  62.439  1.00  0.00     0.364 C 
HETATM   24  O   UNL     1       8.237  32.698  63.312  1.00  0.00    -0.238 OA
HETATM   25  H   UNL     1       8.946  32.721  61.092  1.00  0.00     0.171 HD
BRANCH  23  26
HETATM   26  O   UNL     1       6.618  31.234  62.643  1.00  0.00    -0.309 OA
HETATM   27  C   UNL     1       5.440  31.943  63.032  1.00  0.00     0.215 C 
ENDBRANCH  23  26
ENDBRANCH  19  22
ENDBRANCH  15  16
ENDBRANCH   1  15
TORSDOF 6
ENDMDL
MODEL 8
REMARK VINA RESULT:      -7.7      4.926      7.152
REMARK  6 active torsions:
REMARK  status: ('A' for Active; 'I' for Inactive)
REMARK    1  A    between atoms: C_2  and  N_3 
REMARK    2  A    between atoms: C_2  and  C_18 
REMARK    3  A    between atoms: N_3  and  C_6 
REMARK    4  A    between atoms: C_6  and  C_7 
REMARK    5  A    between atoms: C_10  and  N_11 
REMARK       I    between atoms: N_11  and  C_12 
REMARK    6  A    between atoms: C_12  and  O_13 
ROOT
HETATM    1  N   UNL     1       6.570  28.652  53.639  1.00  0.00    -0.061 N 
HETATM    2  H   UNL     1       6.786  29.259  52.837  1.00  0.00     0.278 HD
HETATM    3  H   UNL     1       6.033  29.279  54.257  1.00  0.00     0.278 HD
ENDROOT
BRANCH   1   4
HETATM    4  C   UNL     1       5.620  27.584  53.152  1.00  0.00     0.241 C 
HETATM    5  C   UNL     1       5.458  27.695  51.638  1.00  0.00     0.047 C 
BRANCH   4   6
HETATM    6  C   UNL     1       6.187  26.238  53.528  1.00  0.00     0.106 A 
HETATM    7  S   UNL     1       5.972  25.580  55.090  1.00  0.00    -0.070 SA
HETATM    8  C   UNL     1       6.856  24.178  54.617  1.00  0.00     0.035 A 
HETATM    9  C   UNL     1       7.274  24.328  53.291  1.00  0.00     0.075 A 
HETATM   10  C   UNL     1       7.158  23.029  55.365  1.00  0.00     0.021 A 
HETATM   11  N   UNL     1       6.899  25.522  52.683  1.00  0.00    -0.243 NA
HETATM   12  C   UNL     1       8.019  23.292  52.694  1.00  0.00     0.033 A 
HETATM   13  C   UNL     1       8.321  22.142  53.430  1.00  0.00     0.002 A 
HETATM   14  C   UNL     1       7.896  22.014  54.748  1.00  0.00     0.002 A 
ENDBRANCH   4   6
ENDBRANCH   1   4
BRANCH   1  15
HETATM   15  C   UNL     1       7.837  28.226  54.278  1.00  0.00     0.271 C 
BRANCH  15  16
HETATM   16  C   UNL     1       7.936  28.734  55.688  1.00  0.00    -0.033 A 
HETATM   17  C   UNL     1       9.155  29.202  56.197  1.00  0.00     0.011 A 
HETATM   18  C   UNL     1       9.252  29.663  57.517  1.00  0.00     0.030 A 
HETATM   19  C   UNL     1       8.137  29.671  58.355  1.00  0.00     0.036 A 
HETATM   20  C   UNL     1       6.919  29.209  57.841  1.00  0.00     0.030 A 
HETATM   21  C   UNL     1       6.816  28.740  56.527  1.00  0.00     0.011 A 
BRANCH  19  22
HETATM   22  N   UNL     1       8.128  30.121  59.685  1.00  0.00    -0.303 N 
HETATM   23  C   UNL     1       7.801  31.323  60.255  1.00  0.00     0.364 C 
HETATM   24  O   UNL     1       7.855  31.456  61.473  1.00  0.00    -0.238 OA
HETATM   25  H   UNL     1       8.416  29.464  60.400  1.00  0.00     0.171 HD
BRANCH  23  26
HETATM   26  O   UNL     1       7.451  32.309  59.394  1.00  0.00    -0.309 OA
HETATM   27  C   UNL     1       6.048  32.582  59.361  1.00  0.00     0.215 C 
ENDBRANCH  23  26
ENDBRANCH  19  22
ENDBRANCH  15  16
ENDBRANCH   1  15
TORSDOF 6
ENDMDL
MODEL 9
REMARK VINA RESULT:      -7.6      3.841      7.342
REMARK  6 active torsions:
REMARK  status: ('A' for Active; 'I' for Inactive)
REMARK    1  A    between atoms: C_2  and  N_3 
REMARK    2  A    between atoms: C_2  and  C_18 
REMARK    3  A    between atoms: N_3  and  C_6 
REMARK    4  A    between atoms: C_6  and  C_7 
REMARK    5  A    between atoms: C_10  and  N_11 
REMARK       I    between atoms: N_11  and  C_12 
REMARK    6  A    between atoms: C_12  and  O_13 
ROOT
HETATM    1  N   UNL     1       4.830  27.186  54.302  1.00  0.00    -0.061 N 
HETATM    2  H   UNL     1       4.430  27.112  55.248  1.00  0.00     0.278 HD
HETATM    3  H   UNL     1       4.417  26.373  53.820  1.00  0.00     0.278 HD
ENDROOT
BRANCH   1   4
HETATM    4  C   UNL     1       4.250  28.426  53.665  1.00  0.00     0.241 C 
HETATM    5  C   UNL     1       4.926  29.665  54.248  1.00  0.00     0.047 C 
BRANCH   4   6
HETATM    6  C   UNL     1       4.480  28.347  52.176  1.00  0.00     0.106 A 
HETATM    7  S   UNL     1       4.938  29.719  51.266  1.00  0.00    -0.070 SA
HETATM    8  C   UNL     1       4.973  28.754  49.838  1.00  0.00     0.035 A 
HETATM    9  C   UNL     1       4.607  27.444  50.163  1.00  0.00     0.075 A 
HETATM   10  C   UNL     1       5.301  29.129  48.525  1.00  0.00     0.021 A 
HETATM   11  N   UNL     1       4.309  27.228  51.504  1.00  0.00    -0.243 NA
HETATM   12  C   UNL     1       4.568  26.477  49.139  1.00  0.00     0.033 A 
HETATM   13  C   UNL     1       4.897  26.840  47.829  1.00  0.00     0.002 A 
HETATM   14  C   UNL     1       5.258  28.149  47.528  1.00  0.00     0.002 A 
ENDBRANCH   4   6
ENDBRANCH   1   4
BRANCH   1  15
HETATM   15  C   UNL     1       6.304  27.066  54.389  1.00  0.00     0.271 C 
BRANCH  15  16
HETATM   16  C   UNL     1       6.761  25.678  54.041  1.00  0.00    -0.033 A 
HETATM   17  C   UNL     1       7.384  25.416  52.814  1.00  0.00     0.011 A 
HETATM   18  C   UNL     1       7.798  24.119  52.481  1.00  0.00     0.030 A 
HETATM   19  C   UNL     1       7.605  23.059  53.367  1.00  0.00     0.036 A 
HETATM   20  C   UNL     1       6.989  23.325  54.596  1.00  0.00     0.030 A 
HETATM   21  C   UNL     1       6.566  24.616  54.931  1.00  0.00     0.011 A 
BRANCH  19  22
HETATM   22  N   UNL     1       7.992  21.729  53.133  1.00  0.00    -0.303 N 
HETATM   23  C   UNL     1       8.778  20.855  53.837  1.00  0.00     0.364 C 
HETATM   24  O   UNL     1       8.946  19.713  53.421  1.00  0.00    -0.238 OA
HETATM   25  H   UNL     1       7.651  21.287  52.289  1.00  0.00     0.171 HD
BRANCH  23  26
HETATM   26  O   UNL     1       9.345  21.347  54.965  1.00  0.00    -0.309 OA
HETATM   27  C   UNL     1       9.124  20.543  56.126  1.00  0.00     0.215 C 
ENDBRANCH  23  26
ENDBRANCH  19  22
ENDBRANCH  15  16
ENDBRANCH   1  15
TORSDOF 6
ENDMDL
MODEL 10
REMARK VINA RESULT:      -7.3      5.351      7.643
REMARK  6 active torsions:
REMARK  status: ('A' for Active; 'I' for Inactive)
REMARK    1  A    between atoms: C_2  and  N_3 
REMARK    2  A    between atoms: C_2  and  C_18 
REMARK    3  A    between atoms: N_3  and  C_6 
REMARK    4  A    between atoms: C_6  and  C_7 
REMARK    5  A    between atoms: C_10  and  N_11 
REMARK       I    between atoms: N_11  and  C_12 
REMARK    6  A    between atoms: C_12  and  O_13 
ROOT
HETATM    1  N   UNL     1       5.352  29.251  54.253  1.00  0.00    -0.061 N 
HETATM    2  H   UNL     1       6.208  28.878  54.686  1.00  0.00     0.278 HD
HETATM    3  H   UNL     1       5.709  29.698  53.395  1.00  0.00     0.278 HD
ENDROOT
BRANCH   1   4
HETATM    4  C   UNL     1       4.512  28.070  53.827  1.00  0.00     0.241 C 
HETATM    5  C   UNL     1       4.020  28.282  52.398  1.00  0.00     0.047 C 
BRANCH   4   6
HETATM    6  C   UNL     1       5.361  26.827  53.917  1.00  0.00     0.106 A 
HETATM    7  S   UNL     1       5.591  26.005  55.398  1.00  0.00    -0.070 SA
HETATM    8  C   UNL     1       6.577  24.842  54.594  1.00  0.00     0.035 A 
HETATM    9  C   UNL     1       6.677  25.185  53.242  1.00  0.00     0.075 A 
HETATM   10  C   UNL     1       7.217  23.709  55.121  1.00  0.00     0.021 A 
HETATM   11  N   UNL     1       5.989  26.335  52.870  1.00  0.00    -0.243 NA
HETATM   12  C   UNL     1       7.442  24.365  52.389  1.00  0.00     0.033 A 
HETATM   13  C   UNL     1       8.079  23.231  52.904  1.00  0.00     0.002 A 
HETATM   14  C   UNL     1       7.967  22.910  54.253  1.00  0.00     0.002 A 
ENDBRANCH   4   6
ENDBRANCH   1   4
BRANCH   1  15
HETATM   15  C   UNL     1       4.746  30.250  55.164  1.00  0.00     0.271 C 
BRANCH  15  16
HETATM   16  C   UNL     1       5.594  30.460  56.387  1.00  0.00    -0.033 A 
HETATM   17  C   UNL     1       6.559  29.517  56.761  1.00  0.00     0.011 A 
HETATM   18  C   UNL     1       7.341  29.705  57.909  1.00  0.00     0.030 A 
HETATM   19  C   UNL     1       7.179  30.839  58.705  1.00  0.00     0.036 A 
HETATM   20  C   UNL     1       6.218  31.785  58.324  1.00  0.00     0.030 A 
HETATM   21  C   UNL     1       5.429  31.598  57.184  1.00  0.00     0.011 A 
BRANCH  19  22
HETATM   22  N   UNL     1       7.917  31.125  59.865  1.00  0.00    -0.303 N 
HETATM   23  C   UNL     1       9.050  31.864  60.085  1.00  0.00     0.364 C 
HETATM   24  O   UNL     1       9.491  31.981  61.223  1.00  0.00    -0.238 OA
HETATM   25  H   UNL     1       7.589  30.726  60.735  1.00  0.00     0.171 HD
BRANCH  23  26
HETATM   26  O   UNL     1       9.623  32.408  58.984  1.00  0.00    -0.309 OA
HETATM   27  C   UNL     1      10.441  31.499  58.244  1.00  0.00     0.215 C 
ENDBRANCH  23  26
ENDBRANCH  19  22
ENDBRANCH  15  16
ENDBRANCH   1  15
TORSDOF 6
ENDMDL
