MODEL 1
REMARK VINA RESULT:      -8.4      0.000      0.000
REMARK  4 active torsions:
REMARK  status: ('A' for Active; 'I' for Inactive)
REMARK    1  A    between atoms: S_2  and  N_3 
REMARK    2  A    between atoms: N_3  and  N_4 
REMARK    3  A    between atoms: C_10  and  C_11 
REMARK    4  A    between atoms: C_14  and  O_15 
ROOT
HETATM    1  N   UNL     1       5.336  26.442  53.681  1.00  0.00    -0.241 N 
HETATM    2  C   UNL     1       6.020  25.591  52.830  1.00  0.00     0.272 C 
HETATM    3  O   UNL     1       5.895  25.646  51.606  1.00  0.00    -0.266 OA
HETATM    4  C   UNL     1       6.849  24.557  53.476  1.00  0.00     0.054 A 
HETATM    5  C   UNL     1       6.597  24.284  54.829  1.00  0.00     0.026 A 
HETATM    6  N   UNL     1       5.618  25.009  55.533  1.00  0.00    -0.265 NA
HETATM    7  C   UNL     1       5.526  26.424  55.135  1.00  0.00     0.217 C 
HETATM    8  C   UNL     1       7.764  23.802  52.737  1.00  0.00     0.019 A 
HETATM    9  C   UNL     1       8.438  22.752  53.357  1.00  0.00     0.001 A 
HETATM   10  C   UNL     1       8.171  22.444  54.692  1.00  0.00     0.002 A 
HETATM   11  C   UNL     1       7.242  23.195  55.419  1.00  0.00     0.024 A 
HETATM   12  H   UNL     1       5.670  24.886  56.537  1.00  0.00     0.130 HD
ENDROOT
BRANCH   7  13
HETATM   13  C   UNL     1       6.748  27.218  55.630  1.00  0.00    -0.020 A 
HETATM   14  C   UNL     1       7.423  28.137  54.807  1.00  0.00     0.013 A 
HETATM   15  C   UNL     1       8.517  28.874  55.279  1.00  0.00     0.037 A 
HETATM   16  C   UNL     1       8.950  28.697  56.585  1.00  0.00     0.065 A 
HETATM   17  C   UNL     1       8.301  27.810  57.428  1.00  0.00     0.037 A 
HETATM   18  C   UNL     1       7.198  27.088  56.962  1.00  0.00     0.013 A 
BRANCH  16  19
HETATM   19  O   UNL     1      10.012  29.390  57.085  1.00  0.00    -0.361 OA
HETATM   20  H   UNL     1      10.388  29.936  56.376  1.00  0.00     0.217 HD
ENDBRANCH  16  19
ENDBRANCH   7  13
BRANCH   1  21
HETATM   21  N   UNL     1       4.037  26.937  53.159  1.00  0.00    -0.123 NA
HETATM   22  H   UNL     1       3.717  26.410  52.337  1.00  0.00     0.165 HD
BRANCH  21  23
HETATM   23  S   UNL     1       3.783  28.600  52.975  1.00  0.00     0.222 S 
HETATM   24  C   UNL     1       5.232  29.053  52.044  1.00  0.00     0.181 C 
HETATM   25  O   UNL     1       3.849  29.234  54.273  1.00  0.00    -0.210 OA
HETATM   26  O   UNL     1       2.633  28.761  52.112  1.00  0.00    -0.210 OA
ENDBRANCH  21  23
ENDBRANCH   1  21
TORSDOF 4
ENDMDL
MODEL 2
REMARK VINA RESULT:      -7.5      2.028      4.743
REMARK  4 active torsions:
REMARK  status: ('A' for Active; 'I' for Inactive)
REMARK    1  A    between atoms: S_2  and  N_3 
REMARK    2  A    between atoms: N_3  and  N_4 
REMARK    3  A    between atoms: C_10  and  C_11 
REMARK    4  A    between atoms: C_14  and  O_15 
ROOT
HETATM    1  N   UNL     1       5.009  27.520  54.161  1.00  0.00    -0.241 N 
HETATM    2  C   UNL     1       5.091  27.945  55.476  1.00  0.00     0.272 C 
HETATM    3  O   UNL     1       4.090  28.153  56.163  1.00  0.00    -0.266 OA
HETATM    4  C   UNL     1       6.448  28.214  55.988  1.00  0.00     0.054 A 
HETATM    5  C   UNL     1       7.471  28.377  55.041  1.00  0.00     0.026 A 
HETATM    6  N   UNL     1       7.199  28.245  53.667  1.00  0.00    -0.265 NA
HETATM    7  C   UNL     1       6.196  27.212  53.356  1.00  0.00     0.217 C 
HETATM    8  C   UNL     1       6.677  28.413  57.352  1.00  0.00     0.019 A 
HETATM    9  C   UNL     1       7.949  28.786  57.781  1.00  0.00     0.001 A 
HETATM   10  C   UNL     1       8.967  28.989  56.848  1.00  0.00     0.002 A 
HETATM   11  C   UNL     1       8.725  28.803  55.484  1.00  0.00     0.024 A 
HETATM   12  H   UNL     1       8.033  28.166  53.098  1.00  0.00     0.130 HD
ENDROOT
BRANCH   7  13
HETATM   13  C   UNL     1       6.769  25.801  53.578  1.00  0.00    -0.020 A 
HETATM   14  C   UNL     1       6.386  25.003  54.672  1.00  0.00     0.013 A 
HETATM   15  C   UNL     1       6.894  23.710  54.846  1.00  0.00     0.037 A 
HETATM   16  C   UNL     1       7.797  23.198  53.925  1.00  0.00     0.065 A 
HETATM   17  C   UNL     1       8.187  23.950  52.829  1.00  0.00     0.037 A 
HETATM   18  C   UNL     1       7.665  25.234  52.646  1.00  0.00     0.013 A 
BRANCH  16  19
HETATM   19  O   UNL     1       8.319  21.946  54.058  1.00  0.00    -0.361 OA
HETATM   20  H   UNL     1       8.982  21.959  54.767  1.00  0.00     0.217 HD
ENDBRANCH  16  19
ENDBRANCH   7  13
BRANCH   1  21
HETATM   21  N   UNL     1       3.777  27.937  53.445  1.00  0.00    -0.123 NA
HETATM   22  H   UNL     1       3.411  27.198  52.831  1.00  0.00     0.165 HD
BRANCH  21  23
HETATM   23  S   UNL     1       3.709  29.457  52.704  1.00  0.00     0.222 S 
HETATM   24  C   UNL     1       2.503  29.149  51.431  1.00  0.00     0.181 C 
HETATM   25  O   UNL     1       4.982  29.734  52.078  1.00  0.00    -0.210 OA
HETATM   26  O   UNL     1       3.121  30.369  53.660  1.00  0.00    -0.210 OA
ENDBRANCH  21  23
ENDBRANCH   1  21
TORSDOF 4
ENDMDL
MODEL 3
REMARK VINA RESULT:      -7.5      2.510      5.151
REMARK  4 active torsions:
REMARK  status: ('A' for Active; 'I' for Inactive)
REMARK    1  A    between atoms: S_2  and  N_3 
REMARK    2  A    between atoms: N_3  and  N_4 
REMARK    3  A    between atoms: C_10  and  C_11 
REMARK    4  A    between atoms: C_14  and  O_15 
ROOT
HETATM    1  N   UNL     1       6.124  27.606  55.420  1.00  0.00    -0.241 N 
HETATM    2  C   UNL     1       6.116  26.229  55.562  1.00  0.00     0.272 C 
HETATM    3  O   UNL     1       5.746  25.678  56.599  1.00  0.00    -0.266 OA
HETATM    4  C   UNL     1       6.652  25.456  54.426  1.00  0.00     0.054 A 
HETATM    5  C   UNL     1       7.440  26.148  53.494  1.00  0.00     0.026 A 
HETATM    6  N   UNL     1       7.663  27.531  53.634  1.00  0.00    -0.265 NA
HETATM    7  C   UNL     1       6.505  28.268  54.167  1.00  0.00     0.217 C 
HETATM    8  C   UNL     1       6.477  24.072  54.350  1.00  0.00     0.019 A 
HETATM    9  C   UNL     1       7.103  23.362  53.328  1.00  0.00     0.001 A 
HETATM   10  C   UNL     1       7.921  24.030  52.415  1.00  0.00     0.002 A 
HETATM   11  C   UNL     1       8.103  25.413  52.509  1.00  0.00     0.024 A 
HETATM   12  H   UNL     1       8.053  27.961  52.804  1.00  0.00     0.130 HD
ENDROOT
BRANCH   7  13
HETATM   13  C   UNL     1       5.377  28.357  53.124  1.00  0.00    -0.020 A 
HETATM   14  C   UNL     1       4.023  28.450  53.495  1.00  0.00     0.013 A 
HETATM   15  C   UNL     1       3.009  28.559  52.535  1.00  0.00     0.037 A 
HETATM   16  C   UNL     1       3.340  28.574  51.187  1.00  0.00     0.065 A 
HETATM   17  C   UNL     1       4.663  28.497  50.786  1.00  0.00     0.037 A 
HETATM   18  C   UNL     1       5.676  28.407  51.745  1.00  0.00     0.013 A 
BRANCH  16  19
HETATM   19  O   UNL     1       2.385  28.675  50.220  1.00  0.00    -0.361 OA
HETATM   20  H   UNL     1       2.200  27.788  49.871  1.00  0.00     0.217 HD
ENDBRANCH  16  19
ENDBRANCH   7  13
BRANCH   1  21
HETATM   21  N   UNL     1       6.302  28.364  56.684  1.00  0.00    -0.123 NA
HETATM   22  H   UNL     1       5.832  29.279  56.664  1.00  0.00     0.165 HD
BRANCH  21  23
HETATM   23  S   UNL     1       7.834  28.463  57.397  1.00  0.00     0.222 S 
HETATM   24  C   UNL     1       7.628  29.904  58.422  1.00  0.00     0.181 C 
HETATM   25  O   UNL     1       8.811  28.759  56.373  1.00  0.00    -0.210 OA
HETATM   26  O   UNL     1       7.973  27.316  58.266  1.00  0.00    -0.210 OA
ENDBRANCH  21  23
ENDBRANCH   1  21
TORSDOF 4
ENDMDL
MODEL 4
REMARK VINA RESULT:      -7.4      9.284     11.980
REMARK  4 active torsions:
REMARK  status: ('A' for Active; 'I' for Inactive)
REMARK    1  A    between atoms: S_2  and  N_3 
REMARK    2  A    between atoms: N_3  and  N_4 
REMARK    3  A    between atoms: C_10  and  C_11 
REMARK    4  A    between atoms: C_14  and  O_15 
ROOT
HETATM    1  N   UNL     1       6.457  32.783  62.091  1.00  0.00    -0.241 N 
HETATM    2  C   UNL     1       7.208  32.873  63.250  1.00  0.00     0.272 C 
HETATM    3  O   UNL     1       8.372  32.477  63.311  1.00  0.00    -0.266 OA
HETATM    4  C   UNL     1       6.508  33.399  64.437  1.00  0.00     0.054 A 
HETATM    5  C   UNL     1       5.105  33.410  64.403  1.00  0.00     0.026 A 
HETATM    6  N   UNL     1       4.416  32.971  63.257  1.00  0.00    -0.265 NA
HETATM    7  C   UNL     1       5.091  33.307  61.992  1.00  0.00     0.217 C 
HETATM    8  C   UNL     1       7.213  33.760  65.588  1.00  0.00     0.019 A 
HETATM    9  C   UNL     1       6.508  34.135  66.729  1.00  0.00     0.001 A 
HETATM   10  C   UNL     1       5.112  34.115  66.723  1.00  0.00     0.002 A 
HETATM   11  C   UNL     1       4.415  33.737  65.571  1.00  0.00     0.024 A 
HETATM   12  H   UNL     1       3.435  33.223  63.257  1.00  0.00     0.130 HD
ENDROOT
BRANCH   7  13
HETATM   13  C   UNL     1       5.006  34.817  61.704  1.00  0.00    -0.020 A 
HETATM   14  C   UNL     1       5.815  35.751  62.377  1.00  0.00     0.013 A 
HETATM   15  C   UNL     1       5.748  37.119  62.084  1.00  0.00     0.037 A 
HETATM   16  C   UNL     1       4.864  37.570  61.114  1.00  0.00     0.065 A 
HETATM   17  C   UNL     1       4.062  36.678  60.423  1.00  0.00     0.037 A 
HETATM   18  C   UNL     1       4.143  35.310  60.702  1.00  0.00     0.013 A 
BRANCH  16  19
HETATM   19  O   UNL     1       4.763  38.893  60.800  1.00  0.00    -0.361 OA
HETATM   20  H   UNL     1       4.817  38.990  59.836  1.00  0.00     0.217 HD
ENDBRANCH  16  19
ENDBRANCH   7  13
BRANCH   1  21
HETATM   21  N   UNL     1       6.836  31.668  61.185  1.00  0.00    -0.123 NA
HETATM   22  H   UNL     1       7.301  30.898  61.683  1.00  0.00     0.165 HD
BRANCH  21  23
HETATM   23  S   UNL     1       7.590  32.004  59.708  1.00  0.00     0.222 S 
HETATM   24  C   UNL     1       8.064  30.365  59.200  1.00  0.00     0.181 C 
HETATM   25  O   UNL     1       8.787  32.777  59.955  1.00  0.00    -0.210 OA
HETATM   26  O   UNL     1       6.563  32.469  58.803  1.00  0.00    -0.210 OA
ENDBRANCH  21  23
ENDBRANCH   1  21
TORSDOF 4
ENDMDL
MODEL 5
REMARK VINA RESULT:      -7.3     11.297     13.988
REMARK  4 active torsions:
REMARK  status: ('A' for Active; 'I' for Inactive)
REMARK    1  A    between atoms: S_2  and  N_3 
REMARK    2  A    between atoms: N_3  and  N_4 
REMARK    3  A    between atoms: C_10  and  C_11 
REMARK    4  A    between atoms: C_14  and  O_15 
ROOT
HETATM    1  N   UNL     1       5.125  35.274  65.617  1.00  0.00    -0.241 N 
HETATM    2  C   UNL     1       4.809  36.310  64.754  1.00  0.00     0.272 C 
HETATM    3  O   UNL     1       5.138  37.476  64.979  1.00  0.00    -0.266 OA
HETATM    4  C   UNL     1       3.983  35.952  63.586  1.00  0.00     0.054 A 
HETATM    5  C   UNL     1       3.297  34.729  63.635  1.00  0.00     0.026 A 
HETATM    6  N   UNL     1       3.437  33.876  64.745  1.00  0.00    -0.265 NA
HETATM    7  C   UNL     1       4.790  33.876  65.327  1.00  0.00     0.217 C 
HETATM    8  C   UNL     1       3.803  36.848  62.529  1.00  0.00     0.019 A 
HETATM    9  C   UNL     1       2.918  36.524  61.504  1.00  0.00     0.001 A 
HETATM   10  C   UNL     1       2.200  35.328  61.557  1.00  0.00     0.002 A 
HETATM   11  C   UNL     1       2.375  34.444  62.626  1.00  0.00     0.024 A 
HETATM   12  H   UNL     1       3.080  32.943  64.582  1.00  0.00     0.130 HD
ENDROOT
BRANCH   7  13
HETATM   13  C   UNL     1       5.789  33.159  64.403  1.00  0.00    -0.020 A 
HETATM   14  C   UNL     1       5.372  32.233  63.428  1.00  0.00     0.013 A 
HETATM   15  C   UNL     1       6.289  31.609  62.574  1.00  0.00     0.037 A 
HETATM   16  C   UNL     1       7.641  31.902  62.688  1.00  0.00     0.065 A 
HETATM   17  C   UNL     1       8.087  32.817  63.627  1.00  0.00     0.037 A 
HETATM   18  C   UNL     1       7.168  33.454  64.467  1.00  0.00     0.013 A 
BRANCH  16  19
HETATM   19  O   UNL     1       8.569  31.315  61.880  1.00  0.00    -0.361 OA
HETATM   20  H   UNL     1       9.439  31.700  62.074  1.00  0.00     0.217 HD
ENDBRANCH  16  19
ENDBRANCH   7  13
BRANCH   1  21
HETATM   21  N   UNL     1       5.271  35.669  67.041  1.00  0.00    -0.123 NA
HETATM   22  H   UNL     1       5.643  36.622  67.149  1.00  0.00     0.165 HD
BRANCH  21  23
HETATM   23  S   UNL     1       5.973  34.594  68.144  1.00  0.00     0.222 S 
HETATM   24  C   UNL     1       6.491  35.724  69.420  1.00  0.00     0.181 C 
HETATM   25  O   UNL     1       7.149  34.005  67.543  1.00  0.00    -0.210 OA
HETATM   26  O   UNL     1       4.907  33.779  68.680  1.00  0.00    -0.210 OA
ENDBRANCH  21  23
ENDBRANCH   1  21
TORSDOF 4
ENDMDL
MODEL 6
REMARK VINA RESULT:      -7.3      1.600      2.207
REMARK  4 active torsions:
REMARK  status: ('A' for Active; 'I' for Inactive)
REMARK    1  A    between atoms: S_2  and  N_3 
REMARK    2  A    between atoms: N_3  and  N_4 
REMARK    3  A    between atoms: C_10  and  C_11 
REMARK    4  A    between atoms: C_14  and  O_15 
ROOT
HETATM    1  N   UNL     1       6.479  28.228  53.810  1.00  0.00    -0.241 N 
HETATM    2  C   UNL     1       6.830  26.957  53.390  1.00  0.00     0.272 C 
HETATM    3  O   UNL     1       6.897  26.655  52.198  1.00  0.00    -0.266 OA
HETATM    4  C   UNL     1       7.042  25.958  54.453  1.00  0.00     0.054 A 
HETATM    5  C   UNL     1       6.527  26.253  55.724  1.00  0.00     0.026 A 
HETATM    6  N   UNL     1       5.876  27.477  55.964  1.00  0.00    -0.265 NA
HETATM    7  C   UNL     1       6.455  28.613  55.226  1.00  0.00     0.217 C 
HETATM    8  C   UNL     1       7.627  24.720  54.172  1.00  0.00     0.019 A 
HETATM    9  C   UNL     1       7.697  23.757  55.175  1.00  0.00     0.001 A 
HETATM   10  C   UNL     1       7.156  24.022  56.435  1.00  0.00     0.002 A 
HETATM   11  C   UNL     1       6.558  25.257  56.702  1.00  0.00     0.024 A 
HETATM   12  H   UNL     1       5.742  27.676  56.947  1.00  0.00     0.130 HD
ENDROOT
BRANCH   7  13
HETATM   13  C   UNL     1       7.826  29.006  55.804  1.00  0.00    -0.020 A 
HETATM   14  C   UNL     1       8.022  29.217  57.181  1.00  0.00     0.013 A 
HETATM   15  C   UNL     1       9.281  29.546  57.697  1.00  0.00     0.037 A 
HETATM   16  C   UNL     1      10.363  29.672  56.837  1.00  0.00     0.065 A 
HETATM   17  C   UNL     1      10.210  29.460  55.477  1.00  0.00     0.037 A 
HETATM   18  C   UNL     1       8.956  29.112  54.965  1.00  0.00     0.013 A 
BRANCH  16  19
HETATM   19  O   UNL     1      11.605  29.995  57.296  1.00  0.00    -0.361 OA
HETATM   20  H   UNL     1      12.255  29.800  56.601  1.00  0.00     0.217 HD
ENDBRANCH  16  19
ENDBRANCH   7  13
BRANCH   1  21
HETATM   21  N   UNL     1       5.598  28.975  52.876  1.00  0.00    -0.123 NA
HETATM   22  H   UNL     1       5.938  29.929  52.693  1.00  0.00     0.165 HD
BRANCH  21  23
HETATM   23  S   UNL     1       3.919  28.940  53.093  1.00  0.00     0.222 S 
HETATM   24  C   UNL     1       3.368  29.049  51.403  1.00  0.00     0.181 C 
HETATM   25  O   UNL     1       3.510  30.137  53.792  1.00  0.00    -0.210 OA
HETATM   26  O   UNL     1       3.583  27.623  53.585  1.00  0.00    -0.210 OA
ENDBRANCH  21  23
ENDBRANCH   1  21
TORSDOF 4
ENDMDL
MODEL 7
REMARK VINA RESULT:      -7.2      2.406      3.271
REMARK  4 active torsions:
REMARK  status: ('A' for Active; 'I' for Inactive)
REMARK    1  A    between atoms: S_2  and  N_3 
REMARK    2  A    between atoms: N_3  and  N_4 
REMARK    3  A    between atoms: C_10  and  C_11 
REMARK    4  A    between atoms: C_14  and  O_15 
ROOT
HETATM    1  N   UNL     1       6.142  29.130  55.189  1.00  0.00    -0.241 N 
HETATM    2  C   UNL     1       6.227  27.948  54.474  1.00  0.00     0.272 C 
HETATM    3  O   UNL     1       5.908  27.874  53.286  1.00  0.00    -0.266 OA
HETATM    4  C   UNL     1       6.646  26.757  55.236  1.00  0.00     0.054 A 
HETATM    5  C   UNL     1       6.563  26.829  56.635  1.00  0.00     0.026 A 
HETATM    6  N   UNL     1       6.134  28.012  57.265  1.00  0.00    -0.265 NA
HETATM    7  C   UNL     1       6.576  29.241  56.585  1.00  0.00     0.217 C 
HETATM    8  C   UNL     1       6.998  25.572  54.586  1.00  0.00     0.019 A 
HETATM    9  C   UNL     1       7.268  24.434  55.342  1.00  0.00     0.001 A 
HETATM   10  C   UNL     1       7.153  24.479  56.733  1.00  0.00     0.002 A 
HETATM   11  C   UNL     1       6.785  25.665  57.374  1.00  0.00     0.024 A 
HETATM   12  H   UNL     1       6.318  28.027  58.261  1.00  0.00     0.130 HD
ENDROOT
BRANCH   7  13
HETATM   13  C   UNL     1       8.088  29.460  56.768  1.00  0.00    -0.020 A 
HETATM   14  C   UNL     1       8.656  29.732  58.027  1.00  0.00     0.013 A 
HETATM   15  C   UNL     1      10.037  29.901  58.184  1.00  0.00     0.037 A 
HETATM   16  C   UNL     1      10.870  29.802  57.078  1.00  0.00     0.065 A 
HETATM   17  C   UNL     1      10.348  29.523  55.826  1.00  0.00     0.037 A 
HETATM   18  C   UNL     1       8.970  29.336  55.673  1.00  0.00     0.013 A 
BRANCH  16  19
HETATM   19  O   UNL     1      12.219  29.964  57.184  1.00  0.00    -0.361 OA
HETATM   20  H   UNL     1      12.397  30.715  57.774  1.00  0.00     0.217 HD
ENDBRANCH  16  19
ENDBRANCH   7  13
BRANCH   1  21
HETATM   21  N   UNL     1       5.101  30.076  54.711  1.00  0.00    -0.123 NA
HETATM   22  H   UNL     1       5.469  30.757  54.034  1.00  0.00     0.165 HD
BRANCH  21  23
HETATM   23  S   UNL     1       4.052  30.804  55.823  1.00  0.00     0.222 S 
HETATM   24  C   UNL     1       2.809  31.454  54.726  1.00  0.00     0.181 C 
HETATM   25  O   UNL     1       4.733  31.910  56.458  1.00  0.00    -0.210 OA
HETATM   26  O   UNL     1       3.450  29.742  56.596  1.00  0.00    -0.210 OA
ENDBRANCH  21  23
ENDBRANCH   1  21
TORSDOF 4
ENDMDL
MODEL 8
REMARK VINA RESULT:      -7.1      9.039     11.244
REMARK  4 active torsions:
REMARK  status: ('A' for Active; 'I' for Inactive)
REMARK    1  A    between atoms: S_2  and  N_3 
REMARK    2  A    between atoms: N_3  and  N_4 
REMARK    3  A    between atoms: C_10  and  C_11 
REMARK    4  A    between atoms: C_14  and  O_15 
ROOT
HETATM    1  N   UNL     1       4.810  32.769  61.035  1.00  0.00    -0.241 N 
HETATM    2  C   UNL     1       6.053  32.625  61.628  1.00  0.00     0.272 C 
HETATM    3  O   UNL     1       6.992  32.069  61.056  1.00  0.00    -0.266 OA
HETATM    4  C   UNL     1       6.168  33.104  63.017  1.00  0.00     0.054 A 
HETATM    5  C   UNL     1       4.976  33.310  63.727  1.00  0.00     0.026 A 
HETATM    6  N   UNL     1       3.730  33.101  63.106  1.00  0.00    -0.265 NA
HETATM    7  C   UNL     1       3.704  33.483  61.683  1.00  0.00     0.217 C 
HETATM    8  C   UNL     1       7.416  33.233  63.633  1.00  0.00     0.019 A 
HETATM    9  C   UNL     1       7.477  33.570  64.983  1.00  0.00     0.001 A 
HETATM   10  C   UNL     1       6.299  33.741  65.713  1.00  0.00     0.002 A 
HETATM   11  C   UNL     1       5.055  33.594  65.092  1.00  0.00     0.024 A 
HETATM   12  H   UNL     1       2.951  33.483  63.628  1.00  0.00     0.130 HD
ENDROOT
BRANCH   7  13
HETATM   13  C   UNL     1       3.749  35.012  61.521  1.00  0.00    -0.020 A 
HETATM   14  C   UNL     1       4.175  35.623  60.326  1.00  0.00     0.013 A 
HETATM   15  C   UNL     1       4.183  37.016  60.182  1.00  0.00     0.037 A 
HETATM   16  C   UNL     1       3.767  37.817  61.236  1.00  0.00     0.065 A 
HETATM   17  C   UNL     1       3.329  37.250  62.421  1.00  0.00     0.037 A 
HETATM   18  C   UNL     1       3.303  35.859  62.558  1.00  0.00     0.013 A 
BRANCH  16  19
HETATM   19  O   UNL     1       3.763  39.177  61.140  1.00  0.00    -0.361 OA
HETATM   20  H   UNL     1       4.440  39.533  61.737  1.00  0.00     0.217 HD
ENDBRANCH  16  19
ENDBRANCH   7  13
BRANCH   1  21
HETATM   21  N   UNL     1       4.467  31.723  60.038  1.00  0.00    -0.123 NA
HETATM   22  H   UNL     1       4.960  30.837  60.213  1.00  0.00     0.165 HD
BRANCH  21  23
HETATM   23  S   UNL     1       4.436  32.108  58.390  1.00  0.00     0.222 S 
HETATM   24  C   UNL     1       4.421  30.479  57.672  1.00  0.00     0.181 C 
HETATM   25  O   UNL     1       5.676  32.760  58.036  1.00  0.00    -0.210 OA
HETATM   26  O   UNL     1       3.155  32.722  58.123  1.00  0.00    -0.210 OA
ENDBRANCH  21  23
ENDBRANCH   1  21
TORSDOF 4
ENDMDL
MODEL 9
REMARK VINA RESULT:      -6.9      2.472      4.912
REMARK  4 active torsions:
REMARK  status: ('A' for Active; 'I' for Inactive)
REMARK    1  A    between atoms: S_2  and  N_3 
REMARK    2  A    between atoms: N_3  and  N_4 
REMARK    3  A    between atoms: C_10  and  C_11 
REMARK    4  A    between atoms: C_14  and  O_15 
ROOT
HETATM    1  N   UNL     1       6.117  24.941  52.851  1.00  0.00    -0.241 N 
HETATM    2  C   UNL     1       5.265  25.147  53.923  1.00  0.00     0.272 C 
HETATM    3  O   UNL     1       4.044  25.227  53.785  1.00  0.00    -0.266 OA
HETATM    4  C   UNL     1       5.910  25.347  55.234  1.00  0.00     0.054 A 
HETATM    5  C   UNL     1       7.273  25.676  55.236  1.00  0.00     0.026 A 
HETATM    6  N   UNL     1       7.988  25.766  54.027  1.00  0.00    -0.265 NA
HETATM    7  C   UNL     1       7.567  24.783  53.013  1.00  0.00     0.217 C 
HETATM    8  C   UNL     1       5.163  25.324  56.415  1.00  0.00     0.019 A 
HETATM    9  C   UNL     1       5.784  25.639  57.620  1.00  0.00     0.001 A 
HETATM   10  C   UNL     1       7.132  26.005  57.634  1.00  0.00     0.002 A 
HETATM   11  C   UNL     1       7.867  26.040  56.446  1.00  0.00     0.024 A 
HETATM   12  H   UNL     1       8.992  25.791  54.154  1.00  0.00     0.130 HD
ENDROOT
BRANCH   7  13
HETATM   13  C   UNL     1       8.015  23.363  53.400  1.00  0.00    -0.020 A 
HETATM   14  C   UNL     1       8.868  23.122  54.493  1.00  0.00     0.013 A 
HETATM   15  C   UNL     1       9.246  21.822  54.851  1.00  0.00     0.037 A 
HETATM   16  C   UNL     1       8.775  20.744  54.115  1.00  0.00     0.065 A 
HETATM   17  C   UNL     1       7.925  20.943  53.040  1.00  0.00     0.037 A 
HETATM   18  C   UNL     1       7.533  22.240  52.695  1.00  0.00     0.013 A 
BRANCH  16  19
HETATM   19  O   UNL     1       9.121  19.462  54.425  1.00  0.00    -0.361 OA
HETATM   20  H   UNL     1      10.076  19.430  54.597  1.00  0.00     0.217 HD
ENDBRANCH  16  19
ENDBRANCH   7  13
BRANCH   1  21
HETATM   21  N   UNL     1       5.619  25.452  51.549  1.00  0.00    -0.123 NA
HETATM   22  H   UNL     1       6.110  25.033  50.748  1.00  0.00     0.165 HD
BRANCH  21  23
HETATM   23  S   UNL     1       5.377  27.114  51.334  1.00  0.00     0.222 S 
HETATM   24  C   UNL     1       5.513  27.240  49.563  1.00  0.00     0.181 C 
HETATM   25  O   UNL     1       6.479  27.831  51.936  1.00  0.00    -0.210 OA
HETATM   26  O   UNL     1       4.005  27.392  51.695  1.00  0.00    -0.210 OA
ENDBRANCH  21  23
ENDBRANCH   1  21
TORSDOF 4
ENDMDL
MODEL 10
REMARK VINA RESULT:      -6.9      2.383      4.780
REMARK  4 active torsions:
REMARK  status: ('A' for Active; 'I' for Inactive)
REMARK    1  A    between atoms: S_2  and  N_3 
REMARK    2  A    between atoms: N_3  and  N_4 
REMARK    3  A    between atoms: C_10  and  C_11 
REMARK    4  A    between atoms: C_14  and  O_15 
ROOT
HETATM    1  N   UNL     1       5.273  27.246  52.411  1.00  0.00    -0.241 N 
HETATM    2  C   UNL     1       4.459  27.735  53.418  1.00  0.00     0.272 C 
HETATM    3  O   UNL     1       3.250  27.910  53.259  1.00  0.00    -0.266 OA
HETATM    4  C   UNL     1       5.136  28.112  54.673  1.00  0.00     0.054 A 
HETATM    5  C   UNL     1       6.526  28.297  54.622  1.00  0.00     0.026 A 
HETATM    6  N   UNL     1       7.231  28.085  53.423  1.00  0.00    -0.265 NA
HETATM    7  C   UNL     1       6.701  26.977  52.610  1.00  0.00     0.217 C 
HETATM    8  C   UNL     1       4.405  28.388  55.831  1.00  0.00     0.019 A 
HETATM    9  C   UNL     1       5.069  28.860  56.960  1.00  0.00     0.001 A 
HETATM   10  C   UNL     1       6.447  29.085  56.914  1.00  0.00     0.002 A 
HETATM   11  C   UNL     1       7.168  28.821  55.746  1.00  0.00     0.024 A 
HETATM   12  H   UNL     1       8.234  28.033  53.550  1.00  0.00     0.130 HD
ENDROOT
BRANCH   7  13
HETATM   13  C   UNL     1       7.010  25.617  53.260  1.00  0.00    -0.020 A 
HETATM   14  C   UNL     1       6.566  25.292  54.556  1.00  0.00     0.013 A 
HETATM   15  C   UNL     1       6.830  24.040  55.125  1.00  0.00     0.037 A 
HETATM   16  C   UNL     1       7.546  23.095  54.402  1.00  0.00     0.065 A 
HETATM   17  C   UNL     1       7.987  23.376  53.120  1.00  0.00     0.037 A 
HETATM   18  C   UNL     1       7.707  24.620  52.545  1.00  0.00     0.013 A 
BRANCH  16  19
HETATM   19  O   UNL     1       7.829  21.866  54.919  1.00  0.00    -0.361 OA
HETATM   20  H   UNL     1       8.489  21.435  54.352  1.00  0.00     0.217 HD
ENDBRANCH  16  19
ENDBRANCH   7  13
BRANCH   1  21
HETATM   21  N   UNL     1       4.813  27.551  51.032  1.00  0.00    -0.123 NA
HETATM   22  H   UNL     1       5.138  26.856  50.346  1.00  0.00     0.165 HD
BRANCH  21  23
HETATM   23  S   UNL     1       4.939  29.129  50.432  1.00  0.00     0.222 S 
HETATM   24  C   UNL     1       5.456  28.805  48.759  1.00  0.00     0.181 C 
HETATM   25  O   UNL     1       6.010  29.811  51.123  1.00  0.00    -0.210 OA
HETATM   26  O   UNL     1       3.601  29.673  50.385  1.00  0.00    -0.210 OA
ENDBRANCH  21  23
ENDBRANCH   1  21
TORSDOF 4
ENDMDL
