MODEL 1
REMARK VINA RESULT:     -10.2      0.000      0.000
REMARK  6 active torsions:
REMARK  status: ('A' for Active; 'I' for Inactive)
REMARK    1  A    between atoms: O_2  and  C_3 
REMARK    2  A    between atoms: C_5  and  C_6 
REMARK    3  A    between atoms: C_12  and  C_13 
REMARK       I    between atoms: C_13  and  N_14 
REMARK    4  A    between atoms: N_14  and  C_15 
REMARK    5  A    between atoms: C_15  and  C_16 
REMARK    6  A    between atoms: C_23  and  C_24 
ROOT
HETATM    1  C   UNL     1       7.333  30.662  58.391  1.00  0.00     0.118 C 
HETATM    2  N   UNL     1       7.275  29.206  58.325  1.00  0.00    -0.365 N 
HETATM    3  C   UNL     1       6.662  28.609  57.272  1.00  0.00     0.138 A 
HETATM    4  N   UNL     1       5.792  29.338  56.487  1.00  0.00    -0.240 N 
HETATM    5  N   UNL     1       5.313  28.658  55.437  1.00  0.00    -0.181 NA
HETATM    6  C   UNL     1       5.786  27.425  55.630  1.00  0.00     0.160 A 
HETATM    7  C   UNL     1       6.653  27.327  56.748  1.00  0.00     0.096 A 
HETATM    8  C   UNL     1       5.492  30.749  56.673  1.00  0.00     0.221 C 
HETATM    9  C   UNL     1       5.945  31.225  58.067  1.00  0.00     0.066 C 
HETATM   10  H   UNL     1       7.792  28.699  59.042  1.00  0.00     0.161 HD
ENDROOT
BRANCH   7  11
HETATM   11  C   UNL     1       7.347  26.118  57.152  1.00  0.00     0.257 C 
HETATM   12  N   UNL     1       7.343  25.092  56.236  1.00  0.00    -0.352 N 
HETATM   13  H   UNL     1       6.686  25.156  55.472  1.00  0.00     0.163 HD
HETATM   14  O   UNL     1       7.853  26.008  58.264  1.00  0.00    -0.267 OA
BRANCH  12  15
HETATM   15  C   UNL     1       7.834  23.788  56.609  1.00  0.00     0.161 C 
BRANCH  15  16
HETATM   16  C   UNL     1       7.860  22.857  55.428  1.00  0.00    -0.041 A 
HETATM   17  C   UNL     1       7.843  23.372  54.125  1.00  0.00     0.009 A 
HETATM   18  C   UNL     1       7.876  22.515  53.023  1.00  0.00     0.001 A 
HETATM   19  C   UNL     1       7.913  21.136  53.215  1.00  0.00     0.000 A 
HETATM   20  C   UNL     1       7.913  20.612  54.507  1.00  0.00     0.001 A 
HETATM   21  C   UNL     1       7.883  21.467  55.610  1.00  0.00     0.009 A 
ENDBRANCH  15  16
ENDBRANCH  12  15
ENDBRANCH   7  11
BRANCH   1  22
HETATM   22  C   UNL     1       7.863  31.101  59.741  1.00  0.00    -0.033 A 
HETATM   23  C   UNL     1       7.150  32.061  60.486  1.00  0.00     0.046 A 
HETATM   24  C   UNL     1       7.607  32.481  61.739  1.00  0.00     0.068 A 
HETATM   25  C   UNL     1       8.785  31.939  62.251  1.00  0.00     0.037 A 
HETATM   26  C   UNL     1       9.512  31.001  61.520  1.00  0.00     0.003 A 
HETATM   27  C   UNL     1       9.058  30.589  60.268  1.00  0.00     0.009 A 
BRANCH  24  28
HETATM   28  O   UNL     1       6.998  33.397  62.551  1.00  0.00    -0.356 OA
HETATM   29  C   UNL     1       7.254  33.298  63.946  1.00  0.00     0.210 C 
ENDBRANCH  24  28
ENDBRANCH   1  22
BRANCH   8  30
HETATM   30  C   UNL     1       4.016  31.044  56.497  1.00  0.00     0.409 C 
HETATM   31  F   UNL     1       3.229  30.111  57.076  1.00  0.00    -0.169 F 
HETATM   32  F   UNL     1       3.718  32.228  57.100  1.00  0.00    -0.169 F 
HETATM   33  F   UNL     1       3.640  31.180  55.209  1.00  0.00    -0.169 F 
ENDBRANCH   8  30
TORSDOF 6
ENDMDL
MODEL 2
REMARK VINA RESULT:     -10.0      2.371      8.844
REMARK  6 active torsions:
REMARK  status: ('A' for Active; 'I' for Inactive)
REMARK    1  A    between atoms: O_2  and  C_3 
REMARK    2  A    between atoms: C_5  and  C_6 
REMARK    3  A    between atoms: C_12  and  C_13 
REMARK       I    between atoms: C_13  and  N_14 
REMARK    4  A    between atoms: N_14  and  C_15 
REMARK    5  A    between atoms: C_15  and  C_16 
REMARK    6  A    between atoms: C_23  and  C_24 
ROOT
HETATM    1  C   UNL     1       5.970  25.309  54.603  1.00  0.00     0.118 C 
HETATM    2  N   UNL     1       6.741  26.260  55.396  1.00  0.00    -0.365 N 
HETATM    3  C   UNL     1       6.290  27.532  55.539  1.00  0.00     0.138 A 
HETATM    4  N   UNL     1       5.344  28.022  54.661  1.00  0.00    -0.240 N 
HETATM    5  N   UNL     1       4.926  29.260  54.955  1.00  0.00    -0.181 NA
HETATM    6  C   UNL     1       5.719  29.618  55.966  1.00  0.00     0.160 A 
HETATM    7  C   UNL     1       6.583  28.579  56.395  1.00  0.00     0.096 A 
HETATM    8  C   UNL     1       4.740  27.257  53.582  1.00  0.00     0.221 C 
HETATM    9  C   UNL     1       5.557  25.983  53.290  1.00  0.00     0.066 C 
HETATM   10  H   UNL     1       7.550  25.886  55.891  1.00  0.00     0.161 HD
ENDROOT
BRANCH   7  11
HETATM   11  C   UNL     1       7.509  28.681  57.509  1.00  0.00     0.257 C 
HETATM   12  N   UNL     1       7.869  29.958  57.872  1.00  0.00    -0.352 N 
HETATM   13  H   UNL     1       7.662  30.700  57.221  1.00  0.00     0.163 HD
HETATM   14  O   UNL     1       7.977  27.684  58.049  1.00  0.00    -0.267 OA
BRANCH  12  15
HETATM   15  C   UNL     1       8.924  30.165  58.833  1.00  0.00     0.161 C 
BRANCH  15  16
HETATM   16  C   UNL     1       8.458  31.023  59.978  1.00  0.00    -0.041 A 
HETATM   17  C   UNL     1       7.299  31.800  59.848  1.00  0.00     0.009 A 
HETATM   18  C   UNL     1       6.855  32.593  60.908  1.00  0.00     0.001 A 
HETATM   19  C   UNL     1       7.572  32.624  62.102  1.00  0.00     0.000 A 
HETATM   20  C   UNL     1       8.736  31.869  62.236  1.00  0.00     0.001 A 
HETATM   21  C   UNL     1       9.180  31.073  61.178  1.00  0.00     0.009 A 
ENDBRANCH  15  16
ENDBRANCH  12  15
ENDBRANCH   7  11
BRANCH   1  22
HETATM   22  C   UNL     1       6.762  24.034  54.403  1.00  0.00    -0.033 A 
HETATM   23  C   UNL     1       7.148  23.274  55.525  1.00  0.00     0.046 A 
HETATM   24  C   UNL     1       7.871  22.087  55.375  1.00  0.00     0.068 A 
HETATM   25  C   UNL     1       8.215  21.657  54.093  1.00  0.00     0.037 A 
HETATM   26  C   UNL     1       7.857  22.405  52.973  1.00  0.00     0.003 A 
HETATM   27  C   UNL     1       7.141  23.592  53.127  1.00  0.00     0.009 A 
BRANCH  24  28
HETATM   28  O   UNL     1       8.292  21.268  56.385  1.00  0.00    -0.356 OA
HETATM   29  C   UNL     1       9.340  20.355  56.086  1.00  0.00     0.210 C 
ENDBRANCH  24  28
ENDBRANCH   1  22
BRANCH   8  30
HETATM   30  C   UNL     1       4.609  28.073  52.312  1.00  0.00     0.409 C 
HETATM   31  F   UNL     1       5.689  28.853  52.084  1.00  0.00    -0.169 F 
HETATM   32  F   UNL     1       4.510  27.232  51.245  1.00  0.00    -0.169 F 
HETATM   33  F   UNL     1       3.506  28.847  52.275  1.00  0.00    -0.169 F 
ENDBRANCH   8  30
TORSDOF 6
ENDMDL
MODEL 3
REMARK VINA RESULT:      -9.8      4.751      9.451
REMARK  6 active torsions:
REMARK  status: ('A' for Active; 'I' for Inactive)
REMARK    1  A    between atoms: O_2  and  C_3 
REMARK    2  A    between atoms: C_5  and  C_6 
REMARK    3  A    between atoms: C_12  and  C_13 
REMARK       I    between atoms: C_13  and  N_14 
REMARK    4  A    between atoms: N_14  and  C_15 
REMARK    5  A    between atoms: C_15  and  C_16 
REMARK    6  A    between atoms: C_23  and  C_24 
ROOT
HETATM    1  C   UNL     1       7.367  25.496  52.879  1.00  0.00     0.118 C 
HETATM    2  N   UNL     1       7.154  25.740  54.301  1.00  0.00    -0.365 N 
HETATM    3  C   UNL     1       7.822  24.992  55.215  1.00  0.00     0.138 A 
HETATM    4  N   UNL     1       8.390  23.794  54.831  1.00  0.00    -0.240 N 
HETATM    5  N   UNL     1       9.085  23.190  55.804  1.00  0.00    -0.181 NA
HETATM    6  C   UNL     1       8.846  23.956  56.871  1.00  0.00     0.160 A 
HETATM    7  C   UNL     1       8.079  25.110  56.571  1.00  0.00     0.096 A 
HETATM    8  C   UNL     1       8.366  23.261  53.478  1.00  0.00     0.221 C 
HETATM    9  C   UNL     1       7.308  23.986  52.624  1.00  0.00     0.066 C 
HETATM   10  H   UNL     1       6.571  26.541  54.540  1.00  0.00     0.161 HD
ENDROOT
BRANCH   7  11
HETATM   11  C   UNL     1       7.722  26.137  57.532  1.00  0.00     0.257 C 
HETATM   12  N   UNL     1       7.446  27.378  57.006  1.00  0.00    -0.352 N 
HETATM   13  H   UNL     1       7.726  27.549  56.052  1.00  0.00     0.163 HD
HETATM   14  O   UNL     1       7.723  25.917  58.739  1.00  0.00    -0.267 OA
BRANCH  12  15
HETATM   15  C   UNL     1       7.270  28.510  57.881  1.00  0.00     0.161 C 
BRANCH  15  16
HETATM   16  C   UNL     1       8.470  29.417  57.850  1.00  0.00    -0.041 A 
HETATM   17  C   UNL     1       9.504  29.184  56.933  1.00  0.00     0.009 A 
HETATM   18  C   UNL     1      10.617  30.025  56.891  1.00  0.00     0.001 A 
HETATM   19  C   UNL     1      10.712  31.098  57.773  1.00  0.00     0.000 A 
HETATM   20  C   UNL     1       9.698  31.329  58.702  1.00  0.00     0.001 A 
HETATM   21  C   UNL     1       8.582  30.491  58.743  1.00  0.00     0.009 A 
ENDBRANCH  15  16
ENDBRANCH  12  15
ENDBRANCH   7  11
BRANCH   1  22
HETATM   22  C   UNL     1       6.369  26.286  52.059  1.00  0.00    -0.033 A 
HETATM   23  C   UNL     1       5.721  25.669  50.971  1.00  0.00     0.046 A 
HETATM   24  C   UNL     1       4.788  26.367  50.200  1.00  0.00     0.068 A 
HETATM   25  C   UNL     1       4.499  27.695  50.518  1.00  0.00     0.037 A 
HETATM   26  C   UNL     1       5.143  28.327  51.580  1.00  0.00     0.003 A 
HETATM   27  C   UNL     1       6.079  27.630  52.342  1.00  0.00     0.009 A 
BRANCH  24  28
HETATM   28  O   UNL     1       4.096  25.871  49.131  1.00  0.00    -0.356 OA
HETATM   29  C   UNL     1       4.184  26.595  47.910  1.00  0.00     0.210 C 
ENDBRANCH  24  28
ENDBRANCH   1  22
BRANCH   8  30
HETATM   30  C   UNL     1       8.093  21.771  53.459  1.00  0.00     0.409 C 
HETATM   31  F   UNL     1       7.340  21.369  54.506  1.00  0.00    -0.169 F 
HETATM   32  F   UNL     1       7.390  21.456  52.336  1.00  0.00    -0.169 F 
HETATM   33  F   UNL     1       9.210  21.016  53.420  1.00  0.00    -0.169 F 
ENDBRANCH   8  30
TORSDOF 6
ENDMDL
MODEL 4
REMARK VINA RESULT:      -9.6      5.091      6.686
REMARK  6 active torsions:
REMARK  status: ('A' for Active; 'I' for Inactive)
REMARK    1  A    between atoms: O_2  and  C_3 
REMARK    2  A    between atoms: C_5  and  C_6 
REMARK    3  A    between atoms: C_12  and  C_13 
REMARK       I    between atoms: C_13  and  N_14 
REMARK    4  A    between atoms: N_14  and  C_15 
REMARK    5  A    between atoms: C_15  and  C_16 
REMARK    6  A    between atoms: C_23  and  C_24 
ROOT
HETATM    1  C   UNL     1       7.451  27.121  56.631  1.00  0.00     0.118 C 
HETATM    2  N   UNL     1       7.228  27.338  55.206  1.00  0.00    -0.365 N 
HETATM    3  C   UNL     1       6.721  26.333  54.449  1.00  0.00     0.138 A 
HETATM    4  N   UNL     1       6.770  25.035  54.918  1.00  0.00    -0.240 N 
HETATM    5  N   UNL     1       6.169  24.149  54.113  1.00  0.00    -0.181 NA
HETATM    6  C   UNL     1       5.843  24.878  53.044  1.00  0.00     0.160 A 
HETATM    7  C   UNL     1       6.142  26.256  53.194  1.00  0.00     0.096 A 
HETATM    8  C   UNL     1       7.302  24.641  56.212  1.00  0.00     0.221 C 
HETATM    9  C   UNL     1       8.154  25.772  56.821  1.00  0.00     0.066 C 
HETATM   10  H   UNL     1       7.381  28.285  54.864  1.00  0.00     0.161 HD
ENDROOT
BRANCH   7  11
HETATM   11  C   UNL     1       5.843  27.278  52.207  1.00  0.00     0.257 C 
HETATM   12  N   UNL     1       5.349  26.824  51.007  1.00  0.00    -0.352 N 
HETATM   13  H   UNL     1       5.444  25.839  50.810  1.00  0.00     0.163 HD
HETATM   14  O   UNL     1       6.073  28.464  52.421  1.00  0.00    -0.267 OA
BRANCH  12  15
HETATM   15  C   UNL     1       5.201  27.732  49.897  1.00  0.00     0.161 C 
BRANCH  15  16
HETATM   16  C   UNL     1       4.030  27.353  49.033  1.00  0.00    -0.041 A 
HETATM   17  C   UNL     1       2.811  28.033  49.162  1.00  0.00     0.009 A 
HETATM   18  C   UNL     1       1.721  27.693  48.359  1.00  0.00     0.001 A 
HETATM   19  C   UNL     1       1.837  26.663  47.428  1.00  0.00     0.000 A 
HETATM   20  C   UNL     1       3.038  25.968  47.303  1.00  0.00     0.001 A 
HETATM   21  C   UNL     1       4.131  26.308  48.103  1.00  0.00     0.009 A 
ENDBRANCH  15  16
ENDBRANCH  12  15
ENDBRANCH   7  11
BRANCH   1  22
HETATM   22  C   UNL     1       8.216  28.288  57.222  1.00  0.00    -0.033 A 
HETATM   23  C   UNL     1       7.677  28.985  58.322  1.00  0.00     0.046 A 
HETATM   24  C   UNL     1       8.362  30.060  58.896  1.00  0.00     0.068 A 
HETATM   25  C   UNL     1       9.594  30.443  58.367  1.00  0.00     0.037 A 
HETATM   26  C   UNL     1      10.135  29.776  57.269  1.00  0.00     0.003 A 
HETATM   27  C   UNL     1       9.446  28.709  56.694  1.00  0.00     0.009 A 
BRANCH  24  28
HETATM   28  O   UNL     1       7.941  30.803  59.964  1.00  0.00    -0.356 OA
HETATM   29  C   UNL     1       8.774  30.811  61.116  1.00  0.00     0.210 C 
ENDBRANCH  24  28
ENDBRANCH   1  22
BRANCH   8  30
HETATM   30  C   UNL     1       8.134  23.378  56.123  1.00  0.00     0.409 C 
HETATM   31  F   UNL     1       9.063  23.437  55.143  1.00  0.00    -0.169 F 
HETATM   32  F   UNL     1       8.816  23.204  57.289  1.00  0.00    -0.169 F 
HETATM   33  F   UNL     1       7.403  22.258  55.952  1.00  0.00    -0.169 F 
ENDBRANCH   8  30
TORSDOF 6
ENDMDL
MODEL 5
REMARK VINA RESULT:      -9.6      5.309      9.210
REMARK  6 active torsions:
REMARK  status: ('A' for Active; 'I' for Inactive)
REMARK    1  A    between atoms: O_2  and  C_3 
REMARK    2  A    between atoms: C_5  and  C_6 
REMARK    3  A    between atoms: C_12  and  C_13 
REMARK       I    between atoms: C_13  and  N_14 
REMARK    4  A    between atoms: N_14  and  C_15 
REMARK    5  A    between atoms: C_15  and  C_16 
REMARK    6  A    between atoms: C_23  and  C_24 
ROOT
HETATM    1  C   UNL     1       7.600  24.657  53.676  1.00  0.00     0.118 C 
HETATM    2  N   UNL     1       6.617  24.919  52.631  1.00  0.00    -0.365 N 
HETATM    3  C   UNL     1       6.194  26.190  52.416  1.00  0.00     0.138 A 
HETATM    4  N   UNL     1       6.390  27.148  53.390  1.00  0.00    -0.240 N 
HETATM    5  N   UNL     1       5.998  28.376  53.026  1.00  0.00    -0.181 NA
HETATM    6  C   UNL     1       5.419  28.173  51.841  1.00  0.00     0.160 A 
HETATM    7  C   UNL     1       5.521  26.832  51.390  1.00  0.00     0.096 A 
HETATM    8  C   UNL     1       7.066  26.916  54.656  1.00  0.00     0.221 C 
HETATM    9  C   UNL     1       7.182  25.406  54.946  1.00  0.00     0.066 C 
HETATM   10  H   UNL     1       6.362  24.128  52.041  1.00  0.00     0.161 HD
ENDROOT
BRANCH   7  11
HETATM   11  C   UNL     1       5.027  26.350  50.114  1.00  0.00     0.257 C 
HETATM   12  N   UNL     1       5.311  27.140  49.025  1.00  0.00    -0.352 N 
HETATM   13  H   UNL     1       5.627  28.081  49.206  1.00  0.00     0.163 HD
HETATM   14  O   UNL     1       4.350  25.330  50.031  1.00  0.00    -0.267 OA
BRANCH  12  15
HETATM   15  C   UNL     1       4.706  26.855  47.747  1.00  0.00     0.161 C 
BRANCH  15  16
HETATM   16  C   UNL     1       3.369  27.531  47.613  1.00  0.00    -0.041 A 
HETATM   17  C   UNL     1       3.299  28.908  47.357  1.00  0.00     0.009 A 
HETATM   18  C   UNL     1       2.063  29.541  47.223  1.00  0.00     0.001 A 
HETATM   19  C   UNL     1       0.886  28.807  47.355  1.00  0.00     0.000 A 
HETATM   20  C   UNL     1       0.943  27.442  47.627  1.00  0.00     0.001 A 
HETATM   21  C   UNL     1       2.179  26.805  47.759  1.00  0.00     0.009 A 
ENDBRANCH  15  16
ENDBRANCH  12  15
ENDBRANCH   7  11
BRANCH   1  22
HETATM   22  C   UNL     1       7.757  23.164  53.881  1.00  0.00    -0.033 A 
HETATM   23  C   UNL     1       7.776  22.642  55.189  1.00  0.00     0.046 A 
HETATM   24  C   UNL     1       7.910  21.268  55.412  1.00  0.00     0.068 A 
HETATM   25  C   UNL     1       8.028  20.409  54.319  1.00  0.00     0.037 A 
HETATM   26  C   UNL     1       8.030  20.910  53.019  1.00  0.00     0.003 A 
HETATM   27  C   UNL     1       7.903  22.281  52.800  1.00  0.00     0.009 A 
BRANCH  24  28
HETATM   28  O   UNL     1       7.933  20.650  56.631  1.00  0.00    -0.356 OA
HETATM   29  C   UNL     1       8.359  21.428  57.743  1.00  0.00     0.210 C 
ENDBRANCH  24  28
ENDBRANCH   1  22
BRANCH   8  30
HETATM   30  C   UNL     1       6.359  27.596  55.811  1.00  0.00     0.409 C 
HETATM   31  F   UNL     1       5.014  27.492  55.729  1.00  0.00    -0.169 F 
HETATM   32  F   UNL     1       6.721  26.994  56.978  1.00  0.00    -0.169 F 
HETATM   33  F   UNL     1       6.679  28.898  55.952  1.00  0.00    -0.169 F 
ENDBRANCH   8  30
TORSDOF 6
ENDMDL
MODEL 6
REMARK VINA RESULT:      -9.3      5.049      6.789
REMARK  6 active torsions:
REMARK  status: ('A' for Active; 'I' for Inactive)
REMARK    1  A    between atoms: O_2  and  C_3 
REMARK    2  A    between atoms: C_5  and  C_6 
REMARK    3  A    between atoms: C_12  and  C_13 
REMARK       I    between atoms: C_13  and  N_14 
REMARK    4  A    between atoms: N_14  and  C_15 
REMARK    5  A    between atoms: C_15  and  C_16 
REMARK    6  A    between atoms: C_23  and  C_24 
ROOT
HETATM    1  C   UNL     1       6.261  27.077  56.559  1.00  0.00     0.118 C 
HETATM    2  N   UNL     1       6.131  27.285  55.121  1.00  0.00    -0.365 N 
HETATM    3  C   UNL     1       6.071  26.212  54.293  1.00  0.00     0.138 A 
HETATM    4  N   UNL     1       6.499  24.979  54.743  1.00  0.00    -0.240 N 
HETATM    5  N   UNL     1       6.316  23.990  53.859  1.00  0.00    -0.181 NA
HETATM    6  C   UNL     1       5.882  24.629  52.771  1.00  0.00     0.160 A 
HETATM    7  C   UNL     1       5.687  26.018  52.977  1.00  0.00     0.096 A 
HETATM    8  C   UNL     1       6.991  24.712  56.085  1.00  0.00     0.221 C 
HETATM    9  C   UNL     1       7.348  26.026  56.808  1.00  0.00     0.066 C 
HETATM   10  H   UNL     1       5.995  28.248  54.815  1.00  0.00     0.161 HD
ENDROOT
BRANCH   7  11
HETATM   11  C   UNL     1       5.172  26.937  51.979  1.00  0.00     0.257 C 
HETATM   12  N   UNL     1       5.571  26.700  50.685  1.00  0.00    -0.352 N 
HETATM   13  H   UNL     1       6.350  26.074  50.548  1.00  0.00     0.163 HD
HETATM   14  O   UNL     1       4.470  27.895  52.289  1.00  0.00    -0.267 OA
BRANCH  12  15
HETATM   15  C   UNL     1       5.274  27.659  49.650  1.00  0.00     0.161 C 
BRANCH  15  16
HETATM   16  C   UNL     1       4.039  27.272  48.884  1.00  0.00    -0.041 A 
HETATM   17  C   UNL     1       4.080  26.201  47.979  1.00  0.00     0.009 A 
HETATM   18  C   UNL     1       2.937  25.829  47.270  1.00  0.00     0.001 A 
HETATM   19  C   UNL     1       1.747  26.530  47.450  1.00  0.00     0.000 A 
HETATM   20  C   UNL     1       1.699  27.607  48.333  1.00  0.00     0.001 A 
HETATM   21  C   UNL     1       2.841  27.980  49.046  1.00  0.00     0.009 A 
ENDBRANCH  15  16
ENDBRANCH  12  15
ENDBRANCH   7  11
BRANCH   1  22
HETATM   22  C   UNL     1       6.527  28.396  57.255  1.00  0.00    -0.033 A 
HETATM   23  C   UNL     1       7.720  28.567  57.985  1.00  0.00     0.046 A 
HETATM   24  C   UNL     1       7.999  29.775  58.631  1.00  0.00     0.068 A 
HETATM   25  C   UNL     1       7.079  30.820  58.549  1.00  0.00     0.037 A 
HETATM   26  C   UNL     1       5.885  30.662  57.846  1.00  0.00     0.003 A 
HETATM   27  C   UNL     1       5.607  29.454  57.209  1.00  0.00     0.009 A 
BRANCH  24  28
HETATM   28  O   UNL     1       9.121  30.056  59.359  1.00  0.00    -0.356 OA
HETATM   29  C   UNL     1       8.932  30.631  60.646  1.00  0.00     0.210 C 
ENDBRANCH  24  28
ENDBRANCH   1  22
BRANCH   8  30
HETATM   30  C   UNL     1       8.201  23.800  56.074  1.00  0.00     0.409 C 
HETATM   31  F   UNL     1       7.867  22.495  56.178  1.00  0.00    -0.169 F 
HETATM   32  F   UNL     1       8.857  23.936  54.887  1.00  0.00    -0.169 F 
HETATM   33  F   UNL     1       9.106  24.087  57.031  1.00  0.00    -0.169 F 
ENDBRANCH   8  30
TORSDOF 6
ENDMDL
MODEL 7
REMARK VINA RESULT:      -9.3      4.816      8.844
REMARK  6 active torsions:
REMARK  status: ('A' for Active; 'I' for Inactive)
REMARK    1  A    between atoms: O_2  and  C_3 
REMARK    2  A    between atoms: C_5  and  C_6 
REMARK    3  A    between atoms: C_12  and  C_13 
REMARK       I    between atoms: C_13  and  N_14 
REMARK    4  A    between atoms: N_14  and  C_15 
REMARK    5  A    between atoms: C_15  and  C_16 
REMARK    6  A    between atoms: C_23  and  C_24 
ROOT
HETATM    1  C   UNL     1       8.033  24.701  55.239  1.00  0.00     0.118 C 
HETATM    2  N   UNL     1       7.002  24.857  54.219  1.00  0.00    -0.365 N 
HETATM    3  C   UNL     1       6.586  26.101  53.873  1.00  0.00     0.138 A 
HETATM    4  N   UNL     1       6.844  27.164  54.715  1.00  0.00    -0.240 N 
HETATM    5  N   UNL     1       6.451  28.347  54.225  1.00  0.00    -0.181 NA
HETATM    6  C   UNL     1       5.810  28.016  53.102  1.00  0.00     0.160 A 
HETATM    7  C   UNL     1       5.872  26.630  52.811  1.00  0.00     0.096 A 
HETATM    8  C   UNL     1       7.579  27.071  55.966  1.00  0.00     0.221 C 
HETATM    9  C   UNL     1       7.688  25.605  56.428  1.00  0.00     0.066 C 
HETATM   10  H   UNL     1       6.708  24.006  53.740  1.00  0.00     0.161 HD
ENDROOT
BRANCH   7  11
HETATM   11  C   UNL     1       5.308  26.009  51.626  1.00  0.00     0.257 C 
HETATM   12  N   UNL     1       5.399  26.741  50.466  1.00  0.00    -0.352 N 
HETATM   13  H   UNL     1       5.629  27.720  50.554  1.00  0.00     0.163 HD
HETATM   14  O   UNL     1       4.739  24.923  51.679  1.00  0.00    -0.267 OA
BRANCH  12  15
HETATM   15  C   UNL     1       4.704  26.305  49.280  1.00  0.00     0.161 C 
BRANCH  15  16
HETATM   16  C   UNL     1       4.243  27.475  48.456  1.00  0.00    -0.041 A 
HETATM   17  C   UNL     1       2.886  27.621  48.137  1.00  0.00     0.009 A 
HETATM   18  C   UNL     1       2.448  28.708  47.380  1.00  0.00     0.001 A 
HETATM   19  C   UNL     1       3.364  29.653  46.925  1.00  0.00     0.000 A 
HETATM   20  C   UNL     1       4.718  29.510  47.220  1.00  0.00     0.001 A 
HETATM   21  C   UNL     1       5.159  28.425  47.980  1.00  0.00     0.009 A 
ENDBRANCH  15  16
ENDBRANCH  12  15
ENDBRANCH   7  11
BRANCH   1  22
HETATM   22  C   UNL     1       8.179  23.241  55.614  1.00  0.00    -0.033 A 
HETATM   23  C   UNL     1       8.252  22.268  54.597  1.00  0.00     0.046 A 
HETATM   24  C   UNL     1       8.397  20.914  54.909  1.00  0.00     0.068 A 
HETATM   25  C   UNL     1       8.468  20.526  56.247  1.00  0.00     0.037 A 
HETATM   26  C   UNL     1       8.381  21.473  57.266  1.00  0.00     0.003 A 
HETATM   27  C   UNL     1       8.229  22.823  56.952  1.00  0.00     0.009 A 
BRANCH  24  28
HETATM   28  O   UNL     1       8.485  19.887  54.010  1.00  0.00    -0.356 OA
HETATM   29  C   UNL     1       8.453  20.229  52.630  1.00  0.00     0.210 C 
ENDBRANCH  24  28
ENDBRANCH   1  22
BRANCH   8  30
HETATM   30  C   UNL     1       6.939  27.898  57.063  1.00  0.00     0.409 C 
HETATM   31  F   UNL     1       5.604  27.705  57.146  1.00  0.00    -0.169 F 
HETATM   32  F   UNL     1       7.457  27.526  58.267  1.00  0.00    -0.169 F 
HETATM   33  F   UNL     1       7.173  29.221  56.953  1.00  0.00    -0.169 F 
ENDBRANCH   8  30
TORSDOF 6
ENDMDL
MODEL 8
REMARK VINA RESULT:      -9.0      2.955      4.801
REMARK  6 active torsions:
REMARK  status: ('A' for Active; 'I' for Inactive)
REMARK    1  A    between atoms: O_2  and  C_3 
REMARK    2  A    between atoms: C_5  and  C_6 
REMARK    3  A    between atoms: C_12  and  C_13 
REMARK       I    between atoms: C_13  and  N_14 
REMARK    4  A    between atoms: N_14  and  C_15 
REMARK    5  A    between atoms: C_15  and  C_16 
REMARK    6  A    between atoms: C_23  and  C_24 
ROOT
HETATM    1  C   UNL     1       5.066  30.294  57.066  1.00  0.00     0.118 C 
HETATM    2  N   UNL     1       5.554  29.269  56.150  1.00  0.00    -0.365 N 
HETATM    3  C   UNL     1       6.561  28.449  56.541  1.00  0.00     0.138 A 
HETATM    4  N   UNL     1       7.358  28.809  57.610  1.00  0.00    -0.240 N 
HETATM    5  N   UNL     1       8.265  27.881  57.943  1.00  0.00    -0.181 NA
HETATM    6  C   UNL     1       8.131  26.965  56.982  1.00  0.00     0.160 A 
HETATM    7  C   UNL     1       7.072  27.246  56.082  1.00  0.00     0.096 A 
HETATM    8  C   UNL     1       7.182  30.013  58.405  1.00  0.00     0.221 C 
HETATM    9  C   UNL     1       6.268  31.020  57.679  1.00  0.00     0.066 C 
HETATM   10  H   UNL     1       5.037  29.158  55.279  1.00  0.00     0.161 HD
ENDROOT
BRANCH   7  11
HETATM   11  C   UNL     1       6.674  26.389  54.981  1.00  0.00     0.257 C 
HETATM   12  N   UNL     1       7.343  25.192  54.883  1.00  0.00    -0.352 N 
HETATM   13  H   UNL     1       8.192  25.091  55.418  1.00  0.00     0.163 HD
HETATM   14  O   UNL     1       5.833  26.745  54.161  1.00  0.00    -0.267 OA
BRANCH  12  15
HETATM   15  C   UNL     1       7.162  24.356  53.722  1.00  0.00     0.161 C 
BRANCH  15  16
HETATM   16  C   UNL     1       7.529  22.927  54.015  1.00  0.00    -0.041 A 
HETATM   17  C   UNL     1       7.556  22.465  55.339  1.00  0.00     0.009 A 
HETATM   18  C   UNL     1       7.887  21.139  55.620  1.00  0.00     0.001 A 
HETATM   19  C   UNL     1       8.204  20.265  54.582  1.00  0.00     0.000 A 
HETATM   20  C   UNL     1       8.196  20.717  53.264  1.00  0.00     0.001 A 
HETATM   21  C   UNL     1       7.863  22.044  52.980  1.00  0.00     0.009 A 
ENDBRANCH  15  16
ENDBRANCH  12  15
ENDBRANCH   7  11
BRANCH   1  22
HETATM   22  C   UNL     1       4.104  31.218  56.349  1.00  0.00    -0.033 A 
HETATM   23  C   UNL     1       3.625  32.368  57.008  1.00  0.00     0.046 A 
HETATM   24  C   UNL     1       2.744  33.246  56.371  1.00  0.00     0.068 A 
HETATM   25  C   UNL     1       2.336  32.974  55.065  1.00  0.00     0.037 A 
HETATM   26  C   UNL     1       2.786  31.832  54.404  1.00  0.00     0.003 A 
HETATM   27  C   UNL     1       3.659  30.955  55.045  1.00  0.00     0.009 A 
BRANCH  24  28
HETATM   28  O   UNL     1       2.221  34.390  56.907  1.00  0.00    -0.356 OA
HETATM   29  C   UNL     1       2.699  34.782  58.188  1.00  0.00     0.210 C 
ENDBRANCH  24  28
ENDBRANCH   1  22
BRANCH   8  30
HETATM   30  C   UNL     1       8.505  30.678  58.728  1.00  0.00     0.409 C 
HETATM   31  F   UNL     1       8.371  31.995  58.997  1.00  0.00    -0.169 F 
HETATM   32  F   UNL     1       9.034  30.108  59.847  1.00  0.00    -0.169 F 
HETATM   33  F   UNL     1       9.436  30.531  57.764  1.00  0.00    -0.169 F 
ENDBRANCH   8  30
TORSDOF 6
ENDMDL
MODEL 9
REMARK VINA RESULT:      -8.9      4.585      9.051
REMARK  6 active torsions:
REMARK  status: ('A' for Active; 'I' for Inactive)
REMARK    1  A    between atoms: O_2  and  C_3 
REMARK    2  A    between atoms: C_5  and  C_6 
REMARK    3  A    between atoms: C_12  and  C_13 
REMARK       I    between atoms: C_13  and  N_14 
REMARK    4  A    between atoms: N_14  and  C_15 
REMARK    5  A    between atoms: C_15  and  C_16 
REMARK    6  A    between atoms: C_23  and  C_24 
ROOT
HETATM    1  C   UNL     1       7.071  25.897  52.770  1.00  0.00     0.118 C 
HETATM    2  N   UNL     1       6.737  26.336  54.120  1.00  0.00    -0.365 N 
HETATM    3  C   UNL     1       7.377  25.783  55.180  1.00  0.00     0.138 A 
HETATM    4  N   UNL     1       8.042  24.583  55.025  1.00  0.00    -0.240 N 
HETATM    5  N   UNL     1       8.696  24.182  56.123  1.00  0.00    -0.181 NA
HETATM    6  C   UNL     1       8.333  25.081  57.040  1.00  0.00     0.160 A 
HETATM    7  C   UNL     1       7.524  26.121  56.515  1.00  0.00     0.096 A 
HETATM    8  C   UNL     1       8.152  23.853  53.772  1.00  0.00     0.221 C 
HETATM    9  C   UNL     1       7.119  24.365  52.748  1.00  0.00     0.066 C 
HETATM   10  H   UNL     1       6.091  27.121  54.193  1.00  0.00     0.161 HD
ENDROOT
BRANCH   7  11
HETATM   11  C   UNL     1       7.036  27.254  57.280  1.00  0.00     0.257 C 
HETATM   12  N   UNL     1       5.778  27.701  56.950  1.00  0.00    -0.352 N 
HETATM   13  H   UNL     1       5.387  27.378  56.078  1.00  0.00     0.163 HD
HETATM   14  O   UNL     1       7.732  27.805  58.127  1.00  0.00    -0.267 OA
BRANCH  12  15
HETATM   15  C   UNL     1       5.278  28.931  57.511  1.00  0.00     0.161 C 
BRANCH  15  16
HETATM   16  C   UNL     1       4.485  29.711  56.499  1.00  0.00    -0.041 A 
HETATM   17  C   UNL     1       4.652  29.459  55.129  1.00  0.00     0.009 A 
HETATM   18  C   UNL     1       3.914  30.172  54.183  1.00  0.00     0.001 A 
HETATM   19  C   UNL     1       3.012  31.150  54.596  1.00  0.00     0.000 A 
HETATM   20  C   UNL     1       2.850  31.420  55.954  1.00  0.00     0.001 A 
HETATM   21  C   UNL     1       3.585  30.707  56.903  1.00  0.00     0.009 A 
ENDBRANCH  15  16
ENDBRANCH  12  15
ENDBRANCH   7  11
BRANCH   1  22
HETATM   22  C   UNL     1       6.092  26.483  51.774  1.00  0.00    -0.033 A 
HETATM   23  C   UNL     1       5.851  27.872  51.773  1.00  0.00     0.046 A 
HETATM   24  C   UNL     1       4.961  28.445  50.861  1.00  0.00     0.068 A 
HETATM   25  C   UNL     1       4.304  27.626  49.943  1.00  0.00     0.037 A 
HETATM   26  C   UNL     1       4.516  26.249  49.941  1.00  0.00     0.003 A 
HETATM   27  C   UNL     1       5.399  25.678  50.857  1.00  0.00     0.009 A 
BRANCH  24  28
HETATM   28  O   UNL     1       4.656  29.774  50.763  1.00  0.00    -0.356 OA
HETATM   29  C   UNL     1       5.660  30.633  50.237  1.00  0.00     0.210 C 
ENDBRANCH  24  28
ENDBRANCH   1  22
BRANCH   8  30
HETATM   30  C   UNL     1       7.969  22.361  53.967  1.00  0.00     0.409 C 
HETATM   31  F   UNL     1       7.129  22.070  54.984  1.00  0.00    -0.169 F 
HETATM   32  F   UNL     1       7.414  21.825  52.844  1.00  0.00    -0.169 F 
HETATM   33  F   UNL     1       9.124  21.694  54.162  1.00  0.00    -0.169 F 
ENDBRANCH   8  30
TORSDOF 6
ENDMDL
MODEL 10
REMARK VINA RESULT:      -8.7      4.271      8.539
REMARK  6 active torsions:
REMARK  status: ('A' for Active; 'I' for Inactive)
REMARK    1  A    between atoms: O_2  and  C_3 
REMARK    2  A    between atoms: C_5  and  C_6 
REMARK    3  A    between atoms: C_12  and  C_13 
REMARK       I    between atoms: C_13  and  N_14 
REMARK    4  A    between atoms: N_14  and  C_15 
REMARK    5  A    between atoms: C_15  and  C_16 
REMARK    6  A    between atoms: C_23  and  C_24 
ROOT
HETATM    1  C   UNL     1       5.080  26.054  52.130  1.00  0.00     0.118 C 
HETATM    2  N   UNL     1       5.030  27.386  52.722  1.00  0.00    -0.365 N 
HETATM    3  C   UNL     1       4.317  28.364  52.109  1.00  0.00     0.138 A 
HETATM    4  N   UNL     1       3.966  28.221  50.782  1.00  0.00    -0.240 N 
HETATM    5  N   UNL     1       3.200  29.217  50.317  1.00  0.00    -0.181 NA
HETATM    6  C   UNL     1       3.171  30.081  51.334  1.00  0.00     0.160 A 
HETATM    7  C   UNL     1       3.833  29.604  52.493  1.00  0.00     0.096 A 
HETATM    8  C   UNL     1       4.270  27.058  49.965  1.00  0.00     0.221 C 
HETATM    9  C   UNL     1       5.359  26.193  50.629  1.00  0.00     0.066 C 
HETATM   10  H   UNL     1       5.468  27.491  53.637  1.00  0.00     0.161 HD
ENDROOT
BRANCH   7  11
HETATM   11  C   UNL     1       3.906  30.316  53.755  1.00  0.00     0.257 C 
HETATM   12  N   UNL     1       5.119  30.267  54.401  1.00  0.00    -0.352 N 
HETATM   13  H   UNL     1       5.782  29.574  54.087  1.00  0.00     0.163 HD
HETATM   14  O   UNL     1       2.925  30.877  54.234  1.00  0.00    -0.267 OA
BRANCH  12  15
HETATM   15  C   UNL     1       5.244  30.775  55.745  1.00  0.00     0.161 C 
BRANCH  15  16
HETATM   16  C   UNL     1       6.198  29.943  56.557  1.00  0.00    -0.041 A 
HETATM   17  C   UNL     1       6.820  30.489  57.688  1.00  0.00     0.009 A 
HETATM   18  C   UNL     1       7.700  29.722  58.453  1.00  0.00     0.001 A 
HETATM   19  C   UNL     1       7.975  28.406  58.086  1.00  0.00     0.000 A 
HETATM   20  C   UNL     1       7.376  27.858  56.954  1.00  0.00     0.001 A 
HETATM   21  C   UNL     1       6.492  28.623  56.189  1.00  0.00     0.009 A 
ENDBRANCH  15  16
ENDBRANCH  12  15
ENDBRANCH   7  11
BRANCH   1  22
HETATM   22  C   UNL     1       6.096  25.198  52.856  1.00  0.00    -0.033 A 
HETATM   23  C   UNL     1       6.067  25.130  54.264  1.00  0.00     0.046 A 
HETATM   24  C   UNL     1       6.985  24.342  54.963  1.00  0.00     0.068 A 
HETATM   25  C   UNL     1       7.941  23.617  54.253  1.00  0.00     0.037 A 
HETATM   26  C   UNL     1       7.996  23.685  52.862  1.00  0.00     0.003 A 
HETATM   27  C   UNL     1       7.083  24.478  52.167  1.00  0.00     0.009 A 
BRANCH  24  28
HETATM   28  O   UNL     1       7.048  24.196  56.321  1.00  0.00    -0.356 OA
HETATM   29  C   UNL     1       8.133  23.439  56.842  1.00  0.00     0.210 C 
ENDBRANCH  24  28
ENDBRANCH   1  22
BRANCH   8  30
HETATM   30  C   UNL     1       4.718  27.446  48.570  1.00  0.00     0.409 C 
HETATM   31  F   UNL     1       3.730  28.018  47.848  1.00  0.00    -0.169 F 
HETATM   32  F   UNL     1       5.716  28.370  48.658  1.00  0.00    -0.169 F 
HETATM   33  F   UNL     1       5.228  26.419  47.859  1.00  0.00    -0.169 F 
ENDBRANCH   8  30
TORSDOF 6
ENDMDL
