MODEL 1
REMARK VINA RESULT:      -9.8      0.000      0.000
REMARK  6 active torsions:
REMARK  status: ('A' for Active; 'I' for Inactive)
REMARK    1  A    between atoms: O_2  and  C_3 
REMARK    2  A    between atoms: C_3  and  C_4 
REMARK    3  A    between atoms: C_7  and  C_8 
REMARK    4  A    between atoms: C_8  and  O_9 
REMARK    5  A    between atoms: O_9  and  C_10 
REMARK    6  A    between atoms: C_13  and  C_14 
ROOT
HETATM    1  C   UNL     1       8.963  30.028  58.479  1.00  0.00     0.069 A 
HETATM    2  C   UNL     1       7.608  29.699  58.477  1.00  0.00     0.037 A 
HETATM    3  C   UNL     1       7.030  29.085  57.363  1.00  0.00     0.014 A 
HETATM    4  C   UNL     1       7.807  28.811  56.234  1.00  0.00    -0.035 A 
HETATM    5  C   UNL     1       9.151  29.197  56.213  1.00  0.00     0.014 A 
HETATM    6  C   UNL     1       9.727  29.813  57.330  1.00  0.00     0.037 A 
ENDROOT
BRANCH   1   7
HETATM    7  O   UNL     1       9.437  30.558  59.649  1.00  0.00    -0.347 OA
BRANCH   7   8
HETATM    8  C   UNL     1       9.289  31.974  59.785  1.00  0.00     0.214 C 
BRANCH   8   9
HETATM    9  C   UNL     1       8.368  32.279  60.947  1.00  0.00    -0.034 A 
HETATM   10  C   UNL     1       8.813  32.095  62.264  1.00  0.00     0.010 A 
HETATM   11  C   UNL     1       7.979  32.388  63.346  1.00  0.00     0.018 A 
HETATM   12  C   UNL     1       6.686  32.878  63.130  1.00  0.00     0.039 A 
HETATM   13  C   UNL     1       6.236  33.071  61.818  1.00  0.00     0.018 A 
HETATM   14  C   UNL     1       7.074  32.778  60.736  1.00  0.00     0.010 A 
BRANCH  12  15
HETATM   15  C   UNL     1       5.843  33.172  64.323  1.00  0.00     0.292 C 
HETATM   16  O   UNL     1       4.752  32.661  64.519  1.00  0.00    -0.259 OA
BRANCH  15  17
HETATM   17  O   UNL     1       6.460  34.061  65.141  1.00  0.00    -0.323 OA
HETATM   18  C   UNL     1       5.841  34.190  66.422  1.00  0.00     0.213 C 
ENDBRANCH  15  17
ENDBRANCH  12  15
ENDBRANCH   8   9
ENDBRANCH   7   8
ENDBRANCH   1   7
BRANCH   4  19
HETATM   19  C   UNL     1       7.234  28.079  55.108  1.00  0.00     0.029 C 
HETATM   20  C   UNL     1       7.206  26.748  54.952  1.00  0.00     0.045 A 
HETATM   21  C   UNL     1       6.591  26.155  53.709  1.00  0.00     0.257 A 
HETATM   22  C   UNL     1       7.681  25.634  55.774  1.00  0.00     0.006 A 
HETATM   23  O   UNL     1       6.078  26.748  52.779  1.00  0.00    -0.267 OA
HETATM   24  N   UNL     1       6.737  24.787  53.856  1.00  0.00    -0.322 N 
HETATM   25  C   UNL     1       7.371  24.472  55.056  1.00  0.00     0.046 A 
HETATM   26  H   UNL     1       6.414  24.126  53.166  1.00  0.00     0.169 HD
HETATM   27  C   UNL     1       7.669  23.206  55.517  1.00  0.00     0.030 A 
HETATM   28  C   UNL     1       8.303  23.110  56.756  1.00  0.00     0.002 A 
HETATM   29  C   UNL     1       8.620  24.267  57.492  1.00  0.00     0.001 A 
HETATM   30  C   UNL     1       8.309  25.543  57.003  1.00  0.00     0.015 A 
ENDBRANCH   4  19
TORSDOF 6
ENDMDL
MODEL 2
REMARK VINA RESULT:      -9.7      7.457     11.958
REMARK  6 active torsions:
REMARK  status: ('A' for Active; 'I' for Inactive)
REMARK    1  A    between atoms: O_2  and  C_3 
REMARK    2  A    between atoms: C_3  and  C_4 
REMARK    3  A    between atoms: C_7  and  C_8 
REMARK    4  A    between atoms: C_8  and  O_9 
REMARK    5  A    between atoms: O_9  and  C_10 
REMARK    6  A    between atoms: C_13  and  C_14 
ROOT
HETATM    1  C   UNL     1       5.248  25.772  51.267  1.00  0.00     0.069 A 
HETATM    2  C   UNL     1       6.457  26.375  51.614  1.00  0.00     0.037 A 
HETATM    3  C   UNL     1       7.023  26.152  52.872  1.00  0.00     0.014 A 
HETATM    4  C   UNL     1       6.370  25.333  53.797  1.00  0.00    -0.035 A 
HETATM    5  C   UNL     1       5.128  24.778  53.470  1.00  0.00     0.014 A 
HETATM    6  C   UNL     1       4.563  25.004  52.211  1.00  0.00     0.037 A 
ENDROOT
BRANCH   1   7
HETATM    7  O   UNL     1       4.825  26.001  49.985  1.00  0.00    -0.347 OA
BRANCH   7   8
HETATM    8  C   UNL     1       4.448  27.351  49.697  1.00  0.00     0.214 C 
BRANCH   8   9
HETATM    9  C   UNL     1       3.275  27.358  48.740  1.00  0.00    -0.034 A 
HETATM   10  C   UNL     1       2.309  28.371  48.820  1.00  0.00     0.010 A 
HETATM   11  C   UNL     1       1.230  28.399  47.933  1.00  0.00     0.018 A 
HETATM   12  C   UNL     1       1.102  27.418  46.944  1.00  0.00     0.039 A 
HETATM   13  C   UNL     1       2.066  26.406  46.853  1.00  0.00     0.018 A 
HETATM   14  C   UNL     1       3.146  26.380  47.742  1.00  0.00     0.010 A 
BRANCH  12  15
HETATM   15  C   UNL     1      -0.069  27.499  46.027  1.00  0.00     0.292 C 
HETATM   16  O   UNL     1      -0.208  26.786  45.046  1.00  0.00    -0.259 OA
BRANCH  15  17
HETATM   17  O   UNL     1      -0.940  28.453  46.442  1.00  0.00    -0.323 OA
HETATM   18  C   UNL     1      -1.381  29.324  45.399  1.00  0.00     0.213 C 
ENDBRANCH  15  17
ENDBRANCH  12  15
ENDBRANCH   8   9
ENDBRANCH   7   8
ENDBRANCH   1   7
BRANCH   4  19
HETATM   19  C   UNL     1       7.005  25.014  55.073  1.00  0.00     0.029 C 
HETATM   20  C   UNL     1       7.615  23.866  55.397  1.00  0.00     0.045 A 
HETATM   21  C   UNL     1       8.202  23.695  56.775  1.00  0.00     0.257 A 
HETATM   22  C   UNL     1       7.862  22.622  54.664  1.00  0.00     0.006 A 
HETATM   23  O   UNL     1       8.210  24.503  57.685  1.00  0.00    -0.267 OA
HETATM   24  N   UNL     1       8.732  22.416  56.783  1.00  0.00    -0.322 N 
HETATM   25  C   UNL     1       8.540  21.783  55.557  1.00  0.00     0.046 A 
HETATM   26  H   UNL     1       9.195  22.022  57.587  1.00  0.00     0.169 HD
HETATM   27  C   UNL     1       8.947  20.507  55.222  1.00  0.00     0.030 A 
HETATM   28  C   UNL     1       8.660  20.064  53.931  1.00  0.00     0.002 A 
HETATM   29  C   UNL     1       7.982  20.895  53.019  1.00  0.00     0.001 A 
HETATM   30  C   UNL     1       7.577  22.186  53.383  1.00  0.00     0.015 A 
ENDBRANCH   4  19
TORSDOF 6
ENDMDL
MODEL 3
REMARK VINA RESULT:      -9.6      1.398      2.401
REMARK  6 active torsions:
REMARK  status: ('A' for Active; 'I' for Inactive)
REMARK    1  A    between atoms: O_2  and  C_3 
REMARK    2  A    between atoms: C_3  and  C_4 
REMARK    3  A    between atoms: C_7  and  C_8 
REMARK    4  A    between atoms: C_8  and  O_9 
REMARK    5  A    between atoms: O_9  and  C_10 
REMARK    6  A    between atoms: C_13  and  C_14 
ROOT
HETATM    1  C   UNL     1       8.557  30.473  58.093  1.00  0.00     0.069 A 
HETATM    2  C   UNL     1       7.405  29.736  58.368  1.00  0.00     0.037 A 
HETATM    3  C   UNL     1       7.319  28.393  57.991  1.00  0.00     0.014 A 
HETATM    4  C   UNL     1       8.383  27.785  57.321  1.00  0.00    -0.035 A 
HETATM    5  C   UNL     1       9.512  28.542  56.992  1.00  0.00     0.014 A 
HETATM    6  C   UNL     1       9.596  29.886  57.368  1.00  0.00     0.037 A 
ENDROOT
BRANCH   1   7
HETATM    7  O   UNL     1       8.561  31.756  58.571  1.00  0.00    -0.347 OA
BRANCH   7   8
HETATM    8  C   UNL     1       9.330  31.965  59.760  1.00  0.00     0.214 C 
BRANCH   8   9
HETATM    9  C   UNL     1       8.405  32.280  60.915  1.00  0.00    -0.034 A 
HETATM   10  C   UNL     1       8.831  32.068  62.234  1.00  0.00     0.010 A 
HETATM   11  C   UNL     1       7.993  32.370  63.311  1.00  0.00     0.018 A 
HETATM   12  C   UNL     1       6.717  32.897  63.088  1.00  0.00     0.039 A 
HETATM   13  C   UNL     1       6.286  33.119  61.774  1.00  0.00     0.018 A 
HETATM   14  C   UNL     1       7.127  32.816  60.697  1.00  0.00     0.010 A 
BRANCH  12  15
HETATM   15  C   UNL     1       5.869  33.200  64.275  1.00  0.00     0.292 C 
HETATM   16  O   UNL     1       4.810  32.638  64.508  1.00  0.00    -0.259 OA
BRANCH  15  17
HETATM   17  O   UNL     1       6.441  34.159  65.044  1.00  0.00    -0.323 OA
HETATM   18  C   UNL     1       6.008  34.142  66.405  1.00  0.00     0.213 C 
ENDBRANCH  15  17
ENDBRANCH  12  15
ENDBRANCH   8   9
ENDBRANCH   7   8
ENDBRANCH   1   7
BRANCH   4  19
HETATM   19  C   UNL     1       8.340  26.357  57.017  1.00  0.00     0.029 C 
HETATM   20  C   UNL     1       7.588  25.762  56.080  1.00  0.00     0.045 A 
HETATM   21  C   UNL     1       7.650  24.265  55.913  1.00  0.00     0.257 A 
HETATM   22  C   UNL     1       6.628  26.269  55.098  1.00  0.00     0.006 A 
HETATM   23  O   UNL     1       8.333  23.476  56.537  1.00  0.00    -0.267 OA
HETATM   24  N   UNL     1       6.758  23.982  54.893  1.00  0.00    -0.322 N 
HETATM   25  C   UNL     1       6.158  25.143  54.410  1.00  0.00     0.046 A 
HETATM   26  H   UNL     1       6.588  23.046  54.561  1.00  0.00     0.169 HD
HETATM   27  C   UNL     1       5.226  25.221  53.395  1.00  0.00     0.030 A 
HETATM   28  C   UNL     1       4.754  26.490  53.058  1.00  0.00     0.002 A 
HETATM   29  C   UNL     1       5.217  27.633  53.737  1.00  0.00     0.001 A 
HETATM   30  C   UNL     1       6.162  27.529  54.766  1.00  0.00     0.015 A 
ENDBRANCH   4  19
TORSDOF 6
ENDMDL
MODEL 4
REMARK VINA RESULT:      -9.2      2.061      3.177
REMARK  6 active torsions:
REMARK  status: ('A' for Active; 'I' for Inactive)
REMARK    1  A    between atoms: O_2  and  C_3 
REMARK    2  A    between atoms: C_3  and  C_4 
REMARK    3  A    between atoms: C_7  and  C_8 
REMARK    4  A    between atoms: C_8  and  O_9 
REMARK    5  A    between atoms: O_9  and  C_10 
REMARK    6  A    between atoms: C_13  and  C_14 
ROOT
HETATM    1  C   UNL     1       6.905  28.857  57.483  1.00  0.00     0.069 A 
HETATM    2  C   UNL     1       8.202  28.350  57.568  1.00  0.00     0.037 A 
HETATM    3  C   UNL     1       8.431  26.974  57.474  1.00  0.00     0.014 A 
HETATM    4  C   UNL     1       7.357  26.096  57.310  1.00  0.00    -0.035 A 
HETATM    5  C   UNL     1       6.052  26.601  57.286  1.00  0.00     0.014 A 
HETATM    6  C   UNL     1       5.826  27.978  57.382  1.00  0.00     0.037 A 
ENDROOT
BRANCH   1   7
HETATM    7  O   UNL     1       6.806  30.222  57.513  1.00  0.00    -0.347 OA
BRANCH   7   8
HETATM    8  C   UNL     1       7.945  30.908  58.043  1.00  0.00     0.214 C 
BRANCH   8   9
HETATM    9  C   UNL     1       7.652  31.364  59.456  1.00  0.00    -0.034 A 
HETATM   10  C   UNL     1       8.449  30.916  60.519  1.00  0.00     0.010 A 
HETATM   11  C   UNL     1       8.200  31.343  61.825  1.00  0.00     0.018 A 
HETATM   12  C   UNL     1       7.154  32.232  62.092  1.00  0.00     0.039 A 
HETATM   13  C   UNL     1       6.358  32.691  61.035  1.00  0.00     0.018 A 
HETATM   14  C   UNL     1       6.609  32.262  59.727  1.00  0.00     0.010 A 
BRANCH  12  15
HETATM   15  C   UNL     1       6.937  32.651  63.505  1.00  0.00     0.292 C 
HETATM   16  O   UNL     1       7.844  32.934  64.271  1.00  0.00    -0.259 OA
BRANCH  15  17
HETATM   17  O   UNL     1       5.613  32.681  63.800  1.00  0.00    -0.323 OA
HETATM   18  C   UNL     1       5.296  33.475  64.945  1.00  0.00     0.213 C 
ENDBRANCH  15  17
ENDBRANCH  12  15
ENDBRANCH   8   9
ENDBRANCH   7   8
ENDBRANCH   1   7
BRANCH   4  19
HETATM   19  C   UNL     1       7.597  24.670  57.109  1.00  0.00     0.029 C 
HETATM   20  C   UNL     1       7.715  24.037  55.933  1.00  0.00     0.045 A 
HETATM   21  C   UNL     1       7.942  22.547  55.907  1.00  0.00     0.257 A 
HETATM   22  C   UNL     1       7.663  24.493  54.543  1.00  0.00     0.006 A 
HETATM   23  O   UNL     1       8.050  21.795  56.857  1.00  0.00    -0.267 OA
HETATM   24  N   UNL     1       8.001  22.218  54.564  1.00  0.00    -0.322 N 
HETATM   25  C   UNL     1       7.841  23.344  53.760  1.00  0.00     0.046 A 
HETATM   26  H   UNL     1       8.146  21.275  54.239  1.00  0.00     0.169 HD
HETATM   27  C   UNL     1       7.851  23.374  52.381  1.00  0.00     0.030 A 
HETATM   28  C   UNL     1       7.679  24.615  51.767  1.00  0.00     0.002 A 
HETATM   29  C   UNL     1       7.502  25.780  52.538  1.00  0.00     0.001 A 
HETATM   30  C   UNL     1       7.494  25.725  53.938  1.00  0.00     0.015 A 
ENDBRANCH   4  19
TORSDOF 6
ENDMDL
MODEL 5
REMARK VINA RESULT:      -9.1      3.141     10.318
REMARK  6 active torsions:
REMARK  status: ('A' for Active; 'I' for Inactive)
REMARK    1  A    between atoms: O_2  and  C_3 
REMARK    2  A    between atoms: C_3  and  C_4 
REMARK    3  A    between atoms: C_7  and  C_8 
REMARK    4  A    between atoms: C_8  and  O_9 
REMARK    5  A    between atoms: O_9  and  C_10 
REMARK    6  A    between atoms: C_13  and  C_14 
ROOT
HETATM    1  C   UNL     1       8.045  28.526  55.479  1.00  0.00     0.069 A 
HETATM    2  C   UNL     1       9.156  29.309  55.793  1.00  0.00     0.037 A 
HETATM    3  C   UNL     1       9.308  29.838  57.077  1.00  0.00     0.014 A 
HETATM    4  C   UNL     1       8.338  29.596  58.053  1.00  0.00    -0.035 A 
HETATM    5  C   UNL     1       7.195  28.861  57.720  1.00  0.00     0.014 A 
HETATM    6  C   UNL     1       7.043  28.335  56.433  1.00  0.00     0.037 A 
ENDROOT
BRANCH   1   7
HETATM    7  O   UNL     1       8.035  28.000  54.215  1.00  0.00    -0.347 OA
BRANCH   7   8
HETATM    8  C   UNL     1       6.883  27.219  53.884  1.00  0.00     0.214 C 
BRANCH   8   9
HETATM    9  C   UNL     1       7.264  25.756  53.812  1.00  0.00    -0.034 A 
HETATM   10  C   UNL     1       7.185  24.952  54.959  1.00  0.00     0.010 A 
HETATM   11  C   UNL     1       7.518  23.597  54.902  1.00  0.00     0.018 A 
HETATM   12  C   UNL     1       7.929  23.018  53.697  1.00  0.00     0.039 A 
HETATM   13  C   UNL     1       8.004  23.813  52.546  1.00  0.00     0.018 A 
HETATM   14  C   UNL     1       7.670  25.170  52.604  1.00  0.00     0.010 A 
BRANCH  12  15
HETATM   15  C   UNL     1       8.271  21.568  53.699  1.00  0.00     0.292 C 
HETATM   16  O   UNL     1       7.921  20.792  52.824  1.00  0.00    -0.259 OA
BRANCH  15  17
HETATM   17  O   UNL     1       9.021  21.252  54.784  1.00  0.00    -0.323 OA
HETATM   18  C   UNL     1       8.436  20.248  55.616  1.00  0.00     0.213 C 
ENDBRANCH  15  17
ENDBRANCH  12  15
ENDBRANCH   8   9
ENDBRANCH   7   8
ENDBRANCH   1   7
BRANCH   4  19
HETATM   19  C   UNL     1       8.542  30.059  59.423  1.00  0.00     0.029 C 
HETATM   20  C   UNL     1       7.841  31.008  60.058  1.00  0.00     0.045 A 
HETATM   21  C   UNL     1       8.201  31.380  61.474  1.00  0.00     0.257 A 
HETATM   22  C   UNL     1       6.709  31.849  59.663  1.00  0.00     0.006 A 
HETATM   23  O   UNL     1       9.083  30.907  62.165  1.00  0.00    -0.267 OA
HETATM   24  N   UNL     1       7.309  32.381  61.818  1.00  0.00    -0.322 N 
HETATM   25  C   UNL     1       6.435  32.661  60.771  1.00  0.00     0.046 A 
HETATM   26  H   UNL     1       7.314  32.830  62.721  1.00  0.00     0.169 HD
HETATM   27  C   UNL     1       5.422  33.598  60.779  1.00  0.00     0.030 A 
HETATM   28  C   UNL     1       4.652  33.716  59.620  1.00  0.00     0.002 A 
HETATM   29  C   UNL     1       4.912  32.906  58.499  1.00  0.00     0.001 A 
HETATM   30  C   UNL     1       5.948  31.963  58.514  1.00  0.00     0.015 A 
ENDBRANCH   4  19
TORSDOF 6
ENDMDL
MODEL 6
REMARK VINA RESULT:      -8.9      3.533     10.305
REMARK  6 active torsions:
REMARK  status: ('A' for Active; 'I' for Inactive)
REMARK    1  A    between atoms: O_2  and  C_3 
REMARK    2  A    between atoms: C_3  and  C_4 
REMARK    3  A    between atoms: C_7  and  C_8 
REMARK    4  A    between atoms: C_8  and  O_9 
REMARK    5  A    between atoms: O_9  and  C_10 
REMARK    6  A    between atoms: C_13  and  C_14 
ROOT
HETATM    1  C   UNL     1       6.758  27.837  55.308  1.00  0.00     0.069 A 
HETATM    2  C   UNL     1       6.390  29.088  54.810  1.00  0.00     0.037 A 
HETATM    3  C   UNL     1       5.634  29.966  55.591  1.00  0.00     0.014 A 
HETATM    4  C   UNL     1       5.229  29.588  56.874  1.00  0.00    -0.035 A 
HETATM    5  C   UNL     1       5.547  28.311  57.349  1.00  0.00     0.014 A 
HETATM    6  C   UNL     1       6.301  27.434  56.564  1.00  0.00     0.037 A 
ENDROOT
BRANCH   1   7
HETATM    7  O   UNL     1       7.558  27.091  54.486  1.00  0.00    -0.347 OA
BRANCH   7   8
HETATM    8  C   UNL     1       6.871  26.335  53.483  1.00  0.00     0.214 C 
BRANCH   8   9
HETATM    9  C   UNL     1       7.214  24.868  53.628  1.00  0.00    -0.034 A 
HETATM   10  C   UNL     1       6.896  24.185  54.811  1.00  0.00     0.010 A 
HETATM   11  C   UNL     1       7.192  22.828  54.951  1.00  0.00     0.018 A 
HETATM   12  C   UNL     1       7.805  22.125  53.908  1.00  0.00     0.039 A 
HETATM   13  C   UNL     1       8.119  22.798  52.720  1.00  0.00     0.018 A 
HETATM   14  C   UNL     1       7.821  24.158  52.581  1.00  0.00     0.010 A 
BRANCH  12  15
HETATM   15  C   UNL     1       8.096  20.679  54.116  1.00  0.00     0.292 C 
HETATM   16  O   UNL     1       8.352  19.906  53.206  1.00  0.00    -0.259 OA
BRANCH  15  17
HETATM   17  O   UNL     1       8.046  20.363  55.434  1.00  0.00    -0.323 OA
HETATM   18  C   UNL     1       9.329  20.274  56.055  1.00  0.00     0.213 C 
ENDBRANCH  15  17
ENDBRANCH  12  15
ENDBRANCH   8   9
ENDBRANCH   7   8
ENDBRANCH   1   7
BRANCH   4  19
HETATM   19  C   UNL     1       4.528  30.539  57.733  1.00  0.00     0.029 C 
HETATM   20  C   UNL     1       5.079  31.334  58.660  1.00  0.00     0.045 A 
HETATM   21  C   UNL     1       4.200  32.247  59.478  1.00  0.00     0.257 A 
HETATM   22  C   UNL     1       6.457  31.540  59.112  1.00  0.00     0.006 A 
HETATM   23  O   UNL     1       2.993  32.378  59.405  1.00  0.00    -0.267 OA
HETATM   24  N   UNL     1       5.066  32.904  60.335  1.00  0.00    -0.322 N 
HETATM   25  C   UNL     1       6.384  32.501  60.129  1.00  0.00     0.046 A 
HETATM   26  H   UNL     1       4.755  33.586  61.009  1.00  0.00     0.169 HD
HETATM   27  C   UNL     1       7.495  32.958  60.806  1.00  0.00     0.030 A 
HETATM   28  C   UNL     1       8.732  32.425  60.438  1.00  0.00     0.002 A 
HETATM   29  C   UNL     1       8.823  31.461  59.417  1.00  0.00     0.001 A 
HETATM   30  C   UNL     1       7.680  31.011  58.744  1.00  0.00     0.015 A 
ENDBRANCH   4  19
TORSDOF 6
ENDMDL
MODEL 7
REMARK VINA RESULT:      -8.7      6.640      9.995
REMARK  6 active torsions:
REMARK  status: ('A' for Active; 'I' for Inactive)
REMARK    1  A    between atoms: O_2  and  C_3 
REMARK    2  A    between atoms: C_3  and  C_4 
REMARK    3  A    between atoms: C_7  and  C_8 
REMARK    4  A    between atoms: C_8  and  O_9 
REMARK    5  A    between atoms: O_9  and  C_10 
REMARK    6  A    between atoms: C_13  and  C_14 
ROOT
HETATM    1  C   UNL     1       6.093  27.263  55.056  1.00  0.00     0.069 A 
HETATM    2  C   UNL     1       5.194  26.382  55.658  1.00  0.00     0.037 A 
HETATM    3  C   UNL     1       5.650  25.205  56.258  1.00  0.00     0.014 A 
HETATM    4  C   UNL     1       7.013  24.897  56.245  1.00  0.00    -0.035 A 
HETATM    5  C   UNL     1       7.906  25.750  55.588  1.00  0.00     0.014 A 
HETATM    6  C   UNL     1       7.446  26.926  54.986  1.00  0.00     0.037 A 
ENDROOT
BRANCH   1   7
HETATM    7  O   UNL     1       5.544  28.417  54.565  1.00  0.00    -0.347 OA
BRANCH   7   8
HETATM    8  C   UNL     1       4.233  28.284  54.009  1.00  0.00     0.214 C 
BRANCH   8   9
HETATM    9  C   UNL     1       4.336  27.924  52.542  1.00  0.00    -0.034 A 
HETATM   10  C   UNL     1       3.648  28.682  51.583  1.00  0.00     0.010 A 
HETATM   11  C   UNL     1       3.747  28.370  50.225  1.00  0.00     0.018 A 
HETATM   12  C   UNL     1       4.542  27.301  49.800  1.00  0.00     0.039 A 
HETATM   13  C   UNL     1       5.239  26.544  50.751  1.00  0.00     0.018 A 
HETATM   14  C   UNL     1       5.138  26.858  52.111  1.00  0.00     0.010 A 
BRANCH  12  15
HETATM   15  C   UNL     1       4.609  27.017  48.339  1.00  0.00     0.292 C 
HETATM   16  O   UNL     1       5.387  27.573  47.580  1.00  0.00    -0.259 OA
BRANCH  15  17
HETATM   17  O   UNL     1       3.706  26.067  47.992  1.00  0.00    -0.323 OA
HETATM   18  C   UNL     1       2.627  26.560  47.195  1.00  0.00     0.213 C 
ENDBRANCH  15  17
ENDBRANCH  12  15
ENDBRANCH   8   9
ENDBRANCH   7   8
ENDBRANCH   1   7
BRANCH   4  19
HETATM   19  C   UNL     1       7.507  23.723  56.958  1.00  0.00     0.029 C 
HETATM   20  C   UNL     1       7.900  22.564  56.413  1.00  0.00     0.045 A 
HETATM   21  C   UNL     1       8.366  21.439  57.303  1.00  0.00     0.257 A 
HETATM   22  C   UNL     1       7.986  22.086  55.031  1.00  0.00     0.006 A 
HETATM   23  O   UNL     1       8.449  21.439  58.517  1.00  0.00    -0.267 OA
HETATM   24  N   UNL     1       8.678  20.404  56.439  1.00  0.00    -0.322 N 
HETATM   25  C   UNL     1       8.461  20.770  55.113  1.00  0.00     0.046 A 
HETATM   26  H   UNL     1       9.019  19.511  56.758  1.00  0.00     0.169 HD
HETATM   27  C   UNL     1       8.673  19.982  54.001  1.00  0.00     0.030 A 
HETATM   28  C   UNL     1       8.398  20.547  52.755  1.00  0.00     0.002 A 
HETATM   29  C   UNL     1       7.923  21.868  52.655  1.00  0.00     0.001 A 
HETATM   30  C   UNL     1       7.713  22.649  53.798  1.00  0.00     0.015 A 
ENDBRANCH   4  19
TORSDOF 6
ENDMDL
MODEL 8
REMARK VINA RESULT:      -8.6      3.938      7.140
REMARK  6 active torsions:
REMARK  status: ('A' for Active; 'I' for Inactive)
REMARK    1  A    between atoms: O_2  and  C_3 
REMARK    2  A    between atoms: C_3  and  C_4 
REMARK    3  A    between atoms: C_7  and  C_8 
REMARK    4  A    between atoms: C_8  and  O_9 
REMARK    5  A    between atoms: O_9  and  C_10 
REMARK    6  A    between atoms: C_13  and  C_14 
ROOT
HETATM    1  C   UNL     1       6.777  26.831  53.927  1.00  0.00     0.069 A 
HETATM    2  C   UNL     1       7.415  26.114  52.914  1.00  0.00     0.037 A 
HETATM    3  C   UNL     1       6.704  25.701  51.785  1.00  0.00     0.014 A 
HETATM    4  C   UNL     1       5.342  25.992  51.670  1.00  0.00    -0.035 A 
HETATM    5  C   UNL     1       4.690  26.657  52.714  1.00  0.00     0.014 A 
HETATM    6  C   UNL     1       5.404  27.068  53.844  1.00  0.00     0.037 A 
ENDROOT
BRANCH   1   7
HETATM    7  O   UNL     1       7.586  27.247  54.950  1.00  0.00    -0.347 OA
BRANCH   7   8
HETATM    8  C   UNL     1       8.433  28.360  54.648  1.00  0.00     0.214 C 
BRANCH   8   9
HETATM    9  C   UNL     1       8.665  29.177  55.901  1.00  0.00    -0.034 A 
HETATM   10  C   UNL     1       7.594  29.472  56.756  1.00  0.00     0.010 A 
HETATM   11  C   UNL     1       7.797  30.211  57.924  1.00  0.00     0.018 A 
HETATM   12  C   UNL     1       9.077  30.663  58.262  1.00  0.00     0.039 A 
HETATM   13  C   UNL     1      10.154  30.366  57.416  1.00  0.00     0.018 A 
HETATM   14  C   UNL     1       9.949  29.625  56.247  1.00  0.00     0.010 A 
BRANCH  12  15
HETATM   15  C   UNL     1       9.232  31.447  59.519  1.00  0.00     0.292 C 
HETATM   16  O   UNL     1       9.421  32.653  59.542  1.00  0.00    -0.259 OA
BRANCH  15  17
HETATM   17  O   UNL     1       9.124  30.642  60.605  1.00  0.00    -0.323 OA
HETATM   18  C   UNL     1       9.417  31.297  61.840  1.00  0.00     0.213 C 
ENDBRANCH  15  17
ENDBRANCH  12  15
ENDBRANCH   8   9
ENDBRANCH   7   8
ENDBRANCH   1   7
BRANCH   4  19
HETATM   19  C   UNL     1       4.618  25.653  50.448  1.00  0.00     0.029 C 
HETATM   20  C   UNL     1       4.361  26.471  49.419  1.00  0.00     0.045 A 
HETATM   21  C   UNL     1       3.576  25.961  48.237  1.00  0.00     0.257 A 
HETATM   22  C   UNL     1       4.685  27.874  49.151  1.00  0.00     0.006 A 
HETATM   23  O   UNL     1       3.127  24.843  48.071  1.00  0.00    -0.267 OA
HETATM   24  N   UNL     1       3.478  27.043  47.379  1.00  0.00    -0.322 N 
HETATM   25  C   UNL     1       4.121  28.162  47.902  1.00  0.00     0.046 A 
HETATM   26  H   UNL     1       2.998  26.996  46.494  1.00  0.00     0.169 HD
HETATM   27  C   UNL     1       4.218  29.403  47.306  1.00  0.00     0.030 A 
HETATM   28  C   UNL     1       4.916  30.392  48.000  1.00  0.00     0.002 A 
HETATM   29  C   UNL     1       5.492  30.119  49.255  1.00  0.00     0.001 A 
HETATM   30  C   UNL     1       5.379  28.852  49.841  1.00  0.00     0.015 A 
ENDBRANCH   4  19
TORSDOF 6
ENDMDL
MODEL 9
REMARK VINA RESULT:      -8.5      7.541     11.229
REMARK  6 active torsions:
REMARK  status: ('A' for Active; 'I' for Inactive)
REMARK    1  A    between atoms: O_2  and  C_3 
REMARK    2  A    between atoms: C_3  and  C_4 
REMARK    3  A    between atoms: C_7  and  C_8 
REMARK    4  A    between atoms: C_8  and  O_9 
REMARK    5  A    between atoms: O_9  and  C_10 
REMARK    6  A    between atoms: C_13  and  C_14 
ROOT
HETATM    1  C   UNL     1       5.251  25.971  51.413  1.00  0.00     0.069 A 
HETATM    2  C   UNL     1       6.514  26.471  51.728  1.00  0.00     0.037 A 
HETATM    3  C   UNL     1       7.113  26.159  52.951  1.00  0.00     0.014 A 
HETATM    4  C   UNL     1       6.441  25.354  53.874  1.00  0.00    -0.035 A 
HETATM    5  C   UNL     1       5.149  24.903  53.582  1.00  0.00     0.014 A 
HETATM    6  C   UNL     1       4.551  25.219  52.358  1.00  0.00     0.037 A 
ENDROOT
BRANCH   1   7
HETATM    7  O   UNL     1       4.793  26.280  50.160  1.00  0.00    -0.347 OA
BRANCH   7   8
HETATM    8  C   UNL     1       5.221  27.544  49.645  1.00  0.00     0.214 C 
BRANCH   8   9
HETATM    9  C   UNL     1       4.053  28.250  48.993  1.00  0.00    -0.034 A 
HETATM   10  C   UNL     1       2.795  27.631  48.945  1.00  0.00     0.010 A 
HETATM   11  C   UNL     1       1.704  28.279  48.360  1.00  0.00     0.018 A 
HETATM   12  C   UNL     1       1.849  29.561  47.819  1.00  0.00     0.039 A 
HETATM   13  C   UNL     1       3.100  30.189  47.869  1.00  0.00     0.018 A 
HETATM   14  C   UNL     1       4.191  29.539  48.456  1.00  0.00     0.010 A 
BRANCH  12  15
HETATM   15  C   UNL     1       0.650  30.200  47.208  1.00  0.00     0.292 C 
HETATM   16  O   UNL     1      -0.207  30.780  47.856  1.00  0.00    -0.259 OA
BRANCH  15  17
HETATM   17  O   UNL     1       0.661  30.054  45.860  1.00  0.00    -0.323 OA
HETATM   18  C   UNL     1       0.597  31.290  45.145  1.00  0.00     0.213 C 
ENDBRANCH  15  17
ENDBRANCH  12  15
ENDBRANCH   8   9
ENDBRANCH   7   8
ENDBRANCH   1   7
BRANCH   4  19
HETATM   19  C   UNL     1       7.102  24.941  55.109  1.00  0.00     0.029 C 
HETATM   20  C   UNL     1       7.698  23.763  55.340  1.00  0.00     0.045 A 
HETATM   21  C   UNL     1       8.318  23.492  56.688  1.00  0.00     0.257 A 
HETATM   22  C   UNL     1       7.902  22.567  54.521  1.00  0.00     0.006 A 
HETATM   23  O   UNL     1       8.365  24.239  57.647  1.00  0.00    -0.267 OA
HETATM   24  N   UNL     1       8.823  22.207  56.597  1.00  0.00    -0.322 N 
HETATM   25  C   UNL     1       8.587  21.658  55.339  1.00  0.00     0.046 A 
HETATM   26  H   UNL     1       9.299  21.752  57.361  1.00  0.00     0.169 HD
HETATM   27  C   UNL     1       8.960  20.401  54.911  1.00  0.00     0.030 A 
HETATM   28  C   UNL     1       8.631  20.048  53.601  1.00  0.00     0.002 A 
HETATM   29  C   UNL     1       7.945  20.950  52.765  1.00  0.00     0.001 A 
HETATM   30  C   UNL     1       7.575  22.221  53.222  1.00  0.00     0.015 A 
ENDBRANCH   4  19
TORSDOF 6
ENDMDL
MODEL 10
REMARK VINA RESULT:      -8.5      1.400      2.068
REMARK  6 active torsions:
REMARK  status: ('A' for Active; 'I' for Inactive)
REMARK    1  A    between atoms: O_2  and  C_3 
REMARK    2  A    between atoms: C_3  and  C_4 
REMARK    3  A    between atoms: C_7  and  C_8 
REMARK    4  A    between atoms: C_8  and  O_9 
REMARK    5  A    between atoms: O_9  and  C_10 
REMARK    6  A    between atoms: C_13  and  C_14 
ROOT
HETATM    1  C   UNL     1       6.365  30.434  57.455  1.00  0.00     0.069 A 
HETATM    2  C   UNL     1       7.360  29.961  56.599  1.00  0.00     0.037 A 
HETATM    3  C   UNL     1       7.101  28.893  55.736  1.00  0.00     0.014 A 
HETATM    4  C   UNL     1       5.845  28.281  55.737  1.00  0.00    -0.035 A 
HETATM    5  C   UNL     1       4.868  28.716  56.639  1.00  0.00     0.014 A 
HETATM    6  C   UNL     1       5.130  29.784  57.503  1.00  0.00     0.037 A 
ENDROOT
BRANCH   1   7
HETATM    7  O   UNL     1       6.705  31.529  58.202  1.00  0.00    -0.347 OA
BRANCH   7   8
HETATM    8  C   UNL     1       7.621  31.280  59.273  1.00  0.00     0.214 C 
BRANCH   8   9
HETATM    9  C   UNL     1       7.084  31.885  60.552  1.00  0.00    -0.034 A 
HETATM   10  C   UNL     1       5.798  32.445  60.580  1.00  0.00     0.010 A 
HETATM   11  C   UNL     1       5.285  32.991  61.758  1.00  0.00     0.018 A 
HETATM   12  C   UNL     1       6.044  32.981  62.933  1.00  0.00     0.039 A 
HETATM   13  C   UNL     1       7.326  32.417  62.916  1.00  0.00     0.018 A 
HETATM   14  C   UNL     1       7.839  31.869  61.735  1.00  0.00     0.010 A 
BRANCH  12  15
HETATM   15  C   UNL     1       5.443  33.578  64.158  1.00  0.00     0.292 C 
HETATM   16  O   UNL     1       4.744  32.952  64.940  1.00  0.00    -0.259 OA
BRANCH  15  17
HETATM   17  O   UNL     1       5.788  34.884  64.276  1.00  0.00    -0.323 OA
HETATM   18  C   UNL     1       4.917  35.637  65.123  1.00  0.00     0.213 C 
ENDBRANCH  15  17
ENDBRANCH  12  15
ENDBRANCH   8   9
ENDBRANCH   7   8
ENDBRANCH   1   7
BRANCH   4  19
HETATM   19  C   UNL     1       5.537  27.233  54.768  1.00  0.00     0.029 C 
HETATM   20  C   UNL     1       6.046  25.993  54.743  1.00  0.00     0.045 A 
HETATM   21  C   UNL     1       5.633  25.039  53.651  1.00  0.00     0.257 A 
HETATM   22  C   UNL     1       7.000  25.286  55.599  1.00  0.00     0.006 A 
HETATM   23  O   UNL     1       4.850  25.244  52.742  1.00  0.00    -0.267 OA
HETATM   24  N   UNL     1       6.339  23.876  53.906  1.00  0.00    -0.322 N 
HETATM   25  C   UNL     1       7.138  24.009  55.039  1.00  0.00     0.046 A 
HETATM   26  H   UNL     1       6.263  23.053  53.329  1.00  0.00     0.169 HD
HETATM   27  C   UNL     1       7.965  23.043  55.575  1.00  0.00     0.030 A 
HETATM   28  C   UNL     1       8.678  23.380  56.727  1.00  0.00     0.002 A 
HETATM   29  C   UNL     1       8.549  24.657  57.304  1.00  0.00     0.001 A 
HETATM   30  C   UNL     1       7.704  25.623  56.740  1.00  0.00     0.015 A 
ENDBRANCH   4  19
TORSDOF 6
ENDMDL
