MODEL 1
REMARK VINA RESULT:      -8.7      0.000      0.000
REMARK  6 active torsions:
REMARK  status: ('A' for Active; 'I' for Inactive)
REMARK    1  A    between atoms: O_2  and  C_3 
REMARK    2  A    between atoms: C_3  and  C_4 
REMARK    3  A    between atoms: C_4  and  N_5 
REMARK       I    between atoms: N_5  and  C_6 
REMARK    4  A    between atoms: C_6  and  C_7 
REMARK    5  A    between atoms: C_12  and  C_13 
REMARK    6  A    between atoms: C_21  and  C_22 
ROOT
HETATM    1  C   UNL     1       5.377  27.306  50.685  1.00  0.00     0.170 A 
HETATM    2  N   UNL     1       5.899  26.206  51.282  1.00  0.00    -0.163 NA
HETATM    3  N   UNL     1       6.313  26.650  52.479  1.00  0.00    -0.238 N 
HETATM    4  C   UNL     1       6.197  28.007  52.631  1.00  0.00     0.145 A 
HETATM    5  N   UNL     1       6.673  28.631  53.741  1.00  0.00    -0.365 N 
HETATM    6  C   UNL     1       7.639  27.939  54.588  1.00  0.00     0.118 C 
HETATM    7  C   UNL     1       7.179  26.489  54.783  1.00  0.00     0.066 C 
HETATM    8  C   UNL     1       7.006  25.786  53.422  1.00  0.00     0.221 C 
HETATM    9  C   UNL     1       5.550  28.457  51.503  1.00  0.00     0.115 A 
HETATM   10 CL   UNL     1       5.106  30.059  51.163  1.00  0.00    -0.077 Cl
HETATM   11  H   UNL     1       6.764  29.649  53.726  1.00  0.00     0.162 HD
ENDROOT
BRANCH   1  12
HETATM   12  C   UNL     1       4.752  27.220  49.356  1.00  0.00     0.273 C 
HETATM   13  N   UNL     1       3.607  26.453  49.341  1.00  0.00    -0.353 N 
HETATM   14  H   UNL     1       3.251  26.171  50.252  1.00  0.00     0.162 HD
HETATM   15  O   UNL     1       5.193  27.779  48.357  1.00  0.00    -0.266 OA
BRANCH  13  16
HETATM   16  C   UNL     1       2.708  26.412  48.205  1.00  0.00     0.149 C 
BRANCH  16  17
HETATM   17  C   UNL     1       1.624  27.482  48.310  1.00  0.00     0.186 C 
BRANCH  17  18
HETATM   18  O   UNL     1       0.431  27.008  47.677  1.00  0.00    -0.394 OA
HETATM   19  C   UNL     1       0.313  27.503  46.350  1.00  0.00     0.201 C 
ENDBRANCH  17  18
ENDBRANCH  16  17
ENDBRANCH  13  16
ENDBRANCH   1  12
BRANCH   8  20
HETATM   20  C   UNL     1       6.286  24.469  53.619  1.00  0.00     0.409 C 
HETATM   21  F   UNL     1       6.641  23.544  52.701  1.00  0.00    -0.169 F 
HETATM   22  F   UNL     1       6.467  23.939  54.847  1.00  0.00    -0.169 F 
HETATM   23  F   UNL     1       4.945  24.659  53.484  1.00  0.00    -0.169 F 
ENDBRANCH   8  20
BRANCH   6  24
HETATM   24  C   UNL     1       7.782  28.651  55.920  1.00  0.00    -0.035 A 
HETATM   25  C   UNL     1       6.660  29.017  56.683  1.00  0.00     0.011 A 
HETATM   26  C   UNL     1       6.813  29.654  57.917  1.00  0.00     0.024 A 
HETATM   27  C   UNL     1       8.089  29.922  58.404  1.00  0.00     0.034 A 
HETATM   28 CL   UNL     1       8.280  30.702  59.926  1.00  0.00    -0.084 Cl
HETATM   29  C   UNL     1       9.214  29.557  57.668  1.00  0.00     0.024 A 
HETATM   30  C   UNL     1       9.061  28.924  56.432  1.00  0.00     0.011 A 
ENDBRANCH   6  24
TORSDOF 6
ENDMDL
MODEL 2
REMARK VINA RESULT:      -8.6      4.782      7.330
REMARK  6 active torsions:
REMARK  status: ('A' for Active; 'I' for Inactive)
REMARK    1  A    between atoms: O_2  and  C_3 
REMARK    2  A    between atoms: C_3  and  C_4 
REMARK    3  A    between atoms: C_4  and  N_5 
REMARK       I    between atoms: N_5  and  C_6 
REMARK    4  A    between atoms: C_6  and  C_7 
REMARK    5  A    between atoms: C_12  and  C_13 
REMARK    6  A    between atoms: C_21  and  C_22 
ROOT
HETATM    1  C   UNL     1       4.802  29.602  55.129  1.00  0.00     0.170 A 
HETATM    2  N   UNL     1       5.692  29.380  56.128  1.00  0.00    -0.163 NA
HETATM    3  N   UNL     1       6.169  28.152  55.873  1.00  0.00    -0.238 N 
HETATM    4  C   UNL     1       5.539  27.523  54.830  1.00  0.00     0.145 A 
HETATM    5  N   UNL     1       5.827  26.233  54.513  1.00  0.00    -0.365 N 
HETATM    6  C   UNL     1       6.506  25.393  55.494  1.00  0.00     0.118 C 
HETATM    7  C   UNL     1       7.650  26.195  56.128  1.00  0.00     0.066 C 
HETATM    8  C   UNL     1       7.116  27.495  56.761  1.00  0.00     0.221 C 
HETATM    9  C   UNL     1       4.679  28.454  54.296  1.00  0.00     0.115 A 
HETATM   10 CL   UNL     1       3.661  28.240  52.955  1.00  0.00    -0.077 Cl
HETATM   11  H   UNL     1       5.196  25.735  53.882  1.00  0.00     0.162 HD
ENDROOT
BRANCH   1  12
HETATM   12  C   UNL     1       4.096  30.888  55.016  1.00  0.00     0.273 C 
HETATM   13  N   UNL     1       4.940  31.978  55.047  1.00  0.00    -0.353 N 
HETATM   14  H   UNL     1       5.935  31.769  54.988  1.00  0.00     0.162 HD
HETATM   15  O   UNL     1       2.879  30.989  54.899  1.00  0.00    -0.266 OA
BRANCH  13  16
HETATM   16  C   UNL     1       4.495  33.319  54.729  1.00  0.00     0.149 C 
BRANCH  16  17
HETATM   17  C   UNL     1       4.717  34.275  55.899  1.00  0.00     0.186 C 
BRANCH  17  18
HETATM   18  O   UNL     1       5.356  33.570  56.968  1.00  0.00    -0.394 OA
HETATM   19  C   UNL     1       4.660  33.744  58.196  1.00  0.00     0.201 C 
ENDBRANCH  17  18
ENDBRANCH  16  17
ENDBRANCH  13  16
ENDBRANCH   1  12
BRANCH   8  20
HETATM   20  C   UNL     1       8.275  28.398  57.121  1.00  0.00     0.409 C 
HETATM   21  F   UNL     1       8.518  29.331  56.174  1.00  0.00    -0.169 F 
HETATM   22  F   UNL     1       8.115  29.027  58.305  1.00  0.00    -0.169 F 
HETATM   23  F   UNL     1       9.410  27.657  57.239  1.00  0.00    -0.169 F 
ENDBRANCH   8  20
BRANCH   6  24
HETATM   24  C   UNL     1       7.025  24.127  54.839  1.00  0.00    -0.035 A 
HETATM   25  C   UNL     1       7.348  22.986  55.594  1.00  0.00     0.011 A 
HETATM   26  C   UNL     1       7.804  21.822  54.970  1.00  0.00     0.024 A 
HETATM   27  C   UNL     1       7.932  21.784  53.585  1.00  0.00     0.034 A 
HETATM   28 CL   UNL     1       8.490  20.350  52.815  1.00  0.00    -0.084 Cl
HETATM   29  C   UNL     1       7.607  22.900  52.818  1.00  0.00     0.024 A 
HETATM   30  C   UNL     1       7.154  24.066  53.442  1.00  0.00     0.011 A 
ENDBRANCH   6  24
TORSDOF 6
ENDMDL
MODEL 3
REMARK VINA RESULT:      -8.5      4.997      8.531
REMARK  6 active torsions:
REMARK  status: ('A' for Active; 'I' for Inactive)
REMARK    1  A    between atoms: O_2  and  C_3 
REMARK    2  A    between atoms: C_3  and  C_4 
REMARK    3  A    between atoms: C_4  and  N_5 
REMARK       I    between atoms: N_5  and  C_6 
REMARK    4  A    between atoms: C_6  and  C_7 
REMARK    5  A    between atoms: C_12  and  C_13 
REMARK    6  A    between atoms: C_21  and  C_22 
ROOT
HETATM    1  C   UNL     1       6.288  30.262  56.977  1.00  0.00     0.170 A 
HETATM    2  N   UNL     1       5.574  30.244  55.823  1.00  0.00    -0.163 NA
HETATM    3  N   UNL     1       5.823  29.031  55.305  1.00  0.00    -0.238 N 
HETATM    4  C   UNL     1       6.759  28.316  56.005  1.00  0.00     0.145 A 
HETATM    5  N   UNL     1       7.206  27.116  55.552  1.00  0.00    -0.365 N 
HETATM    6  C   UNL     1       6.993  26.758  54.153  1.00  0.00     0.118 C 
HETATM    7  C   UNL     1       5.558  27.128  53.758  1.00  0.00     0.066 C 
HETATM    8  C   UNL     1       5.294  28.625  54.012  1.00  0.00     0.221 C 
HETATM    9  C   UNL     1       7.047  29.067  57.121  1.00  0.00     0.115 A 
HETATM   10 CL   UNL     1       8.120  28.654  58.370  1.00  0.00    -0.077 Cl
HETATM   11  H   UNL     1       8.046  26.717  55.976  1.00  0.00     0.162 HD
ENDROOT
BRANCH   1  12
HETATM   12  C   UNL     1       6.230  31.419  57.885  1.00  0.00     0.273 C 
HETATM   13  N   UNL     1       6.591  31.113  59.180  1.00  0.00    -0.353 N 
HETATM   14  H   UNL     1       6.992  30.188  59.321  1.00  0.00     0.162 HD
HETATM   15  O   UNL     1       5.904  32.547  57.531  1.00  0.00    -0.266 OA
BRANCH  13  16
HETATM   16  C   UNL     1       6.824  32.129  60.186  1.00  0.00     0.149 C 
BRANCH  16  17
HETATM   17  C   UNL     1       8.299  32.203  60.576  1.00  0.00     0.186 C 
BRANCH  17  18
HETATM   18  O   UNL     1       9.054  32.707  59.470  1.00  0.00    -0.394 OA
HETATM   19  C   UNL     1       9.932  31.719  58.945  1.00  0.00     0.201 C 
ENDBRANCH  17  18
ENDBRANCH  16  17
ENDBRANCH  13  16
ENDBRANCH   1  12
BRANCH   8  20
HETATM   20  C   UNL     1       3.812  28.907  53.892  1.00  0.00     0.409 C 
HETATM   21  F   UNL     1       3.175  28.842  55.081  1.00  0.00    -0.169 F 
HETATM   22  F   UNL     1       3.539  30.104  53.330  1.00  0.00    -0.169 F 
HETATM   23  F   UNL     1       3.235  27.974  53.088  1.00  0.00    -0.169 F 
ENDBRANCH   8  20
BRANCH   6  24
HETATM   24  C   UNL     1       7.255  25.279  53.938  1.00  0.00    -0.035 A 
HETATM   25  C   UNL     1       7.709  24.783  52.703  1.00  0.00     0.011 A 
HETATM   26  C   UNL     1       7.964  23.421  52.531  1.00  0.00     0.024 A 
HETATM   27  C   UNL     1       7.777  22.542  53.594  1.00  0.00     0.034 A 
HETATM   28 CL   UNL     1       8.095  20.864  53.385  1.00  0.00    -0.084 Cl
HETATM   29  C   UNL     1       7.338  23.015  54.828  1.00  0.00     0.024 A 
HETATM   30  C   UNL     1       7.079  24.377  55.000  1.00  0.00     0.011 A 
ENDBRANCH   6  24
TORSDOF 6
ENDMDL
MODEL 4
REMARK VINA RESULT:      -8.1      4.314      6.986
REMARK  6 active torsions:
REMARK  status: ('A' for Active; 'I' for Inactive)
REMARK    1  A    between atoms: O_2  and  C_3 
REMARK    2  A    between atoms: C_3  and  C_4 
REMARK    3  A    between atoms: C_4  and  N_5 
REMARK       I    between atoms: N_5  and  C_6 
REMARK    4  A    between atoms: C_6  and  C_7 
REMARK    5  A    between atoms: C_12  and  C_13 
REMARK    6  A    between atoms: C_21  and  C_22 
ROOT
HETATM    1  C   UNL     1       4.974  29.295  54.381  1.00  0.00     0.170 A 
HETATM    2  N   UNL     1       5.254  29.010  53.085  1.00  0.00    -0.163 NA
HETATM    3  N   UNL     1       5.803  27.786  53.132  1.00  0.00    -0.238 N 
HETATM    4  C   UNL     1       6.004  27.323  54.407  1.00  0.00     0.145 A 
HETATM    5  N   UNL     1       6.652  26.150  54.631  1.00  0.00    -0.365 N 
HETATM    6  C   UNL     1       7.466  25.570  53.568  1.00  0.00     0.118 C 
HETATM    7  C   UNL     1       6.696  25.664  52.245  1.00  0.00     0.066 C 
HETATM    8  C   UNL     1       6.316  27.127  51.941  1.00  0.00     0.221 C 
HETATM    9  C   UNL     1       5.436  28.259  55.240  1.00  0.00     0.115 A 
HETATM   10 CL   UNL     1       5.355  28.189  56.934  1.00  0.00    -0.077 Cl
HETATM   11  H   UNL     1       6.972  25.944  55.580  1.00  0.00     0.162 HD
ENDROOT
BRANCH   1  12
HETATM   12  C   UNL     1       4.296  30.548  54.751  1.00  0.00     0.273 C 
HETATM   13  N   UNL     1       5.121  31.446  55.394  1.00  0.00    -0.353 N 
HETATM   14  H   UNL     1       6.112  31.210  55.399  1.00  0.00     0.162 HD
HETATM   15  O   UNL     1       3.116  30.782  54.508  1.00  0.00    -0.266 OA
BRANCH  13  16
HETATM   16  C   UNL     1       4.736  32.819  55.647  1.00  0.00     0.149 C 
BRANCH  16  17
HETATM   17  C   UNL     1       4.571  33.088  57.140  1.00  0.00     0.186 C 
BRANCH  17  18
HETATM   18  O   UNL     1       3.362  32.474  57.598  1.00  0.00    -0.394 OA
HETATM   19  C   UNL     1       3.616  31.520  58.621  1.00  0.00     0.201 C 
ENDBRANCH  17  18
ENDBRANCH  16  17
ENDBRANCH  13  16
ENDBRANCH   1  12
BRANCH   8  20
HETATM   20  C   UNL     1       5.323  27.167  50.800  1.00  0.00     0.409 C 
HETATM   21  F   UNL     1       5.569  28.176  49.935  1.00  0.00    -0.169 F 
HETATM   22  F   UNL     1       5.266  26.014  50.100  1.00  0.00    -0.169 F 
HETATM   23  F   UNL     1       4.071  27.371  51.292  1.00  0.00    -0.169 F 
ENDBRANCH   8  20
BRANCH   6  24
HETATM   24  C   UNL     1       7.818  24.131  53.894  1.00  0.00    -0.035 A 
HETATM   25  C   UNL     1       8.066  23.714  55.214  1.00  0.00     0.011 A 
HETATM   26  C   UNL     1       8.368  22.380  55.496  1.00  0.00     0.024 A 
HETATM   27  C   UNL     1       8.416  21.447  54.464  1.00  0.00     0.034 A 
HETATM   28 CL   UNL     1       8.783  19.803  54.811  1.00  0.00    -0.084 Cl
HETATM   29  C   UNL     1       8.163  21.838  53.152  1.00  0.00     0.024 A 
HETATM   30  C   UNL     1       7.865  23.173  52.868  1.00  0.00     0.011 A 
ENDBRANCH   6  24
TORSDOF 6
ENDMDL
MODEL 5
REMARK VINA RESULT:      -8.1      5.957      9.072
REMARK  6 active torsions:
REMARK  status: ('A' for Active; 'I' for Inactive)
REMARK    1  A    between atoms: O_2  and  C_3 
REMARK    2  A    between atoms: C_3  and  C_4 
REMARK    3  A    between atoms: C_4  and  N_5 
REMARK       I    between atoms: N_5  and  C_6 
REMARK    4  A    between atoms: C_6  and  C_7 
REMARK    5  A    between atoms: C_12  and  C_13 
REMARK    6  A    between atoms: C_21  and  C_22 
ROOT
HETATM    1  C   UNL     1       6.192  30.947  58.079  1.00  0.00     0.170 A 
HETATM    2  N   UNL     1       7.503  30.671  58.288  1.00  0.00    -0.163 NA
HETATM    3  N   UNL     1       7.696  29.504  57.652  1.00  0.00    -0.238 N 
HETATM    4  C   UNL     1       6.544  28.955  57.152  1.00  0.00     0.145 A 
HETATM    5  N   UNL     1       6.548  27.723  56.578  1.00  0.00    -0.365 N 
HETATM    6  C   UNL     1       7.670  26.824  56.827  1.00  0.00     0.118 C 
HETATM    7  C   UNL     1       8.977  27.617  56.713  1.00  0.00     0.066 C 
HETATM    8  C   UNL     1       8.974  28.811  57.687  1.00  0.00     0.221 C 
HETATM    9  C   UNL     1       5.557  29.888  57.372  1.00  0.00     0.115 A 
HETATM   10 CL   UNL     1       3.925  29.759  56.924  1.00  0.00    -0.077 Cl
HETATM   11  H   UNL     1       5.652  27.260  56.414  1.00  0.00     0.162 HD
ENDROOT
BRANCH   1  12
HETATM   12  C   UNL     1       5.593  32.196  58.576  1.00  0.00     0.273 C 
HETATM   13  N   UNL     1       4.979  32.057  59.802  1.00  0.00    -0.353 N 
HETATM   14  H   UNL     1       5.140  31.172  60.279  1.00  0.00     0.162 HD
HETATM   15  O   UNL     1       5.639  33.262  57.970  1.00  0.00    -0.266 OA
BRANCH  13  16
HETATM   16  C   UNL     1       4.523  33.190  60.581  1.00  0.00     0.149 C 
BRANCH  16  17
HETATM   17  C   UNL     1       3.639  32.749  61.746  1.00  0.00     0.186 C 
BRANCH  17  18
HETATM   18  O   UNL     1       4.368  31.835  62.571  1.00  0.00    -0.394 OA
HETATM   19  C   UNL     1       5.315  32.510  63.388  1.00  0.00     0.201 C 
ENDBRANCH  17  18
ENDBRANCH  16  17
ENDBRANCH  13  16
ENDBRANCH   1  12
BRANCH   8  20
HETATM   20  C   UNL     1      10.129  29.735  57.362  1.00  0.00     0.409 C 
HETATM   21  F   UNL     1      10.392  30.605  58.361  1.00  0.00    -0.169 F 
HETATM   22  F   UNL     1      11.269  29.079  57.059  1.00  0.00    -0.169 F 
HETATM   23  F   UNL     1       9.820  30.480  56.266  1.00  0.00    -0.169 F 
ENDBRANCH   8  20
BRANCH   6  24
HETATM   24  C   UNL     1       7.647  25.664  55.850  1.00  0.00    -0.035 A 
HETATM   25  C   UNL     1       7.302  25.845  54.499  1.00  0.00     0.011 A 
HETATM   26  C   UNL     1       7.308  24.768  53.610  1.00  0.00     0.024 A 
HETATM   27  C   UNL     1       7.666  23.501  54.060  1.00  0.00     0.034 A 
HETATM   28 CL   UNL     1       7.678  22.174  52.965  1.00  0.00    -0.084 Cl
HETATM   29  C   UNL     1       8.022  23.302  55.392  1.00  0.00     0.024 A 
HETATM   30  C   UNL     1       8.012  24.379  56.283  1.00  0.00     0.011 A 
ENDBRANCH   6  24
TORSDOF 6
ENDMDL
MODEL 6
REMARK VINA RESULT:      -8.0      6.803     10.157
REMARK  6 active torsions:
REMARK  status: ('A' for Active; 'I' for Inactive)
REMARK    1  A    between atoms: O_2  and  C_3 
REMARK    2  A    between atoms: C_3  and  C_4 
REMARK    3  A    between atoms: C_4  and  N_5 
REMARK       I    between atoms: N_5  and  C_6 
REMARK    4  A    between atoms: C_6  and  C_7 
REMARK    5  A    between atoms: C_12  and  C_13 
REMARK    6  A    between atoms: C_21  and  C_22 
ROOT
HETATM    1  C   UNL     1       8.581  31.603  59.160  1.00  0.00     0.170 A 
HETATM    2  N   UNL     1       7.318  31.581  58.667  1.00  0.00    -0.163 NA
HETATM    3  N   UNL     1       6.564  32.037  59.680  1.00  0.00    -0.238 N 
HETATM    4  C   UNL     1       7.265  32.233  60.841  1.00  0.00     0.145 A 
HETATM    5  N   UNL     1       6.632  32.586  61.990  1.00  0.00    -0.365 N 
HETATM    6  C   UNL     1       5.191  32.387  62.099  1.00  0.00     0.118 C 
HETATM    7  C   UNL     1       4.525  32.856  60.800  1.00  0.00     0.066 C 
HETATM    8  C   UNL     1       5.114  32.109  59.588  1.00  0.00     0.221 C 
HETATM    9  C   UNL     1       8.585  32.004  60.525  1.00  0.00     0.115 A 
HETATM   10 CL   UNL     1       9.913  32.135  61.574  1.00  0.00    -0.077 Cl
HETATM   11  H   UNL     1       7.146  32.513  62.871  1.00  0.00     0.162 HD
ENDROOT
BRANCH   1  12
HETATM   12  C   UNL     1       9.728  31.225  58.319  1.00  0.00     0.273 C 
HETATM   13  N   UNL     1       9.657  29.931  57.849  1.00  0.00    -0.353 N 
HETATM   14  H   UNL     1       8.772  29.452  58.004  1.00  0.00     0.162 HD
HETATM   15  O   UNL     1      10.656  31.982  58.052  1.00  0.00    -0.266 OA
BRANCH  13  16
HETATM   16  C   UNL     1      10.551  29.420  56.830  1.00  0.00     0.149 C 
BRANCH  16  17
HETATM   17  C   UNL     1       9.887  29.414  55.455  1.00  0.00     0.186 C 
BRANCH  17  18
HETATM   18  O   UNL     1       8.465  29.403  55.618  1.00  0.00    -0.394 OA
HETATM   19  C   UNL     1       7.871  28.303  54.941  1.00  0.00     0.201 C 
ENDBRANCH  17  18
ENDBRANCH  16  17
ENDBRANCH  13  16
ENDBRANCH   1  12
BRANCH   8  20
HETATM   20  C   UNL     1       4.660  32.777  58.308  1.00  0.00     0.409 C 
HETATM   21  F   UNL     1       4.742  31.957  57.238  1.00  0.00    -0.169 F 
HETATM   22  F   UNL     1       3.401  33.261  58.376  1.00  0.00    -0.169 F 
HETATM   23  F   UNL     1       5.460  33.845  58.044  1.00  0.00    -0.169 F 
ENDBRANCH   8  20
BRANCH   6  24
HETATM   24  C   UNL     1       4.641  33.139  63.297  1.00  0.00    -0.035 A 
HETATM   25  C   UNL     1       5.325  33.169  64.525  1.00  0.00     0.011 A 
HETATM   26  C   UNL     1       4.813  33.885  65.610  1.00  0.00     0.024 A 
HETATM   27  C   UNL     1       3.618  34.585  65.476  1.00  0.00     0.034 A 
HETATM   28 CL   UNL     1       2.988  35.470  66.810  1.00  0.00    -0.084 Cl
HETATM   29  C   UNL     1       2.930  34.577  64.264  1.00  0.00     0.024 A 
HETATM   30  C   UNL     1       3.440  33.858  63.180  1.00  0.00     0.011 A 
ENDBRANCH   6  24
TORSDOF 6
ENDMDL
MODEL 7
REMARK VINA RESULT:      -7.8      4.503      6.933
REMARK  6 active torsions:
REMARK  status: ('A' for Active; 'I' for Inactive)
REMARK    1  A    between atoms: O_2  and  C_3 
REMARK    2  A    between atoms: C_3  and  C_4 
REMARK    3  A    between atoms: C_4  and  N_5 
REMARK       I    between atoms: N_5  and  C_6 
REMARK    4  A    between atoms: C_6  and  C_7 
REMARK    5  A    between atoms: C_12  and  C_13 
REMARK    6  A    between atoms: C_21  and  C_22 
ROOT
HETATM    1  C   UNL     1       4.711  29.453  54.124  1.00  0.00     0.170 A 
HETATM    2  N   UNL     1       5.025  29.149  52.841  1.00  0.00    -0.163 NA
HETATM    3  N   UNL     1       5.537  27.911  52.915  1.00  0.00    -0.238 N 
HETATM    4  C   UNL     1       5.684  27.453  54.198  1.00  0.00     0.145 A 
HETATM    5  N   UNL     1       6.290  26.264  54.453  1.00  0.00    -0.365 N 
HETATM    6  C   UNL     1       7.122  25.653  53.422  1.00  0.00     0.118 C 
HETATM    7  C   UNL     1       6.399  25.758  52.073  1.00  0.00     0.066 C 
HETATM    8  C   UNL     1       6.071  27.228  51.746  1.00  0.00     0.221 C 
HETATM    9  C   UNL     1       5.114  28.411  55.005  1.00  0.00     0.115 A 
HETATM   10 CL   UNL     1       4.976  28.358  56.696  1.00  0.00    -0.077 Cl
HETATM   11  H   UNL     1       6.572  26.057  55.414  1.00  0.00     0.162 HD
ENDROOT
BRANCH   1  12
HETATM   12  C   UNL     1       4.056  30.727  54.462  1.00  0.00     0.273 C 
HETATM   13  N   UNL     1       4.840  31.554  55.238  1.00  0.00    -0.353 N 
HETATM   14  H   UNL     1       5.810  31.264  55.354  1.00  0.00     0.162 HD
HETATM   15  O   UNL     1       2.929  31.035  54.088  1.00  0.00    -0.266 OA
BRANCH  13  16
HETATM   16  C   UNL     1       4.497  32.937  55.501  1.00  0.00     0.149 C 
BRANCH  16  17
HETATM   17  C   UNL     1       5.257  33.887  54.579  1.00  0.00     0.186 C 
BRANCH  17  18
HETATM   18  O   UNL     1       5.625  35.060  55.312  1.00  0.00    -0.394 OA
HETATM   19  C   UNL     1       6.090  36.090  54.448  1.00  0.00     0.201 C 
ENDBRANCH  17  18
ENDBRANCH  16  17
ENDBRANCH  13  16
ENDBRANCH   1  12
BRANCH   8  20
HETATM   20  C   UNL     1       5.118  27.287  50.572  1.00  0.00     0.409 C 
HETATM   21  F   UNL     1       5.060  26.119  49.894  1.00  0.00    -0.169 F 
HETATM   22  F   UNL     1       3.862  27.638  50.919  1.00  0.00    -0.169 F 
HETATM   23  F   UNL     1       5.543  28.230  49.688  1.00  0.00    -0.169 F 
ENDBRANCH   8  20
BRANCH   6  24
HETATM   24  C   UNL     1       7.422  24.208  53.770  1.00  0.00    -0.035 A 
HETATM   25  C   UNL     1       7.858  23.291  52.797  1.00  0.00     0.011 A 
HETATM   26  C   UNL     1       8.149  21.969  53.141  1.00  0.00     0.024 A 
HETATM   27  C   UNL     1       8.017  21.552  54.462  1.00  0.00     0.034 A 
HETATM   28 CL   UNL     1       8.380  19.925  54.889  1.00  0.00    -0.084 Cl
HETATM   29  C   UNL     1       7.597  22.448  55.443  1.00  0.00     0.024 A 
HETATM   30  C   UNL     1       7.301  23.769  55.099  1.00  0.00     0.011 A 
ENDBRANCH   6  24
TORSDOF 6
ENDMDL
MODEL 8
REMARK VINA RESULT:      -7.7      8.265     11.430
REMARK  6 active torsions:
REMARK  status: ('A' for Active; 'I' for Inactive)
REMARK    1  A    between atoms: O_2  and  C_3 
REMARK    2  A    between atoms: C_3  and  C_4 
REMARK    3  A    between atoms: C_4  and  N_5 
REMARK       I    between atoms: N_5  and  C_6 
REMARK    4  A    between atoms: C_6  and  C_7 
REMARK    5  A    between atoms: C_12  and  C_13 
REMARK    6  A    between atoms: C_21  and  C_22 
ROOT
HETATM    1  C   UNL     1       6.904  31.847  60.201  1.00  0.00     0.170 A 
HETATM    2  N   UNL     1       5.648  32.357  60.245  1.00  0.00    -0.163 NA
HETATM    3  N   UNL     1       5.520  32.801  61.505  1.00  0.00    -0.238 N 
HETATM    4  C   UNL     1       6.586  32.488  62.308  1.00  0.00     0.145 A 
HETATM    5  N   UNL     1       6.566  32.767  63.638  1.00  0.00    -0.365 N 
HETATM    6  C   UNL     1       5.289  33.040  64.290  1.00  0.00     0.118 C 
HETATM    7  C   UNL     1       4.468  33.980  63.399  1.00  0.00     0.066 C 
HETATM    8  C   UNL     1       4.274  33.368  61.997  1.00  0.00     0.221 C 
HETATM    9  C   UNL     1       7.522  31.910  61.481  1.00  0.00     0.115 A 
HETATM   10 CL   UNL     1       9.062  31.356  61.929  1.00  0.00    -0.077 Cl
HETATM   11  H   UNL     1       7.272  32.334  64.237  1.00  0.00     0.162 HD
ENDROOT
BRANCH   1  12
HETATM   12  C   UNL     1       7.459  31.307  58.949  1.00  0.00     0.273 C 
HETATM   13  N   UNL     1       6.639  30.376  58.347  1.00  0.00    -0.353 N 
HETATM   14  H   UNL     1       5.704  30.288  58.743  1.00  0.00     0.162 HD
HETATM   15  O   UNL     1       8.537  31.651  58.477  1.00  0.00    -0.266 OA
BRANCH  13  16
HETATM   16  C   UNL     1       6.871  29.882  57.006  1.00  0.00     0.149 C 
BRANCH  16  17
HETATM   17  C   UNL     1       7.130  28.377  57.000  1.00  0.00     0.186 C 
BRANCH  17  18
HETATM   18  O   UNL     1       8.449  28.128  56.504  1.00  0.00    -0.394 OA
HETATM   19  C   UNL     1       8.980  29.268  55.839  1.00  0.00     0.201 C 
ENDBRANCH  17  18
ENDBRANCH  16  17
ENDBRANCH  13  16
ENDBRANCH   1  12
BRANCH   8  20
HETATM   20  C   UNL     1       3.719  34.417  61.058  1.00  0.00     0.409 C 
HETATM   21  F   UNL     1       3.061  33.875  60.009  1.00  0.00    -0.169 F 
HETATM   22  F   UNL     1       2.897  35.298  61.665  1.00  0.00    -0.169 F 
HETATM   23  F   UNL     1       4.741  35.151  60.540  1.00  0.00    -0.169 F 
ENDBRANCH   8  20
BRANCH   6  24
HETATM   24  C   UNL     1       5.513  33.646  65.662  1.00  0.00    -0.035 A 
HETATM   25  C   UNL     1       4.438  33.987  66.501  1.00  0.00     0.011 A 
HETATM   26  C   UNL     1       4.665  34.525  67.771  1.00  0.00     0.024 A 
HETATM   27  C   UNL     1       5.969  34.717  68.217  1.00  0.00     0.034 A 
HETATM   28 CL   UNL     1       6.251  35.375  69.782  1.00  0.00    -0.084 Cl
HETATM   29  C   UNL     1       7.048  34.376  67.406  1.00  0.00     0.024 A 
HETATM   30  C   UNL     1       6.822  33.842  66.134  1.00  0.00     0.011 A 
ENDBRANCH   6  24
TORSDOF 6
ENDMDL
MODEL 9
REMARK VINA RESULT:      -7.6      5.639      7.845
REMARK  6 active torsions:
REMARK  status: ('A' for Active; 'I' for Inactive)
REMARK    1  A    between atoms: O_2  and  C_3 
REMARK    2  A    between atoms: C_3  and  C_4 
REMARK    3  A    between atoms: C_4  and  N_5 
REMARK       I    between atoms: N_5  and  C_6 
REMARK    4  A    between atoms: C_6  and  C_7 
REMARK    5  A    between atoms: C_12  and  C_13 
REMARK    6  A    between atoms: C_21  and  C_22 
ROOT
HETATM    1  C   UNL     1       5.712  30.842  57.872  1.00  0.00     0.170 A 
HETATM    2  N   UNL     1       6.996  30.594  58.231  1.00  0.00    -0.163 NA
HETATM    3  N   UNL     1       7.283  29.428  57.632  1.00  0.00    -0.238 N 
HETATM    4  C   UNL     1       6.208  28.852  57.009  1.00  0.00     0.145 A 
HETATM    5  N   UNL     1       6.301  27.617  56.449  1.00  0.00    -0.365 N 
HETATM    6  C   UNL     1       7.404  26.742  56.834  1.00  0.00     0.118 C 
HETATM    7  C   UNL     1       8.700  27.561  56.863  1.00  0.00     0.066 C 
HETATM    8  C   UNL     1       8.563  28.762  57.820  1.00  0.00     0.221 C 
HETATM    9  C   UNL     1       5.184  29.766  57.106  1.00  0.00     0.115 A 
HETATM   10 CL   UNL     1       3.616  29.600  56.476  1.00  0.00    -0.077 Cl
HETATM   11  H   UNL     1       5.439  27.133  56.188  1.00  0.00     0.162 HD
ENDROOT
BRANCH   1  12
HETATM   12  C   UNL     1       5.036  32.082  58.285  1.00  0.00     0.273 C 
HETATM   13  N   UNL     1       4.876  32.984  57.255  1.00  0.00    -0.353 N 
HETATM   14  H   UNL     1       5.096  32.636  56.323  1.00  0.00     0.162 HD
HETATM   15  O   UNL     1       4.644  32.297  59.427  1.00  0.00    -0.266 OA
BRANCH  13  16
HETATM   16  C   UNL     1       4.046  34.166  57.373  1.00  0.00     0.149 C 
BRANCH  16  17
HETATM   17  C   UNL     1       2.882  34.134  56.385  1.00  0.00     0.186 C 
BRANCH  17  18
HETATM   18  O   UNL     1       2.393  32.794  56.277  1.00  0.00    -0.394 OA
HETATM   19  C   UNL     1       1.801  32.556  55.007  1.00  0.00     0.201 C 
ENDBRANCH  17  18
ENDBRANCH  16  17
ENDBRANCH  13  16
ENDBRANCH   1  12
BRANCH   8  20
HETATM   20  C   UNL     1       9.728  29.707  57.620  1.00  0.00     0.409 C 
HETATM   21  F   UNL     1       9.505  30.601  56.633  1.00  0.00    -0.169 F 
HETATM   22  F   UNL     1      10.065  30.384  58.738  1.00  0.00    -0.169 F 
HETATM   23  F   UNL     1      10.833  28.997  57.262  1.00  0.00    -0.169 F 
ENDBRANCH   8  20
BRANCH   6  24
HETATM   24  C   UNL     1       7.517  25.575  55.871  1.00  0.00    -0.035 A 
HETATM   25  C   UNL     1       7.874  24.289  56.311  1.00  0.00     0.011 A 
HETATM   26  C   UNL     1       7.951  23.222  55.412  1.00  0.00     0.024 A 
HETATM   27  C   UNL     1       7.664  23.429  54.066  1.00  0.00     0.034 A 
HETATM   28 CL   UNL     1       7.755  22.116  52.958  1.00  0.00    -0.084 Cl
HETATM   29  C   UNL     1       7.298  24.694  53.612  1.00  0.00     0.024 A 
HETATM   30  C   UNL     1       7.224  25.762  54.510  1.00  0.00     0.011 A 
ENDBRANCH   6  24
TORSDOF 6
ENDMDL
MODEL 10
REMARK VINA RESULT:      -7.4      6.247      9.845
REMARK  6 active torsions:
REMARK  status: ('A' for Active; 'I' for Inactive)
REMARK    1  A    between atoms: O_2  and  C_3 
REMARK    2  A    between atoms: C_3  and  C_4 
REMARK    3  A    between atoms: C_4  and  N_5 
REMARK       I    between atoms: N_5  and  C_6 
REMARK    4  A    between atoms: C_6  and  C_7 
REMARK    5  A    between atoms: C_12  and  C_13 
REMARK    6  A    between atoms: C_21  and  C_22 
ROOT
HETATM    1  C   UNL     1       5.650  31.981  58.778  1.00  0.00     0.170 A 
HETATM    2  N   UNL     1       6.845  31.527  59.232  1.00  0.00    -0.163 NA
HETATM    3  N   UNL     1       7.130  30.495  58.422  1.00  0.00    -0.238 N 
HETATM    4  C   UNL     1       6.119  30.186  57.550  1.00  0.00     0.145 A 
HETATM    5  N   UNL     1       6.203  29.100  56.738  1.00  0.00    -0.365 N 
HETATM    6  C   UNL     1       7.169  28.051  57.048  1.00  0.00     0.118 C 
HETATM    7  C   UNL     1       8.503  28.702  57.431  1.00  0.00     0.066 C 
HETATM    8  C   UNL     1       8.314  29.673  58.613  1.00  0.00     0.221 C 
HETATM    9  C   UNL     1       5.163  31.160  57.723  1.00  0.00     0.115 A 
HETATM   10 CL   UNL     1       3.699  31.303  56.876  1.00  0.00    -0.077 Cl
HETATM   11  H   UNL     1       5.356  28.779  56.264  1.00  0.00     0.162 HD
ENDROOT
BRANCH   1  12
HETATM   12  C   UNL     1       5.015  33.166  59.376  1.00  0.00     0.273 C 
HETATM   13  N   UNL     1       4.960  33.119  60.753  1.00  0.00    -0.353 N 
HETATM   14  H   UNL     1       5.488  32.366  61.191  1.00  0.00     0.162 HD
HETATM   15  O   UNL     1       4.582  34.110  58.723  1.00  0.00    -0.266 OA
BRANCH  13  16
HETATM   16  C   UNL     1       4.586  34.262  61.560  1.00  0.00     0.149 C 
BRANCH  16  17
HETATM   17  C   UNL     1       5.792  34.852  62.288  1.00  0.00     0.186 C 
BRANCH  17  18
HETATM   18  O   UNL     1       5.345  35.539  63.461  1.00  0.00    -0.394 OA
HETATM   19  C   UNL     1       5.702  36.914  63.428  1.00  0.00     0.201 C 
ENDBRANCH  17  18
ENDBRANCH  16  17
ENDBRANCH  13  16
ENDBRANCH   1  12
BRANCH   8  20
HETATM   20  C   UNL     1       9.563  30.509  58.788  1.00  0.00     0.409 C 
HETATM   21  F   UNL     1       9.850  30.746  60.087  1.00  0.00    -0.169 F 
HETATM   22  F   UNL     1      10.655  29.969  58.205  1.00  0.00    -0.169 F 
HETATM   23  F   UNL     1       9.384  31.723  58.200  1.00  0.00    -0.169 F 
ENDBRANCH   8  20
BRANCH   6  24
HETATM   24  C   UNL     1       7.336  27.117  55.865  1.00  0.00    -0.035 A 
HETATM   25  C   UNL     1       7.408  25.722  56.031  1.00  0.00     0.011 A 
HETATM   26  C   UNL     1       7.541  24.877  54.927  1.00  0.00     0.024 A 
HETATM   27  C   UNL     1       7.594  25.417  53.645  1.00  0.00     0.034 A 
HETATM   28 CL   UNL     1       7.754  24.377  52.283  1.00  0.00    -0.084 Cl
HETATM   29  C   UNL     1       7.513  26.794  53.458  1.00  0.00     0.024 A 
HETATM   30  C   UNL     1       7.384  27.641  54.563  1.00  0.00     0.011 A 
ENDBRANCH   6  24
TORSDOF 6
ENDMDL
