MODEL 1
REMARK VINA RESULT:     -10.9      0.000      0.000
REMARK  6 active torsions:
REMARK  status: ('A' for Active; 'I' for Inactive)
REMARK    1  A    between atoms: C_4  and  N_5 
REMARK       I    between atoms: N_5  and  C_6 
REMARK       I    between atoms: C_6  and  N_7 
REMARK    2  A    between atoms: N_7  and  C_8 
REMARK    3  A    between atoms: C_11  and  C_12 
REMARK    4  A    between atoms: C_12  and  C_13 
REMARK       I    between atoms: C_13  and  N_14 
REMARK    5  A    between atoms: N_14  and  C_15 
REMARK    6  A    between atoms: C_17  and  C_18 
ROOT
HETATM    1  C   UNL     1       8.223  29.288  57.760  1.00  0.00     0.174 A 
HETATM    2  S   UNL     1       9.756  29.772  57.190  1.00  0.00    -0.062 SA
HETATM    3  C   UNL     1       9.311  29.253  55.613  1.00  0.00     0.081 A 
HETATM    4  C   UNL     1       8.020  28.757  55.628  1.00  0.00     0.052 A 
HETATM    5  N   UNL     1       7.409  28.782  56.872  1.00  0.00    -0.228 NA
ENDROOT
BRANCH   4   6
HETATM    6  C   UNL     1       7.232  28.226  54.476  1.00  0.00     0.163 C 
BRANCH   6   7
HETATM    7  C   UNL     1       6.913  26.742  54.604  1.00  0.00     0.227 C 
HETATM    8  N   UNL     1       7.880  25.904  54.075  1.00  0.00    -0.327 N 
HETATM    9  H   UNL     1       8.627  26.365  53.546  1.00  0.00     0.169 HD
HETATM   10  O   UNL     1       5.892  26.384  55.187  1.00  0.00    -0.273 OA
BRANCH   8  11
HETATM   11  C   UNL     1       7.900  24.497  54.080  1.00  0.00     0.035 A 
HETATM   12  C   UNL     1       8.076  23.723  55.231  1.00  0.00     0.048 A 
HETATM   13  C   UNL     1       8.093  22.319  55.158  1.00  0.00     0.088 A 
HETATM   14  C   UNL     1       7.914  21.708  53.921  1.00  0.00     0.131 A 
HETATM   15  F   UNL     1       7.908  20.372  53.827  1.00  0.00    -0.205 F 
HETATM   16  C   UNL     1       7.742  22.462  52.767  1.00  0.00     0.045 A 
HETATM   17  C   UNL     1       7.745  23.855  52.845  1.00  0.00     0.032 A 
BRANCH  13  18
HETATM   18  C   UNL     1       8.294  21.465  56.372  1.00  0.00     0.420 C 
HETATM   19  F   UNL     1       9.449  20.740  56.341  1.00  0.00    -0.166 F 
HETATM   20  F   UNL     1       8.350  22.189  57.524  1.00  0.00    -0.166 F 
HETATM   21  F   UNL     1       7.300  20.549  56.549  1.00  0.00    -0.166 F 
ENDBRANCH  13  18
ENDBRANCH   8  11
ENDBRANCH   6   7
ENDBRANCH   4   6
BRANCH   1  22
HETATM   22  N   UNL     1       8.002  29.521  59.087  1.00  0.00    -0.287 N 
HETATM   23  C   UNL     1       7.618  30.767  59.547  1.00  0.00     0.326 C 
HETATM   24  N   UNL     1       7.711  30.819  60.932  1.00  0.00    -0.309 N 
HETATM   25  O   UNL     1       7.251  31.689  58.829  1.00  0.00    -0.247 OA
HETATM   26  H   UNL     1       8.160  30.035  61.377  1.00  0.00     0.170 HD
HETATM   27  H   UNL     1       8.010  28.724  59.700  1.00  0.00     0.172 HD
BRANCH  24  28
HETATM   28  C   UNL     1       7.425  31.915  61.774  1.00  0.00     0.036 A 
HETATM   29  C   UNL     1       6.587  32.975  61.425  1.00  0.00     0.029 A 
HETATM   30  C   UNL     1       6.371  34.032  62.316  1.00  0.00     0.002 A 
HETATM   31  C   UNL     1       6.988  34.037  63.564  1.00  0.00     0.000 A 
HETATM   32  C   UNL     1       7.819  32.981  63.926  1.00  0.00     0.002 A 
HETATM   33  C   UNL     1       8.034  31.925  63.037  1.00  0.00     0.029 A 
ENDBRANCH  24  28
ENDBRANCH   1  22
TORSDOF 6
ENDMDL
MODEL 2
REMARK VINA RESULT:     -10.4      5.558     11.359
REMARK  6 active torsions:
REMARK  status: ('A' for Active; 'I' for Inactive)
REMARK    1  A    between atoms: C_4  and  N_5 
REMARK       I    between atoms: N_5  and  C_6 
REMARK       I    between atoms: C_6  and  N_7 
REMARK    2  A    between atoms: N_7  and  C_8 
REMARK    3  A    between atoms: C_11  and  C_12 
REMARK    4  A    between atoms: C_12  and  C_13 
REMARK       I    between atoms: C_13  and  N_14 
REMARK    5  A    between atoms: N_14  and  C_15 
REMARK    6  A    between atoms: C_17  and  C_18 
ROOT
HETATM    1  C   UNL     1       6.981  26.760  57.564  1.00  0.00     0.174 A 
HETATM    2  S   UNL     1       5.614  27.615  57.008  1.00  0.00    -0.062 SA
HETATM    3  C   UNL     1       6.363  29.086  57.488  1.00  0.00     0.081 A 
HETATM    4  C   UNL     1       7.609  28.824  58.029  1.00  0.00     0.052 A 
HETATM    5  N   UNL     1       7.948  27.481  58.067  1.00  0.00    -0.228 NA
ENDROOT
BRANCH   4   6
HETATM    6  C   UNL     1       8.605  29.809  58.547  1.00  0.00     0.163 C 
BRANCH   6   7
HETATM    7  C   UNL     1       7.965  30.956  59.318  1.00  0.00     0.227 C 
HETATM    8  N   UNL     1       7.922  30.766  60.689  1.00  0.00    -0.327 N 
HETATM    9  H   UNL     1       8.200  29.836  61.019  1.00  0.00     0.169 HD
HETATM   10  O   UNL     1       7.586  31.960  58.719  1.00  0.00    -0.273 OA
BRANCH   8  11
HETATM   11  C   UNL     1       7.441  31.654  61.670  1.00  0.00     0.035 A 
HETATM   12  C   UNL     1       6.178  32.252  61.629  1.00  0.00     0.048 A 
HETATM   13  C   UNL     1       5.768  33.136  62.643  1.00  0.00     0.088 A 
HETATM   14  C   UNL     1       6.634  33.394  63.701  1.00  0.00     0.131 A 
HETATM   15  F   UNL     1       6.261  34.219  64.688  1.00  0.00    -0.205 F 
HETATM   16  C   UNL     1       7.895  32.811  63.755  1.00  0.00     0.045 A 
HETATM   17  C   UNL     1       8.301  31.950  62.735  1.00  0.00     0.032 A 
BRANCH  13  18
HETATM   18  C   UNL     1       4.427  33.803  62.618  1.00  0.00     0.420 C 
HETATM   19  F   UNL     1       3.729  33.663  63.782  1.00  0.00    -0.166 F 
HETATM   20  F   UNL     1       4.508  35.145  62.402  1.00  0.00    -0.166 F 
HETATM   21  F   UNL     1       3.606  33.312  61.647  1.00  0.00    -0.166 F 
ENDBRANCH  13  18
ENDBRANCH   8  11
ENDBRANCH   6   7
ENDBRANCH   4   6
BRANCH   1  22
HETATM   22  N   UNL     1       6.928  25.408  57.384  1.00  0.00    -0.287 N 
HETATM   23  C   UNL     1       7.527  24.800  56.297  1.00  0.00     0.326 C 
HETATM   24  N   UNL     1       7.116  23.477  56.197  1.00  0.00    -0.309 N 
HETATM   25  O   UNL     1       8.306  25.357  55.533  1.00  0.00    -0.247 OA
HETATM   26  H   UNL     1       6.367  23.197  56.810  1.00  0.00     0.170 HD
HETATM   27  H   UNL     1       6.542  24.861  58.134  1.00  0.00     0.172 HD
BRANCH  24  28
HETATM   28  C   UNL     1       7.488  22.530  55.219  1.00  0.00     0.036 A 
HETATM   29  C   UNL     1       7.512  22.788  53.847  1.00  0.00     0.029 A 
HETATM   30  C   UNL     1       7.878  21.784  52.943  1.00  0.00     0.002 A 
HETATM   31  C   UNL     1       8.225  20.517  53.402  1.00  0.00     0.000 A 
HETATM   32  C   UNL     1       8.213  20.251  54.768  1.00  0.00     0.002 A 
HETATM   33  C   UNL     1       7.849  21.253  55.672  1.00  0.00     0.029 A 
ENDBRANCH  24  28
ENDBRANCH   1  22
TORSDOF 6
ENDMDL
MODEL 3
REMARK VINA RESULT:     -10.2      4.050      7.673
REMARK  6 active torsions:
REMARK  status: ('A' for Active; 'I' for Inactive)
REMARK    1  A    between atoms: C_4  and  N_5 
REMARK       I    between atoms: N_5  and  C_6 
REMARK       I    between atoms: C_6  and  N_7 
REMARK    2  A    between atoms: N_7  and  C_8 
REMARK    3  A    between atoms: C_11  and  C_12 
REMARK    4  A    between atoms: C_12  and  C_13 
REMARK       I    between atoms: C_13  and  N_14 
REMARK    5  A    between atoms: N_14  and  C_15 
REMARK    6  A    between atoms: C_17  and  C_18 
ROOT
HETATM    1  C   UNL     1       5.524  28.990  54.871  1.00  0.00     0.174 A 
HETATM    2  S   UNL     1       4.393  29.406  56.078  1.00  0.00    -0.062 SA
HETATM    3  C   UNL     1       5.474  28.804  57.271  1.00  0.00     0.081 A 
HETATM    4  C   UNL     1       6.628  28.338  56.667  1.00  0.00     0.052 A 
HETATM    5  N   UNL     1       6.639  28.450  55.285  1.00  0.00    -0.228 NA
ENDROOT
BRANCH   4   6
HETATM    6  C   UNL     1       7.834  27.755  57.328  1.00  0.00     0.163 C 
BRANCH   6   7
HETATM    7  C   UNL     1       7.946  26.248  57.145  1.00  0.00     0.227 C 
HETATM    8  N   UNL     1       7.675  25.809  55.860  1.00  0.00    -0.327 N 
HETATM    9  H   UNL     1       7.306  26.516  55.216  1.00  0.00     0.169 HD
HETATM   10  O   UNL     1       8.302  25.542  58.087  1.00  0.00    -0.273 OA
BRANCH   8  11
HETATM   11  C   UNL     1       7.738  24.493  55.366  1.00  0.00     0.035 A 
HETATM   12  C   UNL     1       7.937  23.365  56.169  1.00  0.00     0.048 A 
HETATM   13  C   UNL     1       7.996  22.079  55.603  1.00  0.00     0.088 A 
HETATM   14  C   UNL     1       7.835  21.943  54.228  1.00  0.00     0.131 A 
HETATM   15  F   UNL     1       7.870  20.728  53.665  1.00  0.00    -0.205 F 
HETATM   16  C   UNL     1       7.641  23.053  53.414  1.00  0.00     0.045 A 
HETATM   17  C   UNL     1       7.602  24.327  53.982  1.00  0.00     0.032 A 
BRANCH  13  18
HETATM   18  C   UNL     1       8.223  20.856  56.437  1.00  0.00     0.420 C 
HETATM   19  F   UNL     1       8.320  21.119  57.772  1.00  0.00    -0.166 F 
HETATM   20  F   UNL     1       7.220  19.942  56.319  1.00  0.00    -0.166 F 
HETATM   21  F   UNL     1       9.373  20.199  56.116  1.00  0.00    -0.166 F 
ENDBRANCH  13  18
ENDBRANCH   8  11
ENDBRANCH   6   7
ENDBRANCH   4   6
BRANCH   1  22
HETATM   22  N   UNL     1       5.149  29.307  53.597  1.00  0.00    -0.287 N 
HETATM   23  C   UNL     1       4.527  28.385  52.777  1.00  0.00     0.326 C 
HETATM   24  N   UNL     1       4.486  28.852  51.469  1.00  0.00    -0.309 N 
HETATM   25  O   UNL     1       4.080  27.309  53.156  1.00  0.00    -0.247 OA
HETATM   26  H   UNL     1       5.015  29.688  51.280  1.00  0.00     0.170 HD
HETATM   27  H   UNL     1       5.233  30.270  53.321  1.00  0.00     0.172 HD
BRANCH  24  28
HETATM   28  C   UNL     1       3.950  28.201  50.338  1.00  0.00     0.036 A 
HETATM   29  C   UNL     1       2.745  28.553  49.728  1.00  0.00     0.029 A 
HETATM   30  C   UNL     1       2.277  27.842  48.617  1.00  0.00     0.002 A 
HETATM   31  C   UNL     1       3.011  26.774  48.106  1.00  0.00     0.000 A 
HETATM   32  C   UNL     1       4.217  26.420  48.701  1.00  0.00     0.002 A 
HETATM   33  C   UNL     1       4.686  27.131  49.809  1.00  0.00     0.029 A 
ENDBRANCH  24  28
ENDBRANCH   1  22
TORSDOF 6
ENDMDL
MODEL 4
REMARK VINA RESULT:     -10.2      1.711      2.125
REMARK  6 active torsions:
REMARK  status: ('A' for Active; 'I' for Inactive)
REMARK    1  A    between atoms: C_4  and  N_5 
REMARK       I    between atoms: N_5  and  C_6 
REMARK       I    between atoms: C_6  and  N_7 
REMARK    2  A    between atoms: N_7  and  C_8 
REMARK    3  A    between atoms: C_11  and  C_12 
REMARK    4  A    between atoms: C_12  and  C_13 
REMARK       I    between atoms: C_13  and  N_14 
REMARK    5  A    between atoms: N_14  and  C_15 
REMARK    6  A    between atoms: C_17  and  C_18 
ROOT
HETATM    1  C   UNL     1       5.999  29.601  56.411  1.00  0.00     0.174 A 
HETATM    2  S   UNL     1       4.684  28.526  56.560  1.00  0.00    -0.062 SA
HETATM    3  C   UNL     1       5.301  27.619  55.236  1.00  0.00     0.081 A 
HETATM    4  C   UNL     1       6.474  28.193  54.779  1.00  0.00     0.052 A 
HETATM    5  N   UNL     1       6.860  29.335  55.465  1.00  0.00    -0.228 NA
ENDROOT
BRANCH   4   6
HETATM    6  C   UNL     1       7.350  27.719  53.667  1.00  0.00     0.163 C 
BRANCH   6   7
HETATM    7  C   UNL     1       7.185  26.235  53.367  1.00  0.00     0.227 C 
HETATM    8  N   UNL     1       7.966  25.406  54.154  1.00  0.00    -0.327 N 
HETATM    9  H   UNL     1       8.655  25.876  54.750  1.00  0.00     0.169 HD
HETATM   10  O   UNL     1       6.371  25.868  52.522  1.00  0.00    -0.273 OA
BRANCH   8  11
HETATM   11  C   UNL     1       8.004  23.999  54.154  1.00  0.00     0.035 A 
HETATM   12  C   UNL     1       8.116  23.220  55.309  1.00  0.00     0.048 A 
HETATM   13  C   UNL     1       8.155  21.817  55.231  1.00  0.00     0.088 A 
HETATM   14  C   UNL     1       8.063  21.211  53.981  1.00  0.00     0.131 A 
HETATM   15  F   UNL     1       8.081  19.876  53.880  1.00  0.00    -0.205 F 
HETATM   16  C   UNL     1       7.956  21.970  52.822  1.00  0.00     0.045 A 
HETATM   17  C   UNL     1       7.936  23.363  52.908  1.00  0.00     0.032 A 
BRANCH  13  18
HETATM   18  C   UNL     1       8.289  20.958  56.450  1.00  0.00     0.420 C 
HETATM   19  F   UNL     1       8.299  21.668  57.615  1.00  0.00    -0.166 F 
HETATM   20  F   UNL     1       7.273  20.060  56.579  1.00  0.00    -0.166 F 
HETATM   21  F   UNL     1       9.441  20.230  56.465  1.00  0.00    -0.166 F 
ENDBRANCH  13  18
ENDBRANCH   8  11
ENDBRANCH   6   7
ENDBRANCH   4   6
BRANCH   1  22
HETATM   22  N   UNL     1       6.026  30.610  57.331  1.00  0.00    -0.287 N 
HETATM   23  C   UNL     1       6.870  30.566  58.425  1.00  0.00     0.326 C 
HETATM   24  N   UNL     1       6.529  31.558  59.336  1.00  0.00    -0.309 N 
HETATM   25  O   UNL     1       7.783  29.762  58.566  1.00  0.00    -0.247 OA
HETATM   26  H   UNL     1       5.671  32.053  59.154  1.00  0.00     0.170 HD
HETATM   27  H   UNL     1       5.499  31.438  57.118  1.00  0.00     0.172 HD
BRANCH  24  28
HETATM   28  C   UNL     1       7.137  31.831  60.581  1.00  0.00     0.036 A 
HETATM   29  C   UNL     1       8.516  31.846  60.793  1.00  0.00     0.029 A 
HETATM   30  C   UNL     1       9.035  32.110  62.066  1.00  0.00     0.002 A 
HETATM   31  C   UNL     1       8.180  32.363  63.135  1.00  0.00     0.000 A 
HETATM   32  C   UNL     1       6.804  32.360  62.933  1.00  0.00     0.002 A 
HETATM   33  C   UNL     1       6.285  32.098  61.662  1.00  0.00     0.029 A 
ENDBRANCH  24  28
ENDBRANCH   1  22
TORSDOF 6
ENDMDL
MODEL 5
REMARK VINA RESULT:      -9.9      5.668     11.150
REMARK  6 active torsions:
REMARK  status: ('A' for Active; 'I' for Inactive)
REMARK    1  A    between atoms: C_4  and  N_5 
REMARK       I    between atoms: N_5  and  C_6 
REMARK       I    between atoms: C_6  and  N_7 
REMARK    2  A    between atoms: N_7  and  C_8 
REMARK    3  A    between atoms: C_11  and  C_12 
REMARK    4  A    between atoms: C_12  and  C_13 
REMARK       I    between atoms: C_13  and  N_14 
REMARK    5  A    between atoms: N_14  and  C_15 
REMARK    6  A    between atoms: C_17  and  C_18 
ROOT
HETATM    1  C   UNL     1       7.087  27.406  57.036  1.00  0.00     0.174 A 
HETATM    2  S   UNL     1       6.290  28.561  56.067  1.00  0.00    -0.062 SA
HETATM    3  C   UNL     1       7.240  29.796  56.793  1.00  0.00     0.081 A 
HETATM    4  C   UNL     1       8.107  29.241  57.716  1.00  0.00     0.052 A 
HETATM    5  N   UNL     1       8.004  27.864  57.846  1.00  0.00    -0.228 NA
ENDROOT
BRANCH   4   6
HETATM    6  C   UNL     1       9.124  29.945  58.554  1.00  0.00     0.163 C 
BRANCH   6   7
HETATM    7  C   UNL     1       8.587  31.212  59.204  1.00  0.00     0.227 C 
HETATM    8  N   UNL     1       7.500  31.008  60.038  1.00  0.00    -0.327 N 
HETATM    9  H   UNL     1       7.100  30.064  60.024  1.00  0.00     0.169 HD
HETATM   10  O   UNL     1       9.149  32.288  59.006  1.00  0.00    -0.273 OA
BRANCH   8  11
HETATM   11  C   UNL     1       6.815  31.961  60.813  1.00  0.00     0.035 A 
HETATM   12  C   UNL     1       7.101  32.228  62.155  1.00  0.00     0.048 A 
HETATM   13  C   UNL     1       6.367  33.192  62.870  1.00  0.00     0.088 A 
HETATM   14  C   UNL     1       5.360  33.892  62.214  1.00  0.00     0.131 A 
HETATM   15  F   UNL     1       4.657  34.827  62.866  1.00  0.00    -0.205 F 
HETATM   16  C   UNL     1       5.059  33.637  60.881  1.00  0.00     0.045 A 
HETATM   17  C   UNL     1       5.780  32.665  60.185  1.00  0.00     0.032 A 
BRANCH  13  18
HETATM   18  C   UNL     1       6.642  33.488  64.313  1.00  0.00     0.420 C 
HETATM   19  F   UNL     1       7.696  32.786  64.819  1.00  0.00    -0.166 F 
HETATM   20  F   UNL     1       6.936  34.799  64.537  1.00  0.00    -0.166 F 
HETATM   21  F   UNL     1       5.590  33.191  65.127  1.00  0.00    -0.166 F 
ENDBRANCH  13  18
ENDBRANCH   8  11
ENDBRANCH   6   7
ENDBRANCH   4   6
BRANCH   1  22
HETATM   22  N   UNL     1       6.699  26.113  56.828  1.00  0.00    -0.287 N 
HETATM   23  C   UNL     1       7.577  25.166  56.336  1.00  0.00     0.326 C 
HETATM   24  N   UNL     1       6.890  24.016  55.969  1.00  0.00    -0.309 N 
HETATM   25  O   UNL     1       8.788  25.328  56.238  1.00  0.00    -0.247 OA
HETATM   26  H   UNL     1       5.885  24.079  55.975  1.00  0.00     0.170 HD
HETATM   27  H   UNL     1       5.788  25.849  57.161  1.00  0.00     0.172 HD
BRANCH  24  28
HETATM   28  C   UNL     1       7.424  22.834  55.412  1.00  0.00     0.036 A 
HETATM   29  C   UNL     1       7.969  21.790  56.161  1.00  0.00     0.029 A 
HETATM   30  C   UNL     1       8.493  20.659  55.525  1.00  0.00     0.002 A 
HETATM   31  C   UNL     1       8.475  20.561  54.137  1.00  0.00     0.000 A 
HETATM   32  C   UNL     1       7.927  21.592  53.380  1.00  0.00     0.002 A 
HETATM   33  C   UNL     1       7.402  22.722  54.014  1.00  0.00     0.029 A 
ENDBRANCH  24  28
ENDBRANCH   1  22
TORSDOF 6
ENDMDL
MODEL 6
REMARK VINA RESULT:      -9.9      1.610      2.681
REMARK  6 active torsions:
REMARK  status: ('A' for Active; 'I' for Inactive)
REMARK    1  A    between atoms: C_4  and  N_5 
REMARK       I    between atoms: N_5  and  C_6 
REMARK       I    between atoms: C_6  and  N_7 
REMARK    2  A    between atoms: N_7  and  C_8 
REMARK    3  A    between atoms: C_11  and  C_12 
REMARK    4  A    between atoms: C_12  and  C_13 
REMARK       I    between atoms: C_13  and  N_14 
REMARK    5  A    between atoms: N_14  and  C_15 
REMARK    6  A    between atoms: C_17  and  C_18 
ROOT
HETATM    1  C   UNL     1       8.023  30.933  58.617  1.00  0.00     0.174 A 
HETATM    2  S   UNL     1       9.697  30.708  58.379  1.00  0.00    -0.062 SA
HETATM    3  C   UNL     1       9.351  29.382  57.342  1.00  0.00     0.081 A 
HETATM    4  C   UNL     1       7.982  29.209  57.239  1.00  0.00     0.052 A 
HETATM    5  N   UNL     1       7.233  30.110  57.982  1.00  0.00    -0.228 NA
ENDROOT
BRANCH   4   6
HETATM    6  C   UNL     1       7.247  28.195  56.426  1.00  0.00     0.163 C 
BRANCH   6   7
HETATM    7  C   UNL     1       7.608  26.762  56.792  1.00  0.00     0.227 C 
HETATM    8  N   UNL     1       7.504  25.864  55.743  1.00  0.00    -0.327 N 
HETATM    9  H   UNL     1       7.076  26.228  54.886  1.00  0.00     0.169 HD
HETATM   10  O   UNL     1       8.003  26.500  57.926  1.00  0.00    -0.273 OA
BRANCH   8  11
HETATM   11  C   UNL     1       7.810  24.490  55.748  1.00  0.00     0.035 A 
HETATM   12  C   UNL     1       7.834  23.691  54.602  1.00  0.00     0.048 A 
HETATM   13  C   UNL     1       8.142  22.321  54.684  1.00  0.00     0.088 A 
HETATM   14  C   UNL     1       8.441  21.774  55.928  1.00  0.00     0.131 A 
HETATM   15  F   UNL     1       8.755  20.477  56.033  1.00  0.00    -0.205 F 
HETATM   16  C   UNL     1       8.418  22.553  57.079  1.00  0.00     0.045 A 
HETATM   17  C   UNL     1       8.093  23.907  56.990  1.00  0.00     0.032 A 
BRANCH  13  18
HETATM   18  C   UNL     1       8.161  21.438  53.475  1.00  0.00     0.420 C 
HETATM   19  F   UNL     1       7.297  20.385  53.558  1.00  0.00    -0.166 F 
HETATM   20  F   UNL     1       7.820  22.099  52.333  1.00  0.00    -0.166 F 
HETATM   21  F   UNL     1       9.382  20.882  53.240  1.00  0.00    -0.166 F 
ENDBRANCH  13  18
ENDBRANCH   8  11
ENDBRANCH   6   7
ENDBRANCH   4   6
BRANCH   1  22
HETATM   22  N   UNL     1       7.692  31.985  59.423  1.00  0.00    -0.287 N 
HETATM   23  C   UNL     1       7.556  31.832  60.789  1.00  0.00     0.326 C 
HETATM   24  N   UNL     1       6.967  32.961  61.344  1.00  0.00    -0.309 N 
HETATM   25  O   UNL     1       7.903  30.838  61.414  1.00  0.00    -0.247 OA
HETATM   26  H   UNL     1       6.606  33.640  60.693  1.00  0.00     0.170 HD
HETATM   27  H   UNL     1       7.671  32.897  59.000  1.00  0.00     0.172 HD
BRANCH  24  28
HETATM   28  C   UNL     1       6.645  33.188  62.700  1.00  0.00     0.036 A 
HETATM   29  C   UNL     1       7.578  33.186  63.738  1.00  0.00     0.029 A 
HETATM   30  C   UNL     1       7.169  33.403  65.058  1.00  0.00     0.002 A 
HETATM   31  C   UNL     1       5.827  33.626  65.352  1.00  0.00     0.000 A 
HETATM   32  C   UNL     1       4.890  33.638  64.324  1.00  0.00     0.002 A 
HETATM   33  C   UNL     1       5.297  33.423  63.004  1.00  0.00     0.029 A 
ENDBRANCH  24  28
ENDBRANCH   1  22
TORSDOF 6
ENDMDL
MODEL 7
REMARK VINA RESULT:      -9.7      2.042      3.203
REMARK  6 active torsions:
REMARK  status: ('A' for Active; 'I' for Inactive)
REMARK    1  A    between atoms: C_4  and  N_5 
REMARK       I    between atoms: N_5  and  C_6 
REMARK       I    between atoms: C_6  and  N_7 
REMARK    2  A    between atoms: N_7  and  C_8 
REMARK    3  A    between atoms: C_11  and  C_12 
REMARK    4  A    between atoms: C_12  and  C_13 
REMARK       I    between atoms: C_13  and  N_14 
REMARK    5  A    between atoms: N_14  and  C_15 
REMARK    6  A    between atoms: C_17  and  C_18 
ROOT
HETATM    1  C   UNL     1       6.069  29.300  55.366  1.00  0.00     0.174 A 
HETATM    2  S   UNL     1       4.447  29.087  55.848  1.00  0.00    -0.062 SA
HETATM    3  C   UNL     1       4.221  27.998  54.537  1.00  0.00     0.081 A 
HETATM    4  C   UNL     1       5.402  27.864  53.829  1.00  0.00     0.052 A 
HETATM    5  N   UNL     1       6.454  28.622  54.318  1.00  0.00    -0.228 NA
ENDROOT
BRANCH   4   6
HETATM    6  C   UNL     1       5.659  27.002  52.636  1.00  0.00     0.163 C 
BRANCH   6   7
HETATM    7  C   UNL     1       6.023  25.570  53.002  1.00  0.00     0.227 C 
HETATM    8  N   UNL     1       7.084  25.460  53.885  1.00  0.00    -0.327 N 
HETATM    9  H   UNL     1       7.585  26.331  54.090  1.00  0.00     0.169 HD
HETATM   10  O   UNL     1       5.358  24.637  52.557  1.00  0.00    -0.273 OA
BRANCH   8  11
HETATM   11  C   UNL     1       7.624  24.288  54.446  1.00  0.00     0.035 A 
HETATM   12  C   UNL     1       7.700  23.064  53.773  1.00  0.00     0.048 A 
HETATM   13  C   UNL     1       8.247  21.930  54.401  1.00  0.00     0.088 A 
HETATM   14  C   UNL     1       8.729  22.049  55.700  1.00  0.00     0.131 A 
HETATM   15  F   UNL     1       9.271  20.990  56.315  1.00  0.00    -0.205 F 
HETATM   16  C   UNL     1       8.657  23.257  56.385  1.00  0.00     0.045 A 
HETATM   17  C   UNL     1       8.096  24.372  55.762  1.00  0.00     0.032 A 
BRANCH  13  18
HETATM   18  C   UNL     1       8.328  20.604  53.710  1.00  0.00     0.420 C 
HETATM   19  F   UNL     1       8.477  19.553  54.567  1.00  0.00    -0.166 F 
HETATM   20  F   UNL     1       7.215  20.321  52.978  1.00  0.00    -0.166 F 
HETATM   21  F   UNL     1       9.381  20.516  52.849  1.00  0.00    -0.166 F 
ENDBRANCH  13  18
ENDBRANCH   8  11
ENDBRANCH   6   7
ENDBRANCH   4   6
BRANCH   1  22
HETATM   22  N   UNL     1       6.801  30.134  56.161  1.00  0.00    -0.287 N 
HETATM   23  C   UNL     1       7.036  29.843  57.491  1.00  0.00     0.326 C 
HETATM   24  N   UNL     1       7.568  30.950  58.141  1.00  0.00    -0.309 N 
HETATM   25  O   UNL     1       6.801  28.762  58.017  1.00  0.00    -0.247 OA
HETATM   26  H   UNL     1       7.574  31.811  57.618  1.00  0.00     0.170 HD
HETATM   27  H   UNL     1       7.264  30.905  55.711  1.00  0.00     0.172 HD
BRANCH  24  28
HETATM   28  C   UNL     1       7.927  31.061  59.501  1.00  0.00     0.036 A 
HETATM   29  C   UNL     1       9.082  30.507  60.055  1.00  0.00     0.029 A 
HETATM   30  C   UNL     1       9.354  30.651  61.420  1.00  0.00     0.002 A 
HETATM   31  C   UNL     1       8.475  31.351  62.242  1.00  0.00     0.000 A 
HETATM   32  C   UNL     1       7.325  31.915  61.699  1.00  0.00     0.002 A 
HETATM   33  C   UNL     1       7.053  31.773  60.335  1.00  0.00     0.029 A 
ENDBRANCH  24  28
ENDBRANCH   1  22
TORSDOF 6
ENDMDL
MODEL 8
REMARK VINA RESULT:      -9.7      4.692      9.864
REMARK  6 active torsions:
REMARK  status: ('A' for Active; 'I' for Inactive)
REMARK    1  A    between atoms: C_4  and  N_5 
REMARK       I    between atoms: N_5  and  C_6 
REMARK       I    between atoms: C_6  and  N_7 
REMARK    2  A    between atoms: N_7  and  C_8 
REMARK    3  A    between atoms: C_11  and  C_12 
REMARK    4  A    between atoms: C_12  and  C_13 
REMARK       I    between atoms: C_13  and  N_14 
REMARK    5  A    between atoms: N_14  and  C_15 
REMARK    6  A    between atoms: C_17  and  C_18 
ROOT
HETATM    1  C   UNL     1       5.964  27.068  52.467  1.00  0.00     0.174 A 
HETATM    2  S   UNL     1       5.173  27.236  50.966  1.00  0.00    -0.062 SA
HETATM    3  C   UNL     1       4.220  28.502  51.632  1.00  0.00     0.081 A 
HETATM    4  C   UNL     1       4.578  28.716  52.951  1.00  0.00     0.052 A 
HETATM    5  N   UNL     1       5.582  27.880  53.416  1.00  0.00    -0.228 NA
ENDROOT
BRANCH   4   6
HETATM    6  C   UNL     1       4.025  29.732  53.895  1.00  0.00     0.163 C 
BRANCH   6   7
HETATM    7  C   UNL     1       4.550  29.575  55.316  1.00  0.00     0.227 C 
HETATM    8  N   UNL     1       5.822  30.084  55.512  1.00  0.00    -0.327 N 
HETATM    9  H   UNL     1       6.316  30.386  54.666  1.00  0.00     0.169 HD
HETATM   10  O   UNL     1       3.833  29.076  56.182  1.00  0.00    -0.273 OA
BRANCH   8  11
HETATM   11  C   UNL     1       6.557  30.134  56.711  1.00  0.00     0.035 A 
HETATM   12  C   UNL     1       6.384  31.113  57.693  1.00  0.00     0.048 A 
HETATM   13  C   UNL     1       7.162  31.104  58.865  1.00  0.00     0.088 A 
HETATM   14  C   UNL     1       8.098  30.090  59.041  1.00  0.00     0.131 A 
HETATM   15  F   UNL     1       8.840  30.047  60.155  1.00  0.00    -0.205 F 
HETATM   16  C   UNL     1       8.287  29.111  58.073  1.00  0.00     0.045 A 
HETATM   17  C   UNL     1       7.524  29.139  56.905  1.00  0.00     0.032 A 
BRANCH  13  18
HETATM   18  C   UNL     1       7.008  32.148  59.927  1.00  0.00     0.420 C 
HETATM   19  F   UNL     1       6.062  33.086  59.633  1.00  0.00    -0.166 F 
HETATM   20  F   UNL     1       6.641  31.628  61.131  1.00  0.00    -0.166 F 
HETATM   21  F   UNL     1       8.153  32.852  60.151  1.00  0.00    -0.166 F 
ENDBRANCH  13  18
ENDBRANCH   8  11
ENDBRANCH   6   7
ENDBRANCH   4   6
BRANCH   1  22
HETATM   22  N   UNL     1       6.945  26.118  52.498  1.00  0.00    -0.287 N 
HETATM   23  C   UNL     1       6.711  24.854  53.005  1.00  0.00     0.326 C 
HETATM   24  N   UNL     1       7.909  24.171  53.169  1.00  0.00    -0.309 N 
HETATM   25  O   UNL     1       5.601  24.409  53.273  1.00  0.00    -0.247 OA
HETATM   26  H   UNL     1       8.749  24.710  53.040  1.00  0.00     0.170 HD
HETATM   27  H   UNL     1       7.807  26.335  52.028  1.00  0.00     0.172 HD
BRANCH  24  28
HETATM   28  C   UNL     1       8.094  22.865  53.674  1.00  0.00     0.036 A 
HETATM   29  C   UNL     1       7.953  21.703  52.914  1.00  0.00     0.029 A 
HETATM   30  C   UNL     1       8.139  20.446  53.499  1.00  0.00     0.002 A 
HETATM   31  C   UNL     1       8.470  20.340  54.847  1.00  0.00     0.000 A 
HETATM   32  C   UNL     1       8.621  21.492  55.612  1.00  0.00     0.002 A 
HETATM   33  C   UNL     1       8.437  22.749  55.028  1.00  0.00     0.029 A 
ENDBRANCH  24  28
ENDBRANCH   1  22
TORSDOF 6
ENDMDL
MODEL 9
REMARK VINA RESULT:      -9.6      6.196     11.439
REMARK  6 active torsions:
REMARK  status: ('A' for Active; 'I' for Inactive)
REMARK    1  A    between atoms: C_4  and  N_5 
REMARK       I    between atoms: N_5  and  C_6 
REMARK       I    between atoms: C_6  and  N_7 
REMARK    2  A    between atoms: N_7  and  C_8 
REMARK    3  A    between atoms: C_11  and  C_12 
REMARK    4  A    between atoms: C_12  and  C_13 
REMARK       I    between atoms: C_13  and  N_14 
REMARK    5  A    between atoms: N_14  and  C_15 
REMARK    6  A    between atoms: C_17  and  C_18 
ROOT
HETATM    1  C   UNL     1       8.235  28.977  57.457  1.00  0.00     0.174 A 
HETATM    2  S   UNL     1       9.500  29.831  56.697  1.00  0.00    -0.062 SA
HETATM    3  C   UNL     1       9.860  30.592  58.196  1.00  0.00     0.081 A 
HETATM    4  C   UNL     1       8.998  30.134  59.175  1.00  0.00     0.052 A 
HETATM    5  N   UNL     1       8.067  29.207  58.732  1.00  0.00    -0.228 NA
ENDROOT
BRANCH   4   6
HETATM    6  C   UNL     1       8.973  30.510  60.620  1.00  0.00     0.163 C 
BRANCH   6   7
HETATM    7  C   UNL     1       7.935  31.577  60.941  1.00  0.00     0.227 C 
HETATM    8  N   UNL     1       7.108  31.264  62.006  1.00  0.00    -0.327 N 
HETATM    9  H   UNL     1       7.194  30.310  62.372  1.00  0.00     0.169 HD
HETATM   10  O   UNL     1       7.921  32.628  60.304  1.00  0.00    -0.273 OA
BRANCH   8  11
HETATM   11  C   UNL     1       6.091  32.056  62.572  1.00  0.00     0.035 A 
HETATM   12  C   UNL     1       6.190  32.680  63.818  1.00  0.00     0.048 A 
HETATM   13  C   UNL     1       5.128  33.452  64.324  1.00  0.00     0.088 A 
HETATM   14  C   UNL     1       3.979  33.599  63.554  1.00  0.00     0.131 A 
HETATM   15  F   UNL     1       2.960  34.343  64.004  1.00  0.00    -0.205 F 
HETATM   16  C   UNL     1       3.862  32.982  62.314  1.00  0.00     0.045 A 
HETATM   17  C   UNL     1       4.913  32.203  61.828  1.00  0.00     0.032 A 
BRANCH  13  18
HETATM   18  C   UNL     1       5.201  34.120  65.662  1.00  0.00     0.420 C 
HETATM   19  F   UNL     1       6.325  33.802  66.368  1.00  0.00    -0.166 F 
HETATM   20  F   UNL     1       5.199  35.480  65.575  1.00  0.00    -0.166 F 
HETATM   21  F   UNL     1       4.161  33.791  66.479  1.00  0.00    -0.166 F 
ENDBRANCH  13  18
ENDBRANCH   8  11
ENDBRANCH   6   7
ENDBRANCH   4   6
BRANCH   1  22
HETATM   22  N   UNL     1       7.556  28.112  56.648  1.00  0.00    -0.287 N 
HETATM   23  C   UNL     1       7.938  26.790  56.524  1.00  0.00     0.326 C 
HETATM   24  N   UNL     1       7.269  26.192  55.463  1.00  0.00    -0.309 N 
HETATM   25  O   UNL     1       8.753  26.232  57.248  1.00  0.00    -0.247 OA
HETATM   26  H   UNL     1       6.736  26.808  54.870  1.00  0.00     0.170 HD
HETATM   27  H   UNL     1       6.698  28.442  56.242  1.00  0.00     0.172 HD
BRANCH  24  28
HETATM   28  C   UNL     1       7.394  24.863  55.004  1.00  0.00     0.036 A 
HETATM   29  C   UNL     1       7.265  23.737  55.818  1.00  0.00     0.029 A 
HETATM   30  C   UNL     1       7.421  22.454  55.283  1.00  0.00     0.002 A 
HETATM   31  C   UNL     1       7.704  22.285  53.930  1.00  0.00     0.000 A 
HETATM   32  C   UNL     1       7.827  23.400  53.108  1.00  0.00     0.002 A 
HETATM   33  C   UNL     1       7.669  24.683  53.641  1.00  0.00     0.029 A 
ENDBRANCH  24  28
ENDBRANCH   1  22
TORSDOF 6
ENDMDL
MODEL 10
REMARK VINA RESULT:      -9.5      2.334      3.425
REMARK  6 active torsions:
REMARK  status: ('A' for Active; 'I' for Inactive)
REMARK    1  A    between atoms: C_4  and  N_5 
REMARK       I    between atoms: N_5  and  C_6 
REMARK       I    between atoms: C_6  and  N_7 
REMARK    2  A    between atoms: N_7  and  C_8 
REMARK    3  A    between atoms: C_11  and  C_12 
REMARK    4  A    between atoms: C_12  and  C_13 
REMARK       I    between atoms: C_13  and  N_14 
REMARK    5  A    between atoms: N_14  and  C_15 
REMARK    6  A    between atoms: C_17  and  C_18 
ROOT
HETATM    1  C   UNL     1       7.261  31.771  59.486  1.00  0.00     0.174 A 
HETATM    2  S   UNL     1       5.834  31.668  58.558  1.00  0.00    -0.062 SA
HETATM    3  C   UNL     1       6.516  30.349  57.693  1.00  0.00     0.081 A 
HETATM    4  C   UNL     1       7.780  30.071  58.179  1.00  0.00     0.052 A 
HETATM    5  N   UNL     1       8.195  30.901  59.209  1.00  0.00    -0.228 NA
ENDROOT
BRANCH   4   6
HETATM    6  C   UNL     1       8.714  28.993  57.734  1.00  0.00     0.163 C 
BRANCH   6   7
HETATM    7  C   UNL     1       7.994  27.771  57.180  1.00  0.00     0.227 C 
HETATM    8  N   UNL     1       7.820  27.787  55.807  1.00  0.00    -0.327 N 
HETATM    9  H   UNL     1       8.070  28.663  55.337  1.00  0.00     0.169 HD
HETATM   10  O   UNL     1       7.669  26.858  57.936  1.00  0.00    -0.273 OA
BRANCH   8  11
HETATM   11  C   UNL     1       7.240  26.793  54.998  1.00  0.00     0.035 A 
HETATM   12  C   UNL     1       7.831  25.552  54.741  1.00  0.00     0.048 A 
HETATM   13  C   UNL     1       7.195  24.608  53.915  1.00  0.00     0.088 A 
HETATM   14  C   UNL     1       5.954  24.922  53.370  1.00  0.00     0.131 A 
HETATM   15  F   UNL     1       5.318  24.034  52.594  1.00  0.00    -0.205 F 
HETATM   16  C   UNL     1       5.353  26.151  53.612  1.00  0.00     0.045 A 
HETATM   17  C   UNL     1       6.000  27.089  54.417  1.00  0.00     0.032 A 
BRANCH  13  18
HETATM   18  C   UNL     1       7.812  23.278  53.610  1.00  0.00     0.420 C 
HETATM   19  F   UNL     1       7.977  23.049  52.275  1.00  0.00    -0.166 F 
HETATM   20  F   UNL     1       9.049  23.131  54.160  1.00  0.00    -0.166 F 
HETATM   21  F   UNL     1       7.068  22.230  54.064  1.00  0.00    -0.166 F 
ENDBRANCH  13  18
ENDBRANCH   8  11
ENDBRANCH   6   7
ENDBRANCH   4   6
BRANCH   1  22
HETATM   22  N   UNL     1       7.253  32.738  60.451  1.00  0.00    -0.287 N 
HETATM   23  C   UNL     1       6.854  32.464  61.744  1.00  0.00     0.326 C 
HETATM   24  N   UNL     1       6.683  33.644  62.457  1.00  0.00    -0.309 N 
HETATM   25  O   UNL     1       6.674  31.338  62.191  1.00  0.00    -0.247 OA
HETATM   26  H   UNL     1       6.730  34.497  61.922  1.00  0.00     0.170 HD
HETATM   27  H   UNL     1       7.664  33.625  60.213  1.00  0.00     0.172 HD
BRANCH  24  28
HETATM   28  C   UNL     1       6.268  33.789  63.799  1.00  0.00     0.036 A 
HETATM   29  C   UNL     1       4.941  33.956  64.195  1.00  0.00     0.029 A 
HETATM   30  C   UNL     1       4.619  34.109  65.548  1.00  0.00     0.002 A 
HETATM   31  C   UNL     1       5.620  34.095  66.516  1.00  0.00     0.000 A 
HETATM   32  C   UNL     1       6.946  33.921  66.132  1.00  0.00     0.002 A 
HETATM   33  C   UNL     1       7.269  33.766  64.781  1.00  0.00     0.029 A 
ENDBRANCH  24  28
ENDBRANCH   1  22
TORSDOF 6
ENDMDL
