MODEL 1
REMARK VINA RESULT:     -10.7      0.000      0.000
REMARK  7 active torsions:
REMARK  status: ('A' for Active; 'I' for Inactive)
REMARK    1  A    between atoms: C_6  and  N_7 
REMARK    2  A    between atoms: C_10  and  C_11 
REMARK       I    between atoms: C_11  and  N_12 
REMARK    3  A    between atoms: N_12  and  C_13 
REMARK    4  A    between atoms: C_16  and  C_17 
REMARK    5  A    between atoms: C_17  and  N_18 
REMARK    6  A    between atoms: C_21  and  C_22 
REMARK       I    between atoms: C_22  and  N_23 
REMARK    7  A    between atoms: C_31  and  C_32 
ROOT
HETATM    1  C   UNL     1       6.690  30.724  57.867  1.00  0.00     0.278 C 
HETATM    2  N   UNL     1       6.959  29.393  58.128  1.00  0.00    -0.322 N 
HETATM    3  O   UNL     1       6.155  31.169  56.859  1.00  0.00    -0.265 OA
HETATM    4  H   UNL     1       7.450  29.212  59.001  1.00  0.00     0.169 HD
ENDROOT
BRANCH   2   5
HETATM    5  C   UNL     1       6.646  28.284  57.319  1.00  0.00     0.035 A 
HETATM    6  C   UNL     1       5.345  27.839  57.085  1.00  0.00     0.030 A 
HETATM    7  C   UNL     1       5.103  26.727  56.272  1.00  0.00     0.011 A 
HETATM    8  C   UNL     1       6.161  26.048  55.655  1.00  0.00    -0.032 A 
HETATM    9  C   UNL     1       7.469  26.485  55.899  1.00  0.00     0.011 A 
HETATM   10  C   UNL     1       7.707  27.588  56.729  1.00  0.00     0.030 A 
BRANCH   8  11
HETATM   11  C   UNL     1       5.890  24.875  54.751  1.00  0.00     0.273 C 
BRANCH  11  12
HETATM   12  N   UNL     1       7.124  24.028  54.495  1.00  0.00    -0.066 N 
HETATM   13  H   UNL     1       7.925  24.665  54.582  1.00  0.00     0.280 HD
HETATM   14  C   UNL     1       7.299  22.940  55.542  1.00  0.00     0.249 C 
HETATM   15  C   UNL     1       8.619  22.198  55.314  1.00  0.00     0.103 C 
HETATM   16  C   UNL     1       8.709  21.656  53.885  1.00  0.00     0.017 C 
HETATM   17  C   UNL     1       8.452  22.750  52.853  1.00  0.00     0.029 C 
HETATM   18  C   UNL     1       7.131  23.467  53.097  1.00  0.00     0.235 C 
BRANCH  15  19
HETATM   19  C   UNL     1       8.707  21.080  56.334  1.00  0.00     0.221 C 
HETATM   20  N   UNL     1       9.262  19.917  55.900  1.00  0.00    -0.370 N 
HETATM   21  H   UNL     1       9.360  19.163  56.573  1.00  0.00     0.159 HD
HETATM   22  H   UNL     1       9.699  19.787  54.997  1.00  0.00     0.159 HD
HETATM   23  O   UNL     1       8.311  21.206  57.486  1.00  0.00    -0.273 OA
ENDBRANCH  15  19
ENDBRANCH  11  12
ENDBRANCH   8  11
ENDBRANCH   2   5
BRANCH   1  24
HETATM   24  C   UNL     1       7.109  31.609  58.947  1.00  0.00     0.175 C 
HETATM   25  N   UNL     1       8.399  32.024  59.115  1.00  0.00    -0.152 NA
HETATM   26  N   UNL     1       8.442  32.783  60.198  1.00  0.00     0.011 NA
HETATM   27  N   UNL     1       7.217  32.766  60.797  1.00  0.00    -0.231 N 
HETATM   28  C   UNL     1       6.320  32.184  59.927  1.00  0.00     0.174 C 
BRANCH  27  29
HETATM   29  C   UNL     1       7.081  33.252  62.126  1.00  0.00     0.058 A 
HETATM   30  C   UNL     1       6.308  34.403  62.353  1.00  0.00     0.073 A 
HETATM   31  C   UNL     1       6.175  34.907  63.644  1.00  0.00     0.118 A 
HETATM   32  C   UNL     1       6.807  34.301  64.720  1.00  0.00     0.042 A 
HETATM   33  F   UNL     1       5.423  35.996  63.849  1.00  0.00    -0.206 F 
HETATM   34  C   UNL     1       7.597  33.177  64.504  1.00  0.00     0.005 A 
HETATM   35  C   UNL     1       7.741  32.655  63.211  1.00  0.00     0.031 A 
ENDBRANCH  27  29
BRANCH  28  36
HETATM   36  C   UNL     1       4.867  32.254  60.031  1.00  0.00     0.436 C 
HETATM   37  F   UNL     1       4.422  31.961  61.279  1.00  0.00    -0.165 F 
HETATM   38  F   UNL     1       4.395  33.498  59.768  1.00  0.00    -0.165 F 
HETATM   39  F   UNL     1       4.257  31.399  59.178  1.00  0.00    -0.165 F 
ENDBRANCH  28  36
ENDBRANCH   1  24
TORSDOF 7
ENDMDL
MODEL 2
REMARK VINA RESULT:     -10.0      1.694      2.144
REMARK  7 active torsions:
REMARK  status: ('A' for Active; 'I' for Inactive)
REMARK    1  A    between atoms: C_6  and  N_7 
REMARK    2  A    between atoms: C_10  and  C_11 
REMARK       I    between atoms: C_11  and  N_12 
REMARK    3  A    between atoms: N_12  and  C_13 
REMARK    4  A    between atoms: C_16  and  C_17 
REMARK    5  A    between atoms: C_17  and  N_18 
REMARK    6  A    between atoms: C_21  and  C_22 
REMARK       I    between atoms: C_22  and  N_23 
REMARK    7  A    between atoms: C_31  and  C_32 
ROOT
HETATM    1  C   UNL     1       8.074  30.705  59.043  1.00  0.00     0.278 C 
HETATM    2  N   UNL     1       7.111  29.718  58.943  1.00  0.00    -0.322 N 
HETATM    3  O   UNL     1       8.861  31.039  58.166  1.00  0.00    -0.265 OA
HETATM    4  H   UNL     1       6.573  29.547  59.789  1.00  0.00     0.169 HD
ENDROOT
BRANCH   2   5
HETATM    5  C   UNL     1       6.814  28.926  57.817  1.00  0.00     0.035 A 
HETATM    6  C   UNL     1       7.717  28.031  57.240  1.00  0.00     0.030 A 
HETATM    7  C   UNL     1       7.360  27.275  56.120  1.00  0.00     0.011 A 
HETATM    8  C   UNL     1       6.080  27.383  55.562  1.00  0.00    -0.032 A 
HETATM    9  C   UNL     1       5.177  28.291  56.130  1.00  0.00     0.011 A 
HETATM   10  C   UNL     1       5.546  29.058  57.243  1.00  0.00     0.030 A 
BRANCH   8  11
HETATM   11  C   UNL     1       5.691  26.540  54.378  1.00  0.00     0.273 C 
BRANCH  11  12
HETATM   12  N   UNL     1       6.805  25.617  53.915  1.00  0.00    -0.066 N 
HETATM   13  H   UNL     1       7.677  26.041  54.251  1.00  0.00     0.280 HD
HETATM   14  C   UNL     1       6.703  24.238  54.544  1.00  0.00     0.249 C 
HETATM   15  C   UNL     1       7.914  23.388  54.148  1.00  0.00     0.103 C 
HETATM   16  C   UNL     1       8.073  23.328  52.627  1.00  0.00     0.017 C 
HETATM   17  C   UNL     1       8.093  24.723  52.009  1.00  0.00     0.029 C 
HETATM   18  C   UNL     1       6.876  25.544  52.412  1.00  0.00     0.235 C 
BRANCH  15  19
HETATM   19  C   UNL     1       7.725  22.004  54.737  1.00  0.00     0.221 C 
HETATM   20  N   UNL     1       7.765  20.969  53.857  1.00  0.00    -0.370 N 
HETATM   21  H   UNL     1       7.672  20.029  54.231  1.00  0.00     0.159 HD
HETATM   22  H   UNL     1       8.006  21.052  52.878  1.00  0.00     0.159 HD
HETATM   23  O   UNL     1       7.553  21.816  55.935  1.00  0.00    -0.273 OA
ENDBRANCH  15  19
ENDBRANCH  11  12
ENDBRANCH   8  11
ENDBRANCH   2   5
BRANCH   1  24
HETATM   24  C   UNL     1       8.077  31.363  60.344  1.00  0.00     0.175 C 
HETATM   25  N   UNL     1       9.124  31.285  61.217  1.00  0.00    -0.152 NA
HETATM   26  N   UNL     1       8.793  31.960  62.307  1.00  0.00     0.011 NA
HETATM   27  N   UNL     1       7.499  32.374  62.192  1.00  0.00    -0.231 N 
HETATM   28  C   UNL     1       7.094  32.166  60.892  1.00  0.00     0.174 C 
BRANCH  27  29
HETATM   29  C   UNL     1       6.813  32.854  63.342  1.00  0.00     0.058 A 
HETATM   30  C   UNL     1       7.562  33.338  64.427  1.00  0.00     0.073 A 
HETATM   31  C   UNL     1       6.914  33.798  65.569  1.00  0.00     0.118 A 
HETATM   32  C   UNL     1       5.530  33.772  65.669  1.00  0.00     0.042 A 
HETATM   33  F   UNL     1       7.639  34.272  66.591  1.00  0.00    -0.206 F 
HETATM   34  C   UNL     1       4.778  33.269  64.611  1.00  0.00     0.005 A 
HETATM   35  C   UNL     1       5.415  32.804  63.453  1.00  0.00     0.031 A 
ENDBRANCH  27  29
BRANCH  28  36
HETATM   36  C   UNL     1       5.912  32.751  60.266  1.00  0.00     0.436 C 
HETATM   37  F   UNL     1       5.631  33.989  60.744  1.00  0.00    -0.165 F 
HETATM   38  F   UNL     1       6.071  32.913  58.929  1.00  0.00    -0.165 F 
HETATM   39  F   UNL     1       4.810  31.989  60.456  1.00  0.00    -0.165 F 
ENDBRANCH  28  36
ENDBRANCH   1  24
TORSDOF 7
ENDMDL
MODEL 3
REMARK VINA RESULT:     -10.0      3.951     11.405
REMARK  7 active torsions:
REMARK  status: ('A' for Active; 'I' for Inactive)
REMARK    1  A    between atoms: C_6  and  N_7 
REMARK    2  A    between atoms: C_10  and  C_11 
REMARK       I    between atoms: C_11  and  N_12 
REMARK    3  A    between atoms: N_12  and  C_13 
REMARK    4  A    between atoms: C_16  and  C_17 
REMARK    5  A    between atoms: C_17  and  N_18 
REMARK    6  A    between atoms: C_21  and  C_22 
REMARK       I    between atoms: C_22  and  N_23 
REMARK    7  A    between atoms: C_31  and  C_32 
ROOT
HETATM    1  C   UNL     1       5.742  26.607  56.432  1.00  0.00     0.278 C 
HETATM    2  N   UNL     1       6.358  27.818  56.172  1.00  0.00    -0.322 N 
HETATM    3  O   UNL     1       4.936  26.384  57.326  1.00  0.00    -0.265 OA
HETATM    4  H   UNL     1       7.034  27.807  55.412  1.00  0.00     0.169 HD
ENDROOT
BRANCH   2   5
HETATM    5  C   UNL     1       6.165  29.037  56.850  1.00  0.00     0.035 A 
HETATM    6  C   UNL     1       4.985  29.779  56.787  1.00  0.00     0.030 A 
HETATM    7  C   UNL     1       4.859  30.985  57.483  1.00  0.00     0.011 A 
HETATM    8  C   UNL     1       5.907  31.466  58.278  1.00  0.00    -0.032 A 
HETATM    9  C   UNL     1       7.098  30.730  58.330  1.00  0.00     0.011 A 
HETATM   10  C   UNL     1       7.225  29.531  57.617  1.00  0.00     0.030 A 
BRANCH   8  11
HETATM   11  C   UNL     1       5.752  32.746  59.053  1.00  0.00     0.273 C 
BRANCH  11  12
HETATM   12  N   UNL     1       5.337  32.519  60.496  1.00  0.00    -0.066 N 
HETATM   13  H   UNL     1       5.213  31.504  60.595  1.00  0.00     0.280 HD
HETATM   14  C   UNL     1       6.421  32.938  61.475  1.00  0.00     0.249 C 
HETATM   15  C   UNL     1       6.009  32.572  62.904  1.00  0.00     0.103 C 
HETATM   16  C   UNL     1       4.642  33.165  63.254  1.00  0.00     0.017 C 
HETATM   17  C   UNL     1       3.587  32.797  62.214  1.00  0.00     0.029 C 
HETATM   18  C   UNL     1       4.018  33.177  60.805  1.00  0.00     0.235 C 
BRANCH  15  19
HETATM   19  C   UNL     1       7.085  33.079  63.843  1.00  0.00     0.221 C 
HETATM   20  N   UNL     1       6.672  33.916  64.832  1.00  0.00    -0.370 N 
HETATM   21  H   UNL     1       7.369  34.245  65.493  1.00  0.00     0.159 HD
HETATM   22  H   UNL     1       5.706  34.135  65.036  1.00  0.00     0.159 HD
HETATM   23  O   UNL     1       8.262  32.756  63.733  1.00  0.00    -0.273 OA
ENDBRANCH  15  19
ENDBRANCH  11  12
ENDBRANCH   8  11
ENDBRANCH   2   5
BRANCH   1  24
HETATM   24  C   UNL     1       6.139  25.558  55.501  1.00  0.00     0.175 C 
HETATM   25  N   UNL     1       5.503  25.333  54.314  1.00  0.00    -0.152 NA
HETATM   26  N   UNL     1       6.086  24.298  53.732  1.00  0.00     0.011 NA
HETATM   27  N   UNL     1       7.015  23.779  54.585  1.00  0.00    -0.231 N 
HETATM   28  C   UNL     1       7.190  24.668  55.623  1.00  0.00     0.174 C 
BRANCH  27  29
HETATM   29  C   UNL     1       7.563  22.493  54.325  1.00  0.00     0.058 A 
HETATM   30  C   UNL     1       7.705  21.587  55.388  1.00  0.00     0.073 A 
HETATM   31  C   UNL     1       8.254  20.329  55.161  1.00  0.00     0.118 A 
HETATM   32  C   UNL     1       8.686  19.951  53.897  1.00  0.00     0.042 A 
HETATM   33  F   UNL     1       8.369  19.468  56.181  1.00  0.00    -0.206 F 
HETATM   34  C   UNL     1       8.576  20.850  52.841  1.00  0.00     0.005 A 
HETATM   35  C   UNL     1       8.024  22.121  53.052  1.00  0.00     0.031 A 
ENDBRANCH  27  29
BRANCH  28  36
HETATM   36  C   UNL     1       8.300  24.661  56.570  1.00  0.00     0.436 C 
HETATM   37  F   UNL     1       9.429  24.126  56.041  1.00  0.00    -0.165 F 
HETATM   38  F   UNL     1       8.647  25.913  56.959  1.00  0.00    -0.165 F 
HETATM   39  F   UNL     1       8.008  23.955  57.687  1.00  0.00    -0.165 F 
ENDBRANCH  28  36
ENDBRANCH   1  24
TORSDOF 7
ENDMDL
MODEL 4
REMARK VINA RESULT:      -9.9      4.163     11.603
REMARK  7 active torsions:
REMARK  status: ('A' for Active; 'I' for Inactive)
REMARK    1  A    between atoms: C_6  and  N_7 
REMARK    2  A    between atoms: C_10  and  C_11 
REMARK       I    between atoms: C_11  and  N_12 
REMARK    3  A    between atoms: N_12  and  C_13 
REMARK    4  A    between atoms: C_16  and  C_17 
REMARK    5  A    between atoms: C_17  and  N_18 
REMARK    6  A    between atoms: C_21  and  C_22 
REMARK       I    between atoms: C_22  and  N_23 
REMARK    7  A    between atoms: C_31  and  C_32 
ROOT
HETATM    1  C   UNL     1       5.932  26.660  56.535  1.00  0.00     0.278 C 
HETATM    2  N   UNL     1       6.806  27.732  56.525  1.00  0.00    -0.322 N 
HETATM    3  O   UNL     1       4.940  26.544  57.242  1.00  0.00    -0.265 OA
HETATM    4  H   UNL     1       7.603  27.637  55.900  1.00  0.00     0.169 HD
ENDROOT
BRANCH   2   5
HETATM    5  C   UNL     1       6.719  28.911  57.289  1.00  0.00     0.035 A 
HETATM    6  C   UNL     1       7.745  29.377  58.113  1.00  0.00     0.030 A 
HETATM    7  C   UNL     1       7.594  30.556  58.849  1.00  0.00     0.011 A 
HETATM    8  C   UNL     1       6.416  31.309  58.760  1.00  0.00    -0.032 A 
HETATM    9  C   UNL     1       5.380  30.836  57.944  1.00  0.00     0.011 A 
HETATM   10  C   UNL     1       5.531  29.645  57.223  1.00  0.00     0.030 A 
BRANCH   8  11
HETATM   11  C   UNL     1       6.274  32.596  59.527  1.00  0.00     0.273 C 
BRANCH  11  12
HETATM   12  N   UNL     1       4.828  32.951  59.826  1.00  0.00    -0.066 N 
HETATM   13  H   UNL     1       4.273  32.140  59.530  1.00  0.00     0.280 HD
HETATM   14  C   UNL     1       4.583  33.147  61.312  1.00  0.00     0.249 C 
HETATM   15  C   UNL     1       3.091  33.376  61.574  1.00  0.00     0.103 C 
HETATM   16  C   UNL     1       2.555  34.538  60.733  1.00  0.00     0.017 C 
HETATM   17  C   UNL     1       2.883  34.359  59.254  1.00  0.00     0.029 C 
HETATM   18  C   UNL     1       4.371  34.140  59.021  1.00  0.00     0.235 C 
BRANCH  15  19
HETATM   19  C   UNL     1       2.913  33.641  63.055  1.00  0.00     0.221 C 
HETATM   20  N   UNL     1       1.645  33.904  63.468  1.00  0.00    -0.370 N 
HETATM   21  H   UNL     1       1.494  34.055  64.461  1.00  0.00     0.159 HD
HETATM   22  H   UNL     1       0.822  33.838  62.884  1.00  0.00     0.159 HD
HETATM   23  O   UNL     1       3.848  33.614  63.847  1.00  0.00    -0.273 OA
ENDBRANCH  15  19
ENDBRANCH  11  12
ENDBRANCH   8  11
ENDBRANCH   2   5
BRANCH   1  24
HETATM   24  C   UNL     1       6.297  25.622  55.578  1.00  0.00     0.175 C 
HETATM   25  N   UNL     1       5.674  25.466  54.374  1.00  0.00    -0.152 NA
HETATM   26  N   UNL     1       6.218  24.422  53.769  1.00  0.00     0.011 NA
HETATM   27  N   UNL     1       7.105  23.833  54.621  1.00  0.00    -0.231 N 
HETATM   28  C   UNL     1       7.302  24.679  55.691  1.00  0.00     0.174 C 
BRANCH  27  29
HETATM   29  C   UNL     1       7.597  22.531  54.330  1.00  0.00     0.058 A 
HETATM   30  C   UNL     1       7.721  21.602  55.375  1.00  0.00     0.073 A 
HETATM   31  C   UNL     1       8.216  20.327  55.117  1.00  0.00     0.118 A 
HETATM   32  C   UNL     1       8.609  19.954  53.840  1.00  0.00     0.042 A 
HETATM   33  F   UNL     1       8.315  19.445  56.121  1.00  0.00    -0.206 F 
HETATM   34  C   UNL     1       8.516  20.875  52.801  1.00  0.00     0.005 A 
HETATM   35  C   UNL     1       8.018  22.162  53.043  1.00  0.00     0.031 A 
ENDBRANCH  27  29
BRANCH  28  36
HETATM   36  C   UNL     1       8.392  24.590  56.656  1.00  0.00     0.436 C 
HETATM   37  F   UNL     1       8.085  23.796  57.713  1.00  0.00    -0.165 F 
HETATM   38  F   UNL     1       9.510  24.046  56.115  1.00  0.00    -0.165 F 
HETATM   39  F   UNL     1       8.729  25.803  57.152  1.00  0.00    -0.165 F 
ENDBRANCH  28  36
ENDBRANCH   1  24
TORSDOF 7
ENDMDL
MODEL 5
REMARK VINA RESULT:      -9.8      3.954     10.477
REMARK  7 active torsions:
REMARK  status: ('A' for Active; 'I' for Inactive)
REMARK    1  A    between atoms: C_6  and  N_7 
REMARK    2  A    between atoms: C_10  and  C_11 
REMARK       I    between atoms: C_11  and  N_12 
REMARK    3  A    between atoms: N_12  and  C_13 
REMARK    4  A    between atoms: C_16  and  C_17 
REMARK    5  A    between atoms: C_17  and  N_18 
REMARK    6  A    between atoms: C_21  and  C_22 
REMARK       I    between atoms: C_22  and  N_23 
REMARK    7  A    between atoms: C_31  and  C_32 
ROOT
HETATM    1  C   UNL     1       4.820  29.901  55.331  1.00  0.00     0.278 C 
HETATM    2  N   UNL     1       4.935  29.672  56.691  1.00  0.00    -0.322 N 
HETATM    3  O   UNL     1       4.566  30.973  54.799  1.00  0.00    -0.265 OA
HETATM    4  H   UNL     1       5.109  28.705  56.955  1.00  0.00     0.169 HD
ENDROOT
BRANCH   2   5
HETATM    5  C   UNL     1       4.819  30.617  57.728  1.00  0.00     0.035 A 
HETATM    6  C   UNL     1       3.663  30.794  58.489  1.00  0.00     0.030 A 
HETATM    7  C   UNL     1       3.613  31.754  59.505  1.00  0.00     0.011 A 
HETATM    8  C   UNL     1       4.731  32.546  59.796  1.00  0.00    -0.032 A 
HETATM    9  C   UNL     1       5.888  32.380  59.025  1.00  0.00     0.011 A 
HETATM   10  C   UNL     1       5.926  31.428  57.996  1.00  0.00     0.030 A 
BRANCH   8  11
HETATM   11  C   UNL     1       4.682  33.552  60.915  1.00  0.00     0.273 C 
BRANCH  11  12
HETATM   12  N   UNL     1       5.547  33.162  62.100  1.00  0.00    -0.066 N 
HETATM   13  H   UNL     1       4.955  32.575  62.699  1.00  0.00     0.280 HD
HETATM   14  C   UNL     1       6.742  32.321  61.685  1.00  0.00     0.249 C 
HETATM   15  C   UNL     1       7.509  31.849  62.923  1.00  0.00     0.103 C 
HETATM   16  C   UNL     1       7.906  33.030  63.811  1.00  0.00     0.017 C 
HETATM   17  C   UNL     1       6.703  33.906  64.150  1.00  0.00     0.029 C 
HETATM   18  C   UNL     1       5.962  34.367  62.903  1.00  0.00     0.235 C 
BRANCH  15  19
HETATM   19  C   UNL     1       8.728  31.081  62.451  1.00  0.00     0.221 C 
HETATM   20  N   UNL     1       8.758  29.757  62.758  1.00  0.00    -0.370 N 
HETATM   21  H   UNL     1       9.550  29.215  62.427  1.00  0.00     0.159 HD
HETATM   22  H   UNL     1       7.995  29.245  63.181  1.00  0.00     0.159 HD
HETATM   23  O   UNL     1       9.637  31.610  61.823  1.00  0.00    -0.273 OA
ENDBRANCH  15  19
ENDBRANCH  11  12
ENDBRANCH   8  11
ENDBRANCH   2   5
BRANCH   1  24
HETATM   24  C   UNL     1       5.047  28.702  54.534  1.00  0.00     0.175 C 
HETATM   25  N   UNL     1       4.085  28.136  53.747  1.00  0.00    -0.152 NA
HETATM   26  N   UNL     1       4.602  27.053  53.191  1.00  0.00     0.011 NA
HETATM   27  N   UNL     1       5.849  26.848  53.703  1.00  0.00    -0.231 N 
HETATM   28  C   UNL     1       6.215  27.973  54.409  1.00  0.00     0.174 C 
BRANCH  27  29
HETATM   29  C   UNL     1       6.493  25.596  53.499  1.00  0.00     0.058 A 
HETATM   30  C   UNL     1       6.447  24.634  54.520  1.00  0.00     0.073 A 
HETATM   31  C   UNL     1       7.084  23.408  54.350  1.00  0.00     0.118 A 
HETATM   32  C   UNL     1       7.786  23.119  53.188  1.00  0.00     0.042 A 
HETATM   33  F   UNL     1       7.019  22.492  55.325  1.00  0.00    -0.206 F 
HETATM   34  C   UNL     1       7.862  24.076  52.181  1.00  0.00     0.005 A 
HETATM   35  C   UNL     1       7.225  25.314  52.335  1.00  0.00     0.031 A 
ENDBRANCH  27  29
BRANCH  28  36
HETATM   36  C   UNL     1       7.570  28.303  54.840  1.00  0.00     0.436 C 
HETATM   37  F   UNL     1       8.053  27.421  55.750  1.00  0.00    -0.165 F 
HETATM   38  F   UNL     1       8.453  28.277  53.812  1.00  0.00    -0.165 F 
HETATM   39  F   UNL     1       7.636  29.533  55.402  1.00  0.00    -0.165 F 
ENDBRANCH  28  36
ENDBRANCH   1  24
TORSDOF 7
ENDMDL
MODEL 6
REMARK VINA RESULT:      -9.7      4.072     11.470
REMARK  7 active torsions:
REMARK  status: ('A' for Active; 'I' for Inactive)
REMARK    1  A    between atoms: C_6  and  N_7 
REMARK    2  A    between atoms: C_10  and  C_11 
REMARK       I    between atoms: C_11  and  N_12 
REMARK    3  A    between atoms: N_12  and  C_13 
REMARK    4  A    between atoms: C_16  and  C_17 
REMARK    5  A    between atoms: C_17  and  N_18 
REMARK    6  A    between atoms: C_21  and  C_22 
REMARK       I    between atoms: C_22  and  N_23 
REMARK    7  A    between atoms: C_31  and  C_32 
ROOT
HETATM    1  C   UNL     1       7.344  27.921  56.306  1.00  0.00     0.278 C 
HETATM    2  N   UNL     1       6.529  28.305  57.354  1.00  0.00    -0.322 N 
HETATM    3  O   UNL     1       7.844  28.662  55.470  1.00  0.00    -0.265 OA
HETATM    4  H   UNL     1       6.169  27.545  57.926  1.00  0.00     0.169 HD
ENDROOT
BRANCH   2   5
HETATM    5  C   UNL     1       6.136  29.614  57.695  1.00  0.00     0.035 A 
HETATM    6  C   UNL     1       6.986  30.546  58.293  1.00  0.00     0.030 A 
HETATM    7  C   UNL     1       6.532  31.830  58.608  1.00  0.00     0.011 A 
HETATM    8  C   UNL     1       5.220  32.219  58.312  1.00  0.00    -0.032 A 
HETATM    9  C   UNL     1       4.361  31.280  57.725  1.00  0.00     0.011 A 
HETATM   10  C   UNL     1       4.816  29.989  57.427  1.00  0.00     0.030 A 
BRANCH   8  11
HETATM   11  C   UNL     1       4.749  33.614  58.622  1.00  0.00     0.273 C 
BRANCH  11  12
HETATM   12  N   UNL     1       3.822  33.674  59.823  1.00  0.00    -0.066 N 
HETATM   13  H   UNL     1       3.386  32.746  59.887  1.00  0.00     0.280 HD
HETATM   14  C   UNL     1       4.580  33.905  61.119  1.00  0.00     0.249 C 
HETATM   15  C   UNL     1       3.620  33.831  62.310  1.00  0.00     0.103 C 
HETATM   16  C   UNL     1       2.447  34.798  62.137  1.00  0.00     0.017 C 
HETATM   17  C   UNL     1       1.751  34.601  60.793  1.00  0.00     0.029 C 
HETATM   18  C   UNL     1       2.724  34.687  59.627  1.00  0.00     0.235 C 
BRANCH  15  19
HETATM   19  C   UNL     1       4.410  34.143  63.566  1.00  0.00     0.221 C 
HETATM   20  N   UNL     1       4.494  33.144  64.484  1.00  0.00    -0.370 N 
HETATM   21  H   UNL     1       5.043  33.318  65.320  1.00  0.00     0.159 HD
HETATM   22  H   UNL     1       4.159  32.200  64.343  1.00  0.00     0.159 HD
HETATM   23  O   UNL     1       4.952  35.225  63.752  1.00  0.00    -0.273 OA
ENDBRANCH  15  19
ENDBRANCH  11  12
ENDBRANCH   8  11
ENDBRANCH   2   5
BRANCH   1  24
HETATM   24  C   UNL     1       7.586  26.483  56.274  1.00  0.00     0.175 C 
HETATM   25  N   UNL     1       8.406  25.845  57.159  1.00  0.00    -0.152 NA
HETATM   26  N   UNL     1       8.432  24.562  56.835  1.00  0.00     0.011 NA
HETATM   27  N   UNL     1       7.730  24.386  55.679  1.00  0.00    -0.231 N 
HETATM   28  C   UNL     1       7.040  25.549  55.413  1.00  0.00     0.174 C 
BRANCH  27  29
HETATM   29  C   UNL     1       7.856  23.164  54.963  1.00  0.00     0.058 A 
HETATM   30  C   UNL     1       7.884  21.957  55.679  1.00  0.00     0.073 A 
HETATM   31  C   UNL     1       8.024  20.750  55.001  1.00  0.00     0.118 A 
HETATM   32  C   UNL     1       8.154  20.712  53.620  1.00  0.00     0.042 A 
HETATM   33  F   UNL     1       8.034  19.604  55.694  1.00  0.00    -0.206 F 
HETATM   34  C   UNL     1       8.155  21.905  52.902  1.00  0.00     0.005 A 
HETATM   35  C   UNL     1       8.014  23.129  53.569  1.00  0.00     0.031 A 
ENDBRANCH  27  29
BRANCH  28  36
HETATM   36  C   UNL     1       5.936  25.686  54.468  1.00  0.00     0.436 C 
HETATM   37  F   UNL     1       5.245  24.529  54.309  1.00  0.00    -0.165 F 
HETATM   38  F   UNL     1       5.020  26.595  54.882  1.00  0.00    -0.165 F 
HETATM   39  F   UNL     1       6.365  26.068  53.243  1.00  0.00    -0.165 F 
ENDBRANCH  28  36
ENDBRANCH   1  24
TORSDOF 7
ENDMDL
MODEL 7
REMARK VINA RESULT:      -9.5      2.313      3.027
REMARK  7 active torsions:
REMARK  status: ('A' for Active; 'I' for Inactive)
REMARK    1  A    between atoms: C_6  and  N_7 
REMARK    2  A    between atoms: C_10  and  C_11 
REMARK       I    between atoms: C_11  and  N_12 
REMARK    3  A    between atoms: N_12  and  C_13 
REMARK    4  A    between atoms: C_16  and  C_17 
REMARK    5  A    between atoms: C_17  and  N_18 
REMARK    6  A    between atoms: C_21  and  C_22 
REMARK       I    between atoms: C_22  and  N_23 
REMARK    7  A    between atoms: C_31  and  C_32 
ROOT
HETATM    1  C   UNL     1       5.270  31.003  57.811  1.00  0.00     0.278 C 
HETATM    2  N   UNL     1       5.304  29.636  58.018  1.00  0.00    -0.322 N 
HETATM    3  O   UNL     1       5.778  31.604  56.873  1.00  0.00    -0.265 OA
HETATM    4  H   UNL     1       4.864  29.316  58.878  1.00  0.00     0.169 HD
ENDROOT
BRANCH   2   5
HETATM    5  C   UNL     1       5.888  28.661  57.187  1.00  0.00     0.035 A 
HETATM    6  C   UNL     1       7.254  28.601  56.908  1.00  0.00     0.030 A 
HETATM    7  C   UNL     1       7.772  27.607  56.071  1.00  0.00     0.011 A 
HETATM    8  C   UNL     1       6.933  26.635  55.511  1.00  0.00    -0.032 A 
HETATM    9  C   UNL     1       5.559  26.702  55.779  1.00  0.00     0.011 A 
HETATM   10  C   UNL     1       5.044  27.711  56.604  1.00  0.00     0.030 A 
BRANCH   8  11
HETATM   11  C   UNL     1       7.501  25.547  54.641  1.00  0.00     0.273 C 
BRANCH  11  12
HETATM   12  N   UNL     1       7.530  24.193  55.327  1.00  0.00    -0.066 N 
HETATM   13  H   UNL     1       6.577  24.036  55.676  1.00  0.00     0.280 HD
HETATM   14  C   UNL     1       7.847  23.067  54.359  1.00  0.00     0.249 C 
HETATM   15  C   UNL     1       7.738  21.715  55.069  1.00  0.00     0.103 C 
HETATM   16  C   UNL     1       8.619  21.676  56.321  1.00  0.00     0.017 C 
HETATM   17  C   UNL     1       8.339  22.861  57.241  1.00  0.00     0.029 C 
HETATM   18  C   UNL     1       8.460  24.192  56.512  1.00  0.00     0.235 C 
BRANCH  15  19
HETATM   19  C   UNL     1       8.137  20.636  54.082  1.00  0.00     0.221 C 
HETATM   20  N   UNL     1       7.754  20.833  52.793  1.00  0.00    -0.370 N 
HETATM   21  H   UNL     1       8.035  20.140  52.106  1.00  0.00     0.159 HD
HETATM   22  H   UNL     1       7.321  21.677  52.442  1.00  0.00     0.159 HD
HETATM   23  O   UNL     1       8.772  19.642  54.412  1.00  0.00    -0.273 OA
ENDBRANCH  15  19
ENDBRANCH  11  12
ENDBRANCH   8  11
ENDBRANCH   2   5
BRANCH   1  24
HETATM   24  C   UNL     1       4.536  31.715  58.850  1.00  0.00     0.175 C 
HETATM   25  N   UNL     1       3.178  31.854  58.841  1.00  0.00    -0.152 NA
HETATM   26  N   UNL     1       2.838  32.576  59.897  1.00  0.00     0.011 NA
HETATM   27  N   UNL     1       3.972  33.002  60.523  1.00  0.00    -0.231 N 
HETATM   28  C   UNL     1       5.043  32.321  59.985  1.00  0.00     0.174 C 
BRANCH  27  29
HETATM   29  C   UNL     1       3.888  34.034  61.499  1.00  0.00     0.058 A 
HETATM   30  C   UNL     1       3.466  33.707  62.797  1.00  0.00     0.073 A 
HETATM   31  C   UNL     1       3.359  34.702  63.765  1.00  0.00     0.118 A 
HETATM   32  C   UNL     1       3.649  36.026  63.468  1.00  0.00     0.042 A 
HETATM   33  F   UNL     1       2.970  34.375  65.004  1.00  0.00    -0.206 F 
HETATM   34  C   UNL     1       4.042  36.366  62.177  1.00  0.00     0.005 A 
HETATM   35  C   UNL     1       4.156  35.376  61.191  1.00  0.00     0.031 A 
ENDBRANCH  27  29
BRANCH  28  36
HETATM   36  C   UNL     1       6.377  32.236  60.570  1.00  0.00     0.436 C 
HETATM   37  F   UNL     1       7.274  31.661  59.731  1.00  0.00    -0.165 F 
HETATM   38  F   UNL     1       6.887  33.458  60.856  1.00  0.00    -0.165 F 
HETATM   39  F   UNL     1       6.381  31.515  61.716  1.00  0.00    -0.165 F 
ENDBRANCH  28  36
ENDBRANCH   1  24
TORSDOF 7
ENDMDL
MODEL 8
REMARK VINA RESULT:      -9.4      2.390      2.999
REMARK  7 active torsions:
REMARK  status: ('A' for Active; 'I' for Inactive)
REMARK    1  A    between atoms: C_6  and  N_7 
REMARK    2  A    between atoms: C_10  and  C_11 
REMARK       I    between atoms: C_11  and  N_12 
REMARK    3  A    between atoms: N_12  and  C_13 
REMARK    4  A    between atoms: C_16  and  C_17 
REMARK    5  A    between atoms: C_17  and  N_18 
REMARK    6  A    between atoms: C_21  and  C_22 
REMARK       I    between atoms: C_22  and  N_23 
REMARK    7  A    between atoms: C_31  and  C_32 
ROOT
HETATM    1  C   UNL     1       5.304  31.728  58.336  1.00  0.00     0.278 C 
HETATM    2  N   UNL     1       4.875  30.439  58.074  1.00  0.00    -0.322 N 
HETATM    3  O   UNL     1       5.969  32.434  57.589  1.00  0.00    -0.265 OA
HETATM    4  H   UNL     1       4.367  29.988  58.832  1.00  0.00     0.169 HD
ENDROOT
BRANCH   2   5
HETATM    5  C   UNL     1       5.080  29.694  56.897  1.00  0.00     0.035 A 
HETATM    6  C   UNL     1       6.341  29.340  56.415  1.00  0.00     0.030 A 
HETATM    7  C   UNL     1       6.476  28.600  55.237  1.00  0.00     0.011 A 
HETATM    8  C   UNL     1       5.347  28.178  54.524  1.00  0.00    -0.032 A 
HETATM    9  C   UNL     1       4.080  28.544  54.998  1.00  0.00     0.011 A 
HETATM   10  C   UNL     1       3.952  29.301  56.170  1.00  0.00     0.030 A 
BRANCH   8  11
HETATM   11  C   UNL     1       5.498  27.351  53.275  1.00  0.00     0.273 C 
BRANCH  11  12
HETATM   12  N   UNL     1       6.632  26.345  53.365  1.00  0.00    -0.066 N 
HETATM   13  H   UNL     1       7.485  26.896  53.515  1.00  0.00     0.280 HD
HETATM   14  C   UNL     1       6.480  25.416  54.558  1.00  0.00     0.249 C 
HETATM   15  C   UNL     1       7.707  24.508  54.678  1.00  0.00     0.103 C 
HETATM   16  C   UNL     1       7.962  23.749  53.373  1.00  0.00     0.017 C 
HETATM   17  C   UNL     1       8.032  24.695  52.178  1.00  0.00     0.029 C 
HETATM   18  C   UNL     1       6.798  25.581  52.077  1.00  0.00     0.235 C 
BRANCH  15  19
HETATM   19  C   UNL     1       7.471  23.555  55.832  1.00  0.00     0.221 C 
HETATM   20  N   UNL     1       7.370  24.121  57.064  1.00  0.00    -0.370 N 
HETATM   21  H   UNL     1       7.181  23.506  57.851  1.00  0.00     0.159 HD
HETATM   22  H   UNL     1       7.342  25.116  57.243  1.00  0.00     0.159 HD
HETATM   23  O   UNL     1       7.368  22.345  55.677  1.00  0.00    -0.273 OA
ENDBRANCH  15  19
ENDBRANCH  11  12
ENDBRANCH   8  11
ENDBRANCH   2   5
BRANCH   1  24
HETATM   24  C   UNL     1       4.872  32.214  59.641  1.00  0.00     0.175 C 
HETATM   25  N   UNL     1       3.569  32.486  59.943  1.00  0.00    -0.152 NA
HETATM   26  N   UNL     1       3.526  32.937  61.186  1.00  0.00     0.011 NA
HETATM   27  N   UNL     1       4.802  33.070  61.650  1.00  0.00    -0.231 N 
HETATM   28  C   UNL     1       5.651  32.449  60.760  1.00  0.00     0.174 C 
BRANCH  27  29
HETATM   29  C   UNL     1       5.040  33.814  62.838  1.00  0.00     0.058 A 
HETATM   30  C   UNL     1       4.708  33.241  64.077  1.00  0.00     0.073 A 
HETATM   31  C   UNL     1       4.916  33.956  65.252  1.00  0.00     0.118 A 
HETATM   32  C   UNL     1       5.436  35.243  65.227  1.00  0.00     0.042 A 
HETATM   33  F   UNL     1       4.610  33.392  66.428  1.00  0.00    -0.206 F 
HETATM   34  C   UNL     1       5.743  35.831  64.004  1.00  0.00     0.005 A 
HETATM   35  C   UNL     1       5.541  35.124  62.811  1.00  0.00     0.031 A 
ENDBRANCH  27  29
BRANCH  28  36
HETATM   36  C   UNL     1       7.038  32.081  61.024  1.00  0.00     0.436 C 
HETATM   37  F   UNL     1       7.203  31.529  62.252  1.00  0.00    -0.165 F 
HETATM   38  F   UNL     1       7.494  31.150  60.150  1.00  0.00    -0.165 F 
HETATM   39  F   UNL     1       7.866  33.148  60.950  1.00  0.00    -0.165 F 
ENDBRANCH  28  36
ENDBRANCH   1  24
TORSDOF 7
ENDMDL
MODEL 9
REMARK VINA RESULT:      -9.4      4.035     11.433
REMARK  7 active torsions:
REMARK  status: ('A' for Active; 'I' for Inactive)
REMARK    1  A    between atoms: C_6  and  N_7 
REMARK    2  A    between atoms: C_10  and  C_11 
REMARK       I    between atoms: C_11  and  N_12 
REMARK    3  A    between atoms: N_12  and  C_13 
REMARK    4  A    between atoms: C_16  and  C_17 
REMARK    5  A    between atoms: C_17  and  N_18 
REMARK    6  A    between atoms: C_21  and  C_22 
REMARK       I    between atoms: C_22  and  N_23 
REMARK    7  A    between atoms: C_31  and  C_32 
ROOT
HETATM    1  C   UNL     1       9.045  29.602  57.731  1.00  0.00     0.278 C 
HETATM    2  N   UNL     1       7.961  30.030  58.477  1.00  0.00    -0.322 N 
HETATM    3  O   UNL     1      10.225  29.760  58.016  1.00  0.00    -0.265 OA
HETATM    4  H   UNL     1       7.050  29.848  58.063  1.00  0.00     0.169 HD
ENDROOT
BRANCH   2   5
HETATM    5  C   UNL     1       7.988  30.695  59.717  1.00  0.00     0.035 A 
HETATM    6  C   UNL     1       8.867  30.369  60.751  1.00  0.00     0.030 A 
HETATM    7  C   UNL     1       8.840  31.069  61.962  1.00  0.00     0.011 A 
HETATM    8  C   UNL     1       7.944  32.127  62.157  1.00  0.00    -0.032 A 
HETATM    9  C   UNL     1       7.051  32.446  61.126  1.00  0.00     0.011 A 
HETATM   10  C   UNL     1       7.071  31.730  59.922  1.00  0.00     0.030 A 
BRANCH   8  11
HETATM   11  C   UNL     1       7.945  32.899  63.449  1.00  0.00     0.273 C 
BRANCH  11  12
HETATM   12  N   UNL     1       6.559  33.363  63.863  1.00  0.00    -0.066 N 
HETATM   13  H   UNL     1       5.928  32.581  63.656  1.00  0.00     0.280 HD
HETATM   14  C   UNL     1       6.468  33.633  65.355  1.00  0.00     0.249 C 
HETATM   15  C   UNL     1       5.026  33.974  65.741  1.00  0.00     0.103 C 
HETATM   16  C   UNL     1       4.489  35.136  64.902  1.00  0.00     0.017 C 
HETATM   17  C   UNL     1       4.664  34.878  63.408  1.00  0.00     0.029 C 
HETATM   18  C   UNL     1       6.106  34.548  63.050  1.00  0.00     0.235 C 
BRANCH  15  19
HETATM   19  C   UNL     1       5.006  34.307  67.219  1.00  0.00     0.221 C 
HETATM   20  N   UNL     1       5.771  35.363  67.606  1.00  0.00    -0.370 N 
HETATM   21  H   UNL     1       5.751  35.625  68.587  1.00  0.00     0.159 HD
HETATM   22  H   UNL     1       6.259  35.984  66.974  1.00  0.00     0.159 HD
HETATM   23  O   UNL     1       4.339  33.675  68.029  1.00  0.00    -0.273 OA
ENDBRANCH  15  19
ENDBRANCH  11  12
ENDBRANCH   8  11
ENDBRANCH   2   5
BRANCH   1  24
HETATM   24  C   UNL     1       8.654  28.901  56.514  1.00  0.00     0.175 C 
HETATM   25  N   UNL     1       8.908  29.382  55.262  1.00  0.00    -0.152 NA
HETATM   26  N   UNL     1       8.397  28.529  54.389  1.00  0.00     0.011 NA
HETATM   27  N   UNL     1       7.714  27.562  55.067  1.00  0.00    -0.231 N 
HETATM   28  C   UNL     1       8.019  27.678  56.406  1.00  0.00     0.174 C 
BRANCH  27  29
HETATM   29  C   UNL     1       6.828  26.703  54.359  1.00  0.00     0.058 A 
HETATM   30  C   UNL     1       7.274  25.424  53.988  1.00  0.00     0.073 A 
HETATM   31  C   UNL     1       6.431  24.573  53.280  1.00  0.00     0.118 A 
HETATM   32  C   UNL     1       5.152  24.969  52.914  1.00  0.00     0.042 A 
HETATM   33  F   UNL     1       6.862  23.350  52.945  1.00  0.00    -0.206 F 
HETATM   34  C   UNL     1       4.710  26.244  53.253  1.00  0.00     0.005 A 
HETATM   35  C   UNL     1       5.545  27.114  53.967  1.00  0.00     0.031 A 
ENDBRANCH  27  29
BRANCH  28  36
HETATM   36  C   UNL     1       7.766  26.666  57.426  1.00  0.00     0.436 C 
HETATM   37  F   UNL     1       7.647  27.200  58.667  1.00  0.00    -0.165 F 
HETATM   38  F   UNL     1       6.603  26.003  57.210  1.00  0.00    -0.165 F 
HETATM   39  F   UNL     1       8.755  25.744  57.480  1.00  0.00    -0.165 F 
ENDBRANCH  28  36
ENDBRANCH   1  24
TORSDOF 7
ENDMDL
MODEL 10
REMARK VINA RESULT:      -9.3      3.542      4.659
REMARK  7 active torsions:
REMARK  status: ('A' for Active; 'I' for Inactive)
REMARK    1  A    between atoms: C_6  and  N_7 
REMARK    2  A    between atoms: C_10  and  C_11 
REMARK       I    between atoms: C_11  and  N_12 
REMARK    3  A    between atoms: N_12  and  C_13 
REMARK    4  A    between atoms: C_16  and  C_17 
REMARK    5  A    between atoms: C_17  and  N_18 
REMARK    6  A    between atoms: C_21  and  C_22 
REMARK       I    between atoms: C_22  and  N_23 
REMARK    7  A    between atoms: C_31  and  C_32 
ROOT
HETATM    1  C   UNL     1       6.650  31.843  59.407  1.00  0.00     0.278 C 
HETATM    2  N   UNL     1       6.050  30.736  58.835  1.00  0.00    -0.322 N 
HETATM    3  O   UNL     1       7.714  32.344  59.068  1.00  0.00    -0.265 OA
HETATM    4  H   UNL     1       5.185  30.434  59.276  1.00  0.00     0.169 HD
ENDROOT
BRANCH   2   5
HETATM    5  C   UNL     1       6.514  29.986  57.737  1.00  0.00     0.035 A 
HETATM    6  C   UNL     1       7.679  29.218  57.761  1.00  0.00     0.030 A 
HETATM    7  C   UNL     1       8.086  28.498  56.634  1.00  0.00     0.011 A 
HETATM    8  C   UNL     1       7.321  28.512  55.461  1.00  0.00    -0.032 A 
HETATM    9  C   UNL     1       6.158  29.293  55.430  1.00  0.00     0.011 A 
HETATM   10  C   UNL     1       5.765  30.027  56.557  1.00  0.00     0.030 A 
BRANCH   8  11
HETATM   11  C   UNL     1       7.746  27.706  54.264  1.00  0.00     0.273 C 
BRANCH  11  12
HETATM   12  N   UNL     1       6.591  26.973  53.603  1.00  0.00    -0.066 N 
HETATM   13  H   UNL     1       5.782  27.113  54.218  1.00  0.00     0.280 HD
HETATM   14  C   UNL     1       6.236  27.567  52.250  1.00  0.00     0.249 C 
HETATM   15  C   UNL     1       4.991  26.880  51.684  1.00  0.00     0.103 C 
HETATM   16  C   UNL     1       5.176  25.361  51.627  1.00  0.00     0.017 C 
HETATM   17  C   UNL     1       5.609  24.797  52.977  1.00  0.00     0.029 C 
HETATM   18  C   UNL     1       6.852  25.492  53.514  1.00  0.00     0.235 C 
BRANCH  15  19
HETATM   19  C   UNL     1       4.727  27.454  50.307  1.00  0.00     0.221 C 
HETATM   20  N   UNL     1       3.502  27.196  49.775  1.00  0.00    -0.370 N 
HETATM   21  H   UNL     1       3.290  27.595  48.866  1.00  0.00     0.159 HD
HETATM   22  H   UNL     1       2.743  26.744  50.266  1.00  0.00     0.159 HD
HETATM   23  O   UNL     1       5.556  28.120  49.700  1.00  0.00    -0.273 OA
ENDBRANCH  15  19
ENDBRANCH  11  12
ENDBRANCH   8  11
ENDBRANCH   2   5
BRANCH   1  24
HETATM   24  C   UNL     1       5.869  32.408  60.502  1.00  0.00     0.175 C 
HETATM   25  N   UNL     1       4.562  32.779  60.372  1.00  0.00    -0.152 NA
HETATM   26  N   UNL     1       4.166  33.279  61.532  1.00  0.00     0.011 NA
HETATM   27  N   UNL     1       5.239  33.342  62.373  1.00  0.00    -0.231 N 
HETATM   28  C   UNL     1       6.273  32.631  61.805  1.00  0.00     0.174 C 
BRANCH  27  29
HETATM   29  C   UNL     1       5.149  34.113  63.565  1.00  0.00     0.058 A 
HETATM   30  C   UNL     1       4.791  33.472  64.762  1.00  0.00     0.073 A 
HETATM   31  C   UNL     1       4.681  34.208  65.938  1.00  0.00     0.118 A 
HETATM   32  C   UNL     1       4.902  35.578  65.951  1.00  0.00     0.042 A 
HETATM   33  F   UNL     1       4.354  33.583  67.077  1.00  0.00    -0.206 F 
HETATM   34  C   UNL     1       5.230  36.228  64.766  1.00  0.00     0.005 A 
HETATM   35  C   UNL     1       5.347  35.502  63.573  1.00  0.00     0.031 A 
ENDBRANCH  27  29
BRANCH  28  36
HETATM   36  C   UNL     1       7.475  32.179  62.499  1.00  0.00     0.436 C 
HETATM   37  F   UNL     1       7.623  30.831  62.454  1.00  0.00    -0.165 F 
HETATM   38  F   UNL     1       8.605  32.681  61.942  1.00  0.00    -0.165 F 
HETATM   39  F   UNL     1       7.470  32.537  63.804  1.00  0.00    -0.165 F 
ENDBRANCH  28  36
ENDBRANCH   1  24
TORSDOF 7
ENDMDL
