MODEL 1
REMARK VINA RESULT:     -10.3      0.000      0.000
REMARK  7 active torsions:
REMARK  status: ('A' for Active; 'I' for Inactive)
REMARK    1  A    between atoms: N_2  and  C_4 
REMARK       I    between atoms: N_7  and  C_8 
REMARK    2  A    between atoms: C_8  and  C_9 
REMARK    3  A    between atoms: N_12  and  C_13 
REMARK    4  A    between atoms: C_20  and  C_21 
REMARK    5  A    between atoms: C_21  and  N_22 
REMARK    6  A    between atoms: N_22  and  C_25 
REMARK    7  A    between atoms: C_25  and  C_26 
ROOT
HETATM    1  C   UNL     1       7.265  28.080  57.384  1.00  0.00     0.719 A 
HETATM    2  N   UNL     1       6.559  27.555  56.307  1.00  0.00    -0.154 N 
HETATM    3  C   UNL     1       6.874  26.192  56.283  1.00  0.00     0.083 A 
HETATM    4  C   UNL     1       6.234  25.365  55.315  1.00  0.00     0.033 A 
HETATM    5  C   UNL     1       5.400  25.923  54.418  1.00  0.00     0.004 A 
HETATM    6  C   UNL     1       5.156  27.352  54.401  1.00  0.00     0.018 A 
HETATM    7  C   UNL     1       5.733  28.127  55.334  1.00  0.00     0.115 A 
HETATM    8  C   UNL     1       7.832  25.999  57.252  1.00  0.00     0.107 A 
HETATM    9  N   UNL     1       8.076  27.178  57.927  1.00  0.00    -0.064 NA
ENDROOT
BRANCH   1  10
HETATM   10  N   UNL     1       7.182  29.388  57.881  1.00  0.00    -0.147 N 
HETATM   11  C   UNL     1       6.360  30.377  57.378  1.00  0.00     0.233 A 
HETATM   12  N   UNL     1       6.425  31.498  58.062  1.00  0.00    -0.236 NA
HETATM   13  C   UNL     1       7.371  31.282  59.040  1.00  0.00     0.142 A 
HETATM   14  C   UNL     1       7.873  29.997  58.899  1.00  0.00     0.153 A 
BRANCH  13  15
HETATM   15  C   UNL     1       7.787  32.203  60.113  1.00  0.00     0.273 C 
HETATM   16  N   UNL     1       7.058  32.297  61.323  1.00  0.00    -0.347 N 
HETATM   17  C   UNL     1       5.614  32.084  61.393  1.00  0.00     0.128 C 
HETATM   18  C   UNL     1       7.642  33.187  62.324  1.00  0.00     0.128 C 
HETATM   19  C   UNL     1       5.131  31.803  62.813  1.00  0.00     0.053 C 
HETATM   20  C   UNL     1       5.638  32.828  63.834  1.00  0.00     0.190 C 
HETATM   21  C   UNL     1       7.165  32.878  63.736  1.00  0.00     0.053 C 
HETATM   22  O   UNL     1       8.806  32.880  59.957  1.00  0.00    -0.266 OA
BRANCH  20  23
HETATM   23  N   UNL     1       5.001  34.216  63.634  1.00  0.00    -0.074 N 
HETATM   24  C   UNL     1       5.494  35.245  64.634  1.00  0.00     0.269 C 
HETATM   25  H   UNL     1       5.260  34.573  62.706  1.00  0.00     0.279 HD
HETATM   26  C   UNL     1       3.487  34.186  63.674  1.00  0.00     0.269 C 
ENDBRANCH  20  23
ENDBRANCH  13  15
ENDBRANCH   1  10
BRANCH   8  27
HETATM   27  C   UNL     1       8.563  24.751  57.608  1.00  0.00     0.294 C 
BRANCH  27  28
HETATM   28  N   UNL     1       8.812  23.915  56.399  1.00  0.00    -0.066 N 
HETATM   29  H   UNL     1       8.290  24.341  55.621  1.00  0.00     0.277 HD
HETATM   30  H   UNL     1       9.796  24.034  56.129  1.00  0.00     0.277 HD
BRANCH  28  31
HETATM   31  C   UNL     1       8.471  22.480  56.556  1.00  0.00     0.272 C 
BRANCH  31  32
HETATM   32  C   UNL     1       8.409  21.772  55.243  1.00  0.00    -0.015 A 
HETATM   33  C   UNL     1       8.796  20.439  55.134  1.00  0.00     0.125 A 
HETATM   34  N   UNL     1       8.797  19.748  53.979  1.00  0.00    -0.273 NA
HETATM   35  C   UNL     1       8.364  20.389  52.874  1.00  0.00     0.116 A 
HETATM   36  C   UNL     1       7.952  21.711  52.873  1.00  0.00     0.020 A 
HETATM   37  C   UNL     1       7.984  22.414  54.075  1.00  0.00     0.012 A 
ENDBRANCH  31  32
ENDBRANCH  28  31
ENDBRANCH  27  28
ENDBRANCH   8  27
TORSDOF 7
ENDMDL
MODEL 2
REMARK VINA RESULT:     -10.2      3.921     11.068
REMARK  7 active torsions:
REMARK  status: ('A' for Active; 'I' for Inactive)
REMARK    1  A    between atoms: N_2  and  C_4 
REMARK       I    between atoms: N_7  and  C_8 
REMARK    2  A    between atoms: C_8  and  C_9 
REMARK    3  A    between atoms: N_12  and  C_13 
REMARK    4  A    between atoms: C_20  and  C_21 
REMARK    5  A    between atoms: C_21  and  N_22 
REMARK    6  A    between atoms: N_22  and  C_25 
REMARK    7  A    between atoms: C_25  and  C_26 
ROOT
HETATM    1  C   UNL     1       6.904  29.686  57.190  1.00  0.00     0.719 A 
HETATM    2  N   UNL     1       8.284  29.832  57.091  1.00  0.00    -0.154 N 
HETATM    3  C   UNL     1       8.654  30.634  58.175  1.00  0.00     0.083 A 
HETATM    4  C   UNL     1      10.038  30.901  58.380  1.00  0.00     0.033 A 
HETATM    5  C   UNL     1      10.939  30.432  57.497  1.00  0.00     0.004 A 
HETATM    6  C   UNL     1      10.529  29.678  56.329  1.00  0.00     0.018 A 
HETATM    7  C   UNL     1       9.227  29.398  56.153  1.00  0.00     0.115 A 
HETATM    8  C   UNL     1       7.483  31.024  58.786  1.00  0.00     0.107 A 
HETATM    9  N   UNL     1       6.400  30.438  58.163  1.00  0.00    -0.064 NA
ENDROOT
BRANCH   1  10
HETATM   10  N   UNL     1       6.090  28.872  56.392  1.00  0.00    -0.147 N 
HETATM   11  C   UNL     1       4.722  28.741  56.529  1.00  0.00     0.233 A 
HETATM   12  N   UNL     1       4.185  27.963  55.615  1.00  0.00    -0.236 NA
HETATM   13  C   UNL     1       5.237  27.502  54.856  1.00  0.00     0.142 A 
HETATM   14  C   UNL     1       6.417  28.024  55.364  1.00  0.00     0.153 A 
BRANCH  13  15
HETATM   15  C   UNL     1       5.179  26.636  53.663  1.00  0.00     0.273 C 
HETATM   16  N   UNL     1       4.924  27.174  52.378  1.00  0.00    -0.347 N 
HETATM   17  C   UNL     1       4.089  28.355  52.169  1.00  0.00     0.128 C 
HETATM   18  C   UNL     1       4.985  26.206  51.285  1.00  0.00     0.128 C 
HETATM   19  C   UNL     1       4.311  28.994  50.801  1.00  0.00     0.053 C 
HETATM   20  C   UNL     1       4.232  27.989  49.646  1.00  0.00     0.190 C 
HETATM   21  C   UNL     1       5.228  26.861  49.933  1.00  0.00     0.053 C 
HETATM   22  O   UNL     1       5.385  25.428  53.792  1.00  0.00    -0.266 OA
BRANCH  20  23
HETATM   23  N   UNL     1       2.803  27.456  49.433  1.00  0.00    -0.074 N 
HETATM   24  C   UNL     1       2.685  26.537  48.231  1.00  0.00     0.269 C 
HETATM   25  H   UNL     1       2.529  26.895  50.249  1.00  0.00     0.279 HD
HETATM   26  C   UNL     1       1.771  28.558  49.305  1.00  0.00     0.269 C 
ENDBRANCH  20  23
ENDBRANCH  13  15
ENDBRANCH   1  10
BRANCH   8  27
HETATM   27  C   UNL     1       7.295  31.936  59.948  1.00  0.00     0.294 C 
BRANCH  27  28
HETATM   28  N   UNL     1       7.229  31.168  61.224  1.00  0.00    -0.066 N 
HETATM   29  H   UNL     1       6.235  31.079  61.476  1.00  0.00     0.277 HD
HETATM   30  H   UNL     1       7.521  30.202  61.028  1.00  0.00     0.277 HD
BRANCH  28  31
HETATM   31  C   UNL     1       8.019  31.748  62.338  1.00  0.00     0.272 C 
BRANCH  31  32
HETATM   32  C   UNL     1       7.147  32.394  63.364  1.00  0.00    -0.015 A 
HETATM   33  C   UNL     1       5.772  32.181  63.365  1.00  0.00     0.125 A 
HETATM   34  N   UNL     1       4.922  32.755  64.239  1.00  0.00    -0.273 NA
HETATM   35  C   UNL     1       5.455  33.558  65.183  1.00  0.00     0.116 A 
HETATM   36  C   UNL     1       6.808  33.832  65.274  1.00  0.00     0.020 A 
HETATM   37  C   UNL     1       7.666  33.248  64.344  1.00  0.00     0.012 A 
ENDBRANCH  31  32
ENDBRANCH  28  31
ENDBRANCH  27  28
ENDBRANCH   8  27
TORSDOF 7
ENDMDL
MODEL 3
REMARK VINA RESULT:      -9.9      1.401      1.728
REMARK  7 active torsions:
REMARK  status: ('A' for Active; 'I' for Inactive)
REMARK    1  A    between atoms: N_2  and  C_4 
REMARK       I    between atoms: N_7  and  C_8 
REMARK    2  A    between atoms: C_8  and  C_9 
REMARK    3  A    between atoms: N_12  and  C_13 
REMARK    4  A    between atoms: C_20  and  C_21 
REMARK    5  A    between atoms: C_21  and  N_22 
REMARK    6  A    between atoms: N_22  and  C_25 
REMARK    7  A    between atoms: C_25  and  C_26 
ROOT
HETATM    1  C   UNL     1       7.894  28.541  57.416  1.00  0.00     0.719 A 
HETATM    2  N   UNL     1       6.805  28.677  56.563  1.00  0.00    -0.154 N 
HETATM    3  C   UNL     1       6.488  27.379  56.150  1.00  0.00     0.083 A 
HETATM    4  C   UNL     1       5.351  27.192  55.312  1.00  0.00     0.033 A 
HETATM    5  C   UNL     1       4.657  28.265  54.891  1.00  0.00     0.004 A 
HETATM    6  C   UNL     1       5.054  29.611  55.256  1.00  0.00     0.018 A 
HETATM    7  C   UNL     1       6.106  29.786  56.073  1.00  0.00     0.115 A 
HETATM    8  C   UNL     1       7.464  26.559  56.670  1.00  0.00     0.107 A 
HETATM    9  N   UNL     1       8.339  27.289  57.448  1.00  0.00    -0.064 NA
ENDROOT
BRANCH   1  10
HETATM   10  N   UNL     1       8.498  29.556  58.171  1.00  0.00    -0.147 N 
HETATM   11  C   UNL     1       9.482  30.409  57.710  1.00  0.00     0.233 A 
HETATM   12  N   UNL     1       9.836  31.313  58.596  1.00  0.00    -0.236 NA
HETATM   13  C   UNL     1       9.103  31.031  59.727  1.00  0.00     0.142 A 
HETATM   14  C   UNL     1       8.313  29.918  59.481  1.00  0.00     0.153 A 
BRANCH  13  15
HETATM   15  C   UNL     1       9.081  31.779  60.998  1.00  0.00     0.273 C 
HETATM   16  N   UNL     1       7.862  32.213  61.573  1.00  0.00    -0.347 N 
HETATM   17  C   UNL     1       6.697  32.578  60.770  1.00  0.00     0.128 C 
HETATM   18  C   UNL     1       7.995  32.862  62.876  1.00  0.00     0.128 C 
HETATM   19  C   UNL     1       5.405  32.584  61.581  1.00  0.00     0.053 C 
HETATM   20  C   UNL     1       5.515  33.389  62.882  1.00  0.00     0.190 C 
HETATM   21  C   UNL     1       6.702  32.840  63.678  1.00  0.00     0.053 C 
HETATM   22  O   UNL     1      10.146  31.999  61.579  1.00  0.00    -0.266 OA
BRANCH  20  23
HETATM   23  N   UNL     1       5.644  34.901  62.623  1.00  0.00    -0.074 N 
HETATM   24  C   UNL     1       5.692  35.720  63.900  1.00  0.00     0.269 C 
HETATM   25  H   UNL     1       6.529  35.084  62.134  1.00  0.00     0.279 HD
HETATM   26  C   UNL     1       4.544  35.449  61.737  1.00  0.00     0.269 C 
ENDBRANCH  20  23
ENDBRANCH  13  15
ENDBRANCH   1  10
BRANCH   8  27
HETATM   27  C   UNL     1       7.647  25.092  56.487  1.00  0.00     0.294 C 
BRANCH  27  28
HETATM   28  N   UNL     1       7.909  24.761  55.058  1.00  0.00    -0.066 N 
HETATM   29  H   UNL     1       7.907  25.647  54.534  1.00  0.00     0.277 HD
HETATM   30  H   UNL     1       8.880  24.432  54.981  1.00  0.00     0.277 HD
BRANCH  28  31
HETATM   31  C   UNL     1       6.965  23.782  54.465  1.00  0.00     0.272 C 
BRANCH  31  32
HETATM   32  C   UNL     1       7.578  22.427  54.326  1.00  0.00    -0.015 A 
HETATM   33  C   UNL     1       7.859  21.656  55.450  1.00  0.00     0.125 A 
HETATM   34  N   UNL     1       8.438  20.441  55.403  1.00  0.00    -0.273 NA
HETATM   35  C   UNL     1       8.730  19.941  54.184  1.00  0.00     0.116 A 
HETATM   36  C   UNL     1       8.487  20.623  53.004  1.00  0.00     0.020 A 
HETATM   37  C   UNL     1       7.910  21.889  53.078  1.00  0.00     0.012 A 
ENDBRANCH  31  32
ENDBRANCH  28  31
ENDBRANCH  27  28
ENDBRANCH   8  27
TORSDOF 7
ENDMDL
MODEL 4
REMARK VINA RESULT:      -9.7      2.350      3.734
REMARK  7 active torsions:
REMARK  status: ('A' for Active; 'I' for Inactive)
REMARK    1  A    between atoms: N_2  and  C_4 
REMARK       I    between atoms: N_7  and  C_8 
REMARK    2  A    between atoms: C_8  and  C_9 
REMARK    3  A    between atoms: N_12  and  C_13 
REMARK    4  A    between atoms: C_20  and  C_21 
REMARK    5  A    between atoms: C_21  and  N_22 
REMARK    6  A    between atoms: N_22  and  C_25 
REMARK    7  A    between atoms: C_25  and  C_26 
ROOT
HETATM    1  C   UNL     1       6.486  30.073  56.885  1.00  0.00     0.719 A 
HETATM    2  N   UNL     1       7.823  30.129  57.264  1.00  0.00    -0.154 N 
HETATM    3  C   UNL     1       8.521  29.422  56.280  1.00  0.00     0.083 A 
HETATM    4  C   UNL     1       9.942  29.368  56.363  1.00  0.00     0.033 A 
HETATM    5  C   UNL     1      10.565  29.939  57.411  1.00  0.00     0.004 A 
HETATM    6  C   UNL     1       9.818  30.590  58.469  1.00  0.00     0.018 A 
HETATM    7  C   UNL     1       8.480  30.671  58.374  1.00  0.00     0.115 A 
HETATM    8  C   UNL     1       7.570  28.881  55.444  1.00  0.00     0.107 A 
HETATM    9  N   UNL     1       6.308  29.283  55.831  1.00  0.00    -0.064 NA
ENDROOT
BRANCH   1  10
HETATM   10  N   UNL     1       5.414  30.735  57.498  1.00  0.00    -0.147 N 
HETATM   11  C   UNL     1       4.161  30.192  57.708  1.00  0.00     0.233 A 
HETATM   12  N   UNL     1       3.353  30.999  58.359  1.00  0.00    -0.236 NA
HETATM   13  C   UNL     1       4.066  32.160  58.555  1.00  0.00     0.142 A 
HETATM   14  C   UNL     1       5.321  32.016  57.981  1.00  0.00     0.153 A 
BRANCH  13  15
HETATM   15  C   UNL     1       3.640  33.369  59.284  1.00  0.00     0.273 C 
HETATM   16  N   UNL     1       4.355  33.834  60.415  1.00  0.00    -0.347 N 
HETATM   17  C   UNL     1       5.061  32.935  61.325  1.00  0.00     0.128 C 
HETATM   18  C   UNL     1       3.865  35.090  60.977  1.00  0.00     0.128 C 
HETATM   19  C   UNL     1       6.093  33.662  62.182  1.00  0.00     0.053 C 
HETATM   20  C   UNL     1       5.528  34.904  62.881  1.00  0.00     0.190 C 
HETATM   21  C   UNL     1       4.915  35.810  61.811  1.00  0.00     0.053 C 
HETATM   22  O   UNL     1       2.660  33.997  58.878  1.00  0.00    -0.266 OA
BRANCH  20  23
HETATM   23  N   UNL     1       4.513  34.543  63.982  1.00  0.00    -0.074 N 
HETATM   24  C   UNL     1       3.954  35.760  64.696  1.00  0.00     0.269 C 
HETATM   25  H   UNL     1       3.708  34.068  63.554  1.00  0.00     0.279 HD
HETATM   26  C   UNL     1       5.072  33.588  65.016  1.00  0.00     0.269 C 
ENDBRANCH  20  23
ENDBRANCH  13  15
ENDBRANCH   1  10
BRANCH   8  27
HETATM   27  C   UNL     1       7.760  27.986  54.269  1.00  0.00     0.294 C 
BRANCH  27  28
HETATM   28  N   UNL     1       7.308  26.599  54.576  1.00  0.00    -0.066 N 
HETATM   29  H   UNL     1       7.970  26.207  55.260  1.00  0.00     0.277 HD
HETATM   30  H   UNL     1       6.425  26.661  55.098  1.00  0.00     0.277 HD
BRANCH  28  31
HETATM   31  C   UNL     1       7.168  25.716  53.393  1.00  0.00     0.272 C 
BRANCH  31  32
HETATM   32  C   UNL     1       7.414  24.282  53.731  1.00  0.00    -0.015 A 
HETATM   33  C   UNL     1       7.220  23.815  55.028  1.00  0.00     0.125 A 
HETATM   34  N   UNL     1       7.452  22.545  55.412  1.00  0.00    -0.273 NA
HETATM   35  C   UNL     1       7.867  21.678  54.465  1.00  0.00     0.116 A 
HETATM   36  C   UNL     1       8.087  22.039  53.147  1.00  0.00     0.020 A 
HETATM   37  C   UNL     1       7.864  23.364  52.777  1.00  0.00     0.012 A 
ENDBRANCH  31  32
ENDBRANCH  28  31
ENDBRANCH  27  28
ENDBRANCH   8  27
TORSDOF 7
ENDMDL
MODEL 5
REMARK VINA RESULT:      -9.6      3.862      5.976
REMARK  7 active torsions:
REMARK  status: ('A' for Active; 'I' for Inactive)
REMARK    1  A    between atoms: N_2  and  C_4 
REMARK       I    between atoms: N_7  and  C_8 
REMARK    2  A    between atoms: C_8  and  C_9 
REMARK    3  A    between atoms: N_12  and  C_13 
REMARK    4  A    between atoms: C_20  and  C_21 
REMARK    5  A    between atoms: C_21  and  N_22 
REMARK    6  A    between atoms: N_22  and  C_25 
REMARK    7  A    between atoms: C_25  and  C_26 
ROOT
HETATM    1  C   UNL     1       6.688  26.809  54.293  1.00  0.00     0.719 A 
HETATM    2  N   UNL     1       7.121  25.495  54.430  1.00  0.00    -0.154 N 
HETATM    3  C   UNL     1       6.693  24.838  53.271  1.00  0.00     0.083 A 
HETATM    4  C   UNL     1       7.058  23.472  53.092  1.00  0.00     0.033 A 
HETATM    5  C   UNL     1       7.743  22.839  54.061  1.00  0.00     0.004 A 
HETATM    6  C   UNL     1       8.100  23.511  55.295  1.00  0.00     0.018 A 
HETATM    7  C   UNL     1       7.785  24.808  55.451  1.00  0.00     0.115 A 
HETATM    8  C   UNL     1       5.931  25.745  52.570  1.00  0.00     0.107 A 
HETATM    9  N   UNL     1       5.925  26.965  53.215  1.00  0.00    -0.064 NA
ENDROOT
BRANCH   1  10
HETATM   10  N   UNL     1       6.977  27.879  55.150  1.00  0.00    -0.147 N 
HETATM   11  C   UNL     1       8.163  28.587  55.164  1.00  0.00     0.233 A 
HETATM   12  N   UNL     1       8.158  29.583  56.021  1.00  0.00    -0.236 NA
HETATM   13  C   UNL     1       6.939  29.520  56.657  1.00  0.00     0.142 A 
HETATM   14  C   UNL     1       6.229  28.439  56.155  1.00  0.00     0.153 A 
BRANCH  13  15
HETATM   15  C   UNL     1       6.401  30.443  57.674  1.00  0.00     0.273 C 
HETATM   16  N   UNL     1       7.229  30.979  58.689  1.00  0.00    -0.347 N 
HETATM   17  C   UNL     1       8.370  30.252  59.242  1.00  0.00     0.128 C 
HETATM   18  C   UNL     1       6.575  31.946  59.568  1.00  0.00     0.128 C 
HETATM   19  C   UNL     1       9.347  31.166  59.976  1.00  0.00     0.053 C 
HETATM   20  C   UNL     1       8.663  32.081  60.999  1.00  0.00     0.190 C 
HETATM   21  C   UNL     1       7.564  32.862  60.274  1.00  0.00     0.053 C 
HETATM   22  O   UNL     1       5.214  30.771  57.613  1.00  0.00    -0.266 OA
BRANCH  20  23
HETATM   23  N   UNL     1       8.114  31.298  62.206  1.00  0.00    -0.074 N 
HETATM   24  C   UNL     1       7.823  32.182  63.405  1.00  0.00     0.269 C 
HETATM   25  H   UNL     1       7.219  30.865  61.947  1.00  0.00     0.279 HD
HETATM   26  C   UNL     1       9.023  30.168  62.646  1.00  0.00     0.269 C 
ENDBRANCH  20  23
ENDBRANCH  13  15
ENDBRANCH   1  10
BRANCH   8  27
HETATM   27  C   UNL     1       5.182  25.550  51.298  1.00  0.00     0.294 C 
BRANCH  27  28
HETATM   28  N   UNL     1       5.702  26.448  50.229  1.00  0.00    -0.066 N 
HETATM   29  H   UNL     1       6.627  26.782  50.534  1.00  0.00     0.277 HD
HETATM   30  H   UNL     1       5.908  25.873  49.403  1.00  0.00     0.277 HD
BRANCH  28  31
HETATM   31  C   UNL     1       4.808  27.580  49.881  1.00  0.00     0.272 C 
BRANCH  31  32
HETATM   32  C   UNL     1       3.778  27.191  48.872  1.00  0.00    -0.015 A 
HETATM   33  C   UNL     1       4.086  26.299  47.849  1.00  0.00     0.125 A 
HETATM   34  N   UNL     1       3.219  25.928  46.888  1.00  0.00    -0.273 NA
HETATM   35  C   UNL     1       1.970  26.436  46.952  1.00  0.00     0.116 A 
HETATM   36  C   UNL     1       1.560  27.326  47.929  1.00  0.00     0.020 A 
HETATM   37  C   UNL     1       2.481  27.716  48.898  1.00  0.00     0.012 A 
ENDBRANCH  31  32
ENDBRANCH  28  31
ENDBRANCH  27  28
ENDBRANCH   8  27
TORSDOF 7
ENDMDL
MODEL 6
REMARK VINA RESULT:      -9.4      2.147     11.152
REMARK  7 active torsions:
REMARK  status: ('A' for Active; 'I' for Inactive)
REMARK    1  A    between atoms: N_2  and  C_4 
REMARK       I    between atoms: N_7  and  C_8 
REMARK    2  A    between atoms: C_8  and  C_9 
REMARK    3  A    between atoms: N_12  and  C_13 
REMARK    4  A    between atoms: C_20  and  C_21 
REMARK    5  A    between atoms: C_21  and  N_22 
REMARK    6  A    between atoms: N_22  and  C_25 
REMARK    7  A    between atoms: C_25  and  C_26 
ROOT
HETATM    1  C   UNL     1       7.359  31.124  58.576  1.00  0.00     0.719 A 
HETATM    2  N   UNL     1       7.869  31.374  59.846  1.00  0.00    -0.154 N 
HETATM    3  C   UNL     1       6.977  32.276  60.436  1.00  0.00     0.083 A 
HETATM    4  C   UNL     1       7.203  32.669  61.786  1.00  0.00     0.033 A 
HETATM    5  C   UNL     1       8.294  32.216  62.432  1.00  0.00     0.004 A 
HETATM    6  C   UNL     1       9.256  31.353  61.775  1.00  0.00     0.018 A 
HETATM    7  C   UNL     1       9.026  30.956  60.512  1.00  0.00     0.115 A 
HETATM    8  C   UNL     1       6.063  32.609  59.462  1.00  0.00     0.107 A 
HETATM    9  N   UNL     1       6.312  31.896  58.307  1.00  0.00    -0.064 NA
ENDROOT
BRANCH   1  10
HETATM   10  N   UNL     1       7.846  30.193  57.648  1.00  0.00    -0.147 N 
HETATM   11  C   UNL     1       9.106  29.631  57.675  1.00  0.00     0.233 A 
HETATM   12  N   UNL     1       9.292  28.739  56.727  1.00  0.00    -0.236 NA
HETATM   13  C   UNL     1       8.129  28.732  55.990  1.00  0.00     0.142 A 
HETATM   14  C   UNL     1       7.254  29.664  56.529  1.00  0.00     0.153 A 
BRANCH  13  15
HETATM   15  C   UNL     1       7.792  27.869  54.842  1.00  0.00     0.273 C 
HETATM   16  N   UNL     1       7.429  26.514  55.025  1.00  0.00    -0.347 N 
HETATM   17  C   UNL     1       7.959  25.696  56.115  1.00  0.00     0.128 C 
HETATM   18  C   UNL     1       7.038  25.813  53.804  1.00  0.00     0.128 C 
HETATM   19  C   UNL     1       7.119  24.448  56.372  1.00  0.00     0.053 C 
HETATM   20  C   UNL     1       6.832  23.643  55.099  1.00  0.00     0.190 C 
HETATM   21  C   UNL     1       6.184  24.583  54.080  1.00  0.00     0.053 C 
HETATM   22  O   UNL     1       7.802  28.354  53.709  1.00  0.00    -0.266 OA
BRANCH  20  23
HETATM   23  N   UNL     1       8.098  22.969  54.538  1.00  0.00    -0.074 N 
HETATM   24  C   UNL     1       7.853  22.241  53.229  1.00  0.00     0.269 C 
HETATM   25  H   UNL     1       8.801  23.690  54.335  1.00  0.00     0.279 HD
HETATM   26  C   UNL     1       8.742  22.006  55.514  1.00  0.00     0.269 C 
ENDBRANCH  20  23
ENDBRANCH  13  15
ENDBRANCH   1  10
BRANCH   8  27
HETATM   27  C   UNL     1       4.935  33.579  59.532  1.00  0.00     0.294 C 
BRANCH  27  28
HETATM   28  N   UNL     1       3.784  33.006  60.284  1.00  0.00    -0.066 N 
HETATM   29  H   UNL     1       3.127  32.622  59.590  1.00  0.00     0.277 HD
HETATM   30  H   UNL     1       4.117  32.177  60.791  1.00  0.00     0.277 HD
BRANCH  28  31
HETATM   31  C   UNL     1       3.106  33.956  61.200  1.00  0.00     0.272 C 
BRANCH  31  32
HETATM   32  C   UNL     1       3.757  33.999  62.543  1.00  0.00    -0.015 A 
HETATM   33  C   UNL     1       4.128  32.825  63.192  1.00  0.00     0.125 A 
HETATM   34  N   UNL     1       4.689  32.787  64.415  1.00  0.00    -0.273 NA
HETATM   35  C   UNL     1       4.929  33.967  65.023  1.00  0.00     0.116 A 
HETATM   36  C   UNL     1       4.604  35.191  64.465  1.00  0.00     0.020 A 
HETATM   37  C   UNL     1       4.001  35.205  63.209  1.00  0.00     0.012 A 
ENDBRANCH  31  32
ENDBRANCH  28  31
ENDBRANCH  27  28
ENDBRANCH   8  27
TORSDOF 7
ENDMDL
MODEL 7
REMARK VINA RESULT:      -9.3      2.457      4.085
REMARK  7 active torsions:
REMARK  status: ('A' for Active; 'I' for Inactive)
REMARK    1  A    between atoms: N_2  and  C_4 
REMARK       I    between atoms: N_7  and  C_8 
REMARK    2  A    between atoms: C_8  and  C_9 
REMARK    3  A    between atoms: N_12  and  C_13 
REMARK    4  A    between atoms: C_20  and  C_21 
REMARK    5  A    between atoms: C_21  and  N_22 
REMARK    6  A    between atoms: N_22  and  C_25 
REMARK    7  A    between atoms: C_25  and  C_26 
ROOT
HETATM    1  C   UNL     1       6.906  27.411  53.584  1.00  0.00     0.719 A 
HETATM    2  N   UNL     1       6.049  27.683  52.524  1.00  0.00    -0.154 N 
HETATM    3  C   UNL     1       6.051  26.527  51.735  1.00  0.00     0.083 A 
HETATM    4  C   UNL     1       5.195  26.481  50.597  1.00  0.00     0.033 A 
HETATM    5  C   UNL     1       4.463  27.564  50.276  1.00  0.00     0.004 A 
HETATM    6  C   UNL     1       4.542  28.785  51.054  1.00  0.00     0.018 A 
HETATM    7  C   UNL     1       5.323  28.818  52.147  1.00  0.00     0.115 A 
HETATM    8  C   UNL     1       6.988  25.684  52.287  1.00  0.00     0.107 A 
HETATM    9  N   UNL     1       7.522  26.243  53.430  1.00  0.00    -0.064 NA
ENDROOT
BRANCH   1  10
HETATM   10  N   UNL     1       7.141  28.225  54.700  1.00  0.00    -0.147 N 
HETATM   11  C   UNL     1       8.379  28.690  55.096  1.00  0.00     0.233 A 
HETATM   12  N   UNL     1       8.320  29.487  56.140  1.00  0.00    -0.236 NA
HETATM   13  C   UNL     1       6.993  29.525  56.504  1.00  0.00     0.142 A 
HETATM   14  C   UNL     1       6.272  28.708  55.645  1.00  0.00     0.153 A 
BRANCH  13  15
HETATM   15  C   UNL     1       6.374  30.318  57.583  1.00  0.00     0.273 C 
HETATM   16  N   UNL     1       7.163  30.959  58.567  1.00  0.00    -0.347 N 
HETATM   17  C   UNL     1       8.442  30.422  59.026  1.00  0.00     0.128 C 
HETATM   18  C   UNL     1       6.413  31.779  59.517  1.00  0.00     0.128 C 
HETATM   19  C   UNL     1       9.297  31.468  59.734  1.00  0.00     0.053 C 
HETATM   20  C   UNL     1       8.536  32.227  60.828  1.00  0.00     0.190 C 
HETATM   21  C   UNL     1       7.278  32.830  60.197  1.00  0.00     0.053 C 
HETATM   22  O   UNL     1       5.147  30.442  57.603  1.00  0.00    -0.266 OA
BRANCH  20  23
HETATM   23  N   UNL     1       8.204  31.332  62.035  1.00  0.00    -0.074 N 
HETATM   24  C   UNL     1       7.979  32.118  63.314  1.00  0.00     0.269 C 
HETATM   25  H   UNL     1       7.326  30.831  61.850  1.00  0.00     0.279 HD
HETATM   26  C   UNL     1       9.254  30.271  62.296  1.00  0.00     0.269 C 
ENDBRANCH  20  23
ENDBRANCH  13  15
ENDBRANCH   1  10
BRANCH   8  27
HETATM   27  C   UNL     1       7.440  24.348  51.808  1.00  0.00     0.294 C 
BRANCH  27  28
HETATM   28  N   UNL     1       8.234  23.645  52.855  1.00  0.00    -0.066 N 
HETATM   29  H   UNL     1       9.226  23.729  52.594  1.00  0.00     0.277 HD
HETATM   30  H   UNL     1       8.163  24.188  53.725  1.00  0.00     0.277 HD
BRANCH  28  31
HETATM   31  C   UNL     1       7.853  22.229  53.077  1.00  0.00     0.272 C 
BRANCH  31  32
HETATM   32  C   UNL     1       8.026  21.819  54.503  1.00  0.00    -0.015 A 
HETATM   33  C   UNL     1       8.222  22.772  55.498  1.00  0.00     0.125 A 
HETATM   34  N   UNL     1       8.417  22.475  56.797  1.00  0.00    -0.273 NA
HETATM   35  C   UNL     1       8.387  21.171  57.144  1.00  0.00     0.116 A 
HETATM   36  C   UNL     1       8.195  20.146  56.235  1.00  0.00     0.020 A 
HETATM   37  C   UNL     1       8.020  20.475  54.892  1.00  0.00     0.012 A 
ENDBRANCH  31  32
ENDBRANCH  28  31
ENDBRANCH  27  28
ENDBRANCH   8  27
TORSDOF 7
ENDMDL
MODEL 8
REMARK VINA RESULT:      -9.0      5.340     10.429
REMARK  7 active torsions:
REMARK  status: ('A' for Active; 'I' for Inactive)
REMARK    1  A    between atoms: N_2  and  C_4 
REMARK       I    between atoms: N_7  and  C_8 
REMARK    2  A    between atoms: C_8  and  C_9 
REMARK    3  A    between atoms: N_12  and  C_13 
REMARK    4  A    between atoms: C_20  and  C_21 
REMARK    5  A    between atoms: C_21  and  N_22 
REMARK    6  A    between atoms: N_22  and  C_25 
REMARK    7  A    between atoms: C_25  and  C_26 
ROOT
HETATM    1  C   UNL     1       6.331  26.083  53.785  1.00  0.00     0.719 A 
HETATM    2  N   UNL     1       6.934  24.830  53.750  1.00  0.00    -0.154 N 
HETATM    3  C   UNL     1       7.108  24.462  55.089  1.00  0.00     0.083 A 
HETATM    4  C   UNL     1       7.647  23.174  55.373  1.00  0.00     0.033 A 
HETATM    5  C   UNL     1       8.031  22.379  54.357  1.00  0.00     0.004 A 
HETATM    6  C   UNL     1       7.927  22.814  52.978  1.00  0.00     0.018 A 
HETATM    7  C   UNL     1       7.388  24.015  52.708  1.00  0.00     0.115 A 
HETATM    8  C   UNL     1       6.721  25.547  55.842  1.00  0.00     0.107 A 
HETATM    9  N   UNL     1       6.248  26.554  55.025  1.00  0.00    -0.064 NA
ENDROOT
BRANCH   1  10
HETATM   10  N   UNL     1       5.856  26.813  52.687  1.00  0.00    -0.147 N 
HETATM   11  C   UNL     1       6.091  28.155  52.465  1.00  0.00     0.233 A 
HETATM   12  N   UNL     1       5.586  28.586  51.330  1.00  0.00    -0.236 NA
HETATM   13  C   UNL     1       4.933  27.505  50.781  1.00  0.00     0.142 A 
HETATM   14  C   UNL     1       5.058  26.424  51.641  1.00  0.00     0.153 A 
BRANCH  13  15
HETATM   15  C   UNL     1       4.241  27.433  49.480  1.00  0.00     0.273 C 
HETATM   16  N   UNL     1       3.632  28.576  48.909  1.00  0.00    -0.347 N 
HETATM   17  C   UNL     1       3.047  29.645  49.717  1.00  0.00     0.128 C 
HETATM   18  C   UNL     1       3.064  28.369  47.579  1.00  0.00     0.128 C 
HETATM   19  C   UNL     1       2.857  30.937  48.928  1.00  0.00     0.053 C 
HETATM   20  C   UNL     1       2.132  30.727  47.594  1.00  0.00     0.190 C 
HETATM   21  C   UNL     1       2.901  29.667  46.801  1.00  0.00     0.053 C 
HETATM   22  O   UNL     1       4.224  26.360  48.873  1.00  0.00    -0.266 OA
BRANCH  20  23
HETATM   23  N   UNL     1       0.654  30.342  47.787  1.00  0.00    -0.074 N 
HETATM   24  C   UNL     1      -0.064  30.065  46.478  1.00  0.00     0.269 C 
HETATM   25  H   UNL     1       0.601  29.472  48.330  1.00  0.00     0.279 HD
HETATM   26  C   UNL     1      -0.134  31.379  48.562  1.00  0.00     0.269 C 
ENDBRANCH  20  23
ENDBRANCH  13  15
ENDBRANCH   1  10
BRANCH   8  27
HETATM   27  C   UNL     1       6.763  25.720  57.321  1.00  0.00     0.294 C 
BRANCH  27  28
HETATM   28  N   UNL     1       7.832  26.679  57.716  1.00  0.00    -0.066 N 
HETATM   29  H   UNL     1       8.218  26.353  58.613  1.00  0.00     0.277 HD
HETATM   30  H   UNL     1       8.614  26.572  57.058  1.00  0.00     0.277 HD
BRANCH  28  31
HETATM   31  C   UNL     1       7.395  28.095  57.800  1.00  0.00     0.272 C 
BRANCH  31  32
HETATM   32  C   UNL     1       8.548  29.042  57.730  1.00  0.00    -0.015 A 
HETATM   33  C   UNL     1       8.601  30.160  58.556  1.00  0.00     0.125 A 
HETATM   34  N   UNL     1       9.591  31.072  58.525  1.00  0.00    -0.273 NA
HETATM   35  C   UNL     1      10.602  30.859  57.657  1.00  0.00     0.116 A 
HETATM   36  C   UNL     1      10.649  29.777  56.796  1.00  0.00     0.020 A 
HETATM   37  C   UNL     1       9.601  28.859  56.827  1.00  0.00     0.012 A 
ENDBRANCH  31  32
ENDBRANCH  28  31
ENDBRANCH  27  28
ENDBRANCH   8  27
TORSDOF 7
ENDMDL
MODEL 9
REMARK VINA RESULT:      -9.0      1.743      2.577
REMARK  7 active torsions:
REMARK  status: ('A' for Active; 'I' for Inactive)
REMARK    1  A    between atoms: N_2  and  C_4 
REMARK       I    between atoms: N_7  and  C_8 
REMARK    2  A    between atoms: C_8  and  C_9 
REMARK    3  A    between atoms: N_12  and  C_13 
REMARK    4  A    between atoms: C_20  and  C_21 
REMARK    5  A    between atoms: C_21  and  N_22 
REMARK    6  A    between atoms: N_22  and  C_25 
REMARK    7  A    between atoms: C_25  and  C_26 
ROOT
HETATM    1  C   UNL     1       6.830  29.264  56.214  1.00  0.00     0.719 A 
HETATM    2  N   UNL     1       5.694  29.625  55.498  1.00  0.00    -0.154 N 
HETATM    3  C   UNL     1       5.641  28.744  54.413  1.00  0.00     0.083 A 
HETATM    4  C   UNL     1       4.528  28.826  53.526  1.00  0.00     0.033 A 
HETATM    5  C   UNL     1       3.601  29.783  53.717  1.00  0.00     0.004 A 
HETATM    6  C   UNL     1       3.720  30.745  54.794  1.00  0.00     0.018 A 
HETATM    7  C   UNL     1       4.751  30.647  55.651  1.00  0.00     0.115 A 
HETATM    8  C   UNL     1       6.794  27.995  54.466  1.00  0.00     0.107 A 
HETATM    9  N   UNL     1       7.532  28.329  55.583  1.00  0.00    -0.064 NA
ENDROOT
BRANCH   1  10
HETATM   10  N   UNL     1       7.242  29.786  57.448  1.00  0.00    -0.147 N 
HETATM   11  C   UNL     1       8.095  29.155  58.331  1.00  0.00     0.233 A 
HETATM   12  N   UNL     1       8.373  29.885  59.389  1.00  0.00    -0.236 NA
HETATM   13  C   UNL     1       7.636  31.039  59.248  1.00  0.00     0.142 A 
HETATM   14  C   UNL     1       6.901  30.958  58.074  1.00  0.00     0.153 A 
BRANCH  13  15
HETATM   15  C   UNL     1       7.625  32.218  60.134  1.00  0.00     0.273 C 
HETATM   16  N   UNL     1       6.503  32.516  60.944  1.00  0.00    -0.347 N 
HETATM   17  C   UNL     1       5.135  32.188  60.548  1.00  0.00     0.128 C 
HETATM   18  C   UNL     1       6.675  33.664  61.832  1.00  0.00     0.128 C 
HETATM   19  C   UNL     1       4.167  32.195  61.727  1.00  0.00     0.053 C 
HETATM   20  C   UNL     1       4.259  33.470  62.574  1.00  0.00     0.190 C 
HETATM   21  C   UNL     1       5.715  33.642  63.013  1.00  0.00     0.053 C 
HETATM   22  O   UNL     1       8.627  32.934  60.186  1.00  0.00    -0.266 OA
BRANCH  20  23
HETATM   23  N   UNL     1       3.733  34.708  61.823  1.00  0.00    -0.074 N 
HETATM   24  C   UNL     1       3.776  35.973  62.660  1.00  0.00     0.269 C 
HETATM   25  H   UNL     1       4.331  34.885  61.007  1.00  0.00     0.279 HD
HETATM   26  C   UNL     1       2.326  34.527  61.290  1.00  0.00     0.269 C 
ENDBRANCH  20  23
ENDBRANCH  13  15
ENDBRANCH   1  10
BRANCH   8  27
HETATM   27  C   UNL     1       7.275  26.953  53.516  1.00  0.00     0.294 C 
BRANCH  27  28
HETATM   28  N   UNL     1       6.443  25.720  53.609  1.00  0.00    -0.066 N 
HETATM   29  H   UNL     1       5.458  26.011  53.539  1.00  0.00     0.277 HD
HETATM   30  H   UNL     1       6.597  25.168  52.756  1.00  0.00     0.277 HD
BRANCH  28  31
HETATM   31  C   UNL     1       6.679  24.903  54.824  1.00  0.00     0.272 C 
BRANCH  31  32
HETATM   32  C   UNL     1       7.538  23.714  54.542  1.00  0.00    -0.015 A 
HETATM   33  C   UNL     1       8.579  23.370  55.400  1.00  0.00     0.125 A 
HETATM   34  N   UNL     1       9.412  22.333  55.193  1.00  0.00    -0.273 NA
HETATM   35  C   UNL     1       9.194  21.573  54.099  1.00  0.00     0.116 A 
HETATM   36  C   UNL     1       8.186  21.825  53.186  1.00  0.00     0.020 A 
HETATM   37  C   UNL     1       7.351  22.918  53.407  1.00  0.00     0.012 A 
ENDBRANCH  31  32
ENDBRANCH  28  31
ENDBRANCH  27  28
ENDBRANCH   8  27
TORSDOF 7
ENDMDL
MODEL 10
REMARK VINA RESULT:      -8.9      2.466     10.932
REMARK  7 active torsions:
REMARK  status: ('A' for Active; 'I' for Inactive)
REMARK    1  A    between atoms: N_2  and  C_4 
REMARK       I    between atoms: N_7  and  C_8 
REMARK    2  A    between atoms: C_8  and  C_9 
REMARK    3  A    between atoms: N_12  and  C_13 
REMARK    4  A    between atoms: C_20  and  C_21 
REMARK    5  A    between atoms: C_21  and  N_22 
REMARK    6  A    between atoms: N_22  and  C_25 
REMARK    7  A    between atoms: C_25  and  C_26 
ROOT
HETATM    1  C   UNL     1       6.181  31.337  57.854  1.00  0.00     0.719 A 
HETATM    2  N   UNL     1       5.225  32.152  57.257  1.00  0.00    -0.154 N 
HETATM    3  C   UNL     1       4.860  33.080  58.238  1.00  0.00     0.083 A 
HETATM    4  C   UNL     1       3.933  34.105  57.891  1.00  0.00     0.033 A 
HETATM    5  C   UNL     1       3.390  34.115  56.659  1.00  0.00     0.004 A 
HETATM    6  C   UNL     1       3.713  33.092  55.684  1.00  0.00     0.018 A 
HETATM    7  C   UNL     1       4.612  32.144  56.000  1.00  0.00     0.115 A 
HETATM    8  C   UNL     1       5.512  32.702  59.390  1.00  0.00     0.107 A 
HETATM    9  N   UNL     1       6.324  31.614  59.146  1.00  0.00    -0.064 NA
ENDROOT
BRANCH   1  10
HETATM   10  N   UNL     1       6.928  30.329  57.230  1.00  0.00    -0.147 N 
HETATM   11  C   UNL     1       8.077  29.760  57.744  1.00  0.00     0.233 A 
HETATM   12  N   UNL     1       8.552  28.792  56.992  1.00  0.00    -0.236 NA
HETATM   13  C   UNL     1       7.724  28.734  55.893  1.00  0.00     0.142 A 
HETATM   14  C   UNL     1       6.751  29.715  56.016  1.00  0.00     0.153 A 
BRANCH  13  15
HETATM   15  C   UNL     1       7.782  27.783  54.768  1.00  0.00     0.273 C 
HETATM   16  N   UNL     1       7.428  26.423  54.938  1.00  0.00    -0.347 N 
HETATM   17  C   UNL     1       7.630  25.707  56.195  1.00  0.00     0.128 C 
HETATM   18  C   UNL     1       7.451  25.626  53.713  1.00  0.00     0.128 C 
HETATM   19  C   UNL     1       6.795  24.433  56.284  1.00  0.00     0.053 C 
HETATM   20  C   UNL     1       6.937  23.533  55.050  1.00  0.00     0.190 C 
HETATM   21  C   UNL     1       6.597  24.370  53.814  1.00  0.00     0.053 C 
HETATM   22  O   UNL     1       8.119  28.195  53.656  1.00  0.00    -0.266 OA
BRANCH  20  23
HETATM   23  N   UNL     1       8.336  22.898  54.949  1.00  0.00    -0.074 N 
HETATM   24  C   UNL     1       8.520  22.063  53.695  1.00  0.00     0.269 C 
HETATM   25  H   UNL     1       9.041  23.644  54.901  1.00  0.00     0.279 HD
HETATM   26  C   UNL     1       8.692  22.050  56.153  1.00  0.00     0.269 C 
ENDBRANCH  20  23
ENDBRANCH  13  15
ENDBRANCH   1  10
BRANCH   8  27
HETATM   27  C   UNL     1       5.429  33.304  60.750  1.00  0.00     0.294 C 
BRANCH  27  28
HETATM   28  N   UNL     1       6.766  33.326  61.407  1.00  0.00    -0.066 N 
HETATM   29  H   UNL     1       7.470  33.181  60.669  1.00  0.00     0.277 HD
HETATM   30  H   UNL     1       6.945  34.285  61.731  1.00  0.00     0.277 HD
BRANCH  28  31
HETATM   31  C   UNL     1       6.932  32.349  62.511  1.00  0.00     0.272 C 
BRANCH  31  32
HETATM   32  C   UNL     1       6.482  32.905  63.822  1.00  0.00    -0.015 A 
HETATM   33  C   UNL     1       5.134  32.908  64.168  1.00  0.00     0.125 A 
HETATM   34  N   UNL     1       4.653  33.420  65.317  1.00  0.00    -0.273 NA
HETATM   35  C   UNL     1       5.548  33.929  66.190  1.00  0.00     0.116 A 
HETATM   36  C   UNL     1       6.910  33.970  65.946  1.00  0.00     0.020 A 
HETATM   37  C   UNL     1       7.382  33.457  64.740  1.00  0.00     0.012 A 
ENDBRANCH  31  32
ENDBRANCH  28  31
ENDBRANCH  27  28
ENDBRANCH   8  27
TORSDOF 7
ENDMDL
