MODEL 1
REMARK VINA RESULT:      -8.8      0.000      0.000
REMARK  6 active torsions:
REMARK  status: ('A' for Active; 'I' for Inactive)
REMARK    1  A    between atoms: C_2  and  N_3 
REMARK    2  A    between atoms: C_2  and  C_11 
REMARK       I    between atoms: N_3  and  C_4 
REMARK    3  A    between atoms: C_4  and  C_5 
REMARK    4  A    between atoms: C_14  and  O_15 
REMARK    5  A    between atoms: O_15  and  C_16 
REMARK    6  A    between atoms: C_16  and  C_17 
ROOT
HETATM    1  C   UNL     1       8.838  29.334  57.214  1.00  0.00    -0.036 A 
HETATM    2  C   UNL     1       8.755  29.140  55.825  1.00  0.00     0.012 A 
HETATM    3  C   UNL     1       7.858  28.219  55.272  1.00  0.00     0.037 A 
HETATM    4  C   UNL     1       7.025  27.473  56.102  1.00  0.00     0.069 A 
HETATM    5  C   UNL     1       7.067  27.690  57.480  1.00  0.00     0.037 A 
HETATM    6  C   UNL     1       7.962  28.612  58.034  1.00  0.00     0.012 A 
ENDROOT
BRANCH   1   7
HETATM    7  C   UNL     1       9.842  30.338  57.749  1.00  0.00     0.113 C 
HETATM    8  C   UNL     1      11.302  30.040  57.396  1.00  0.00     0.037 C 
BRANCH   7   9
HETATM    9  N   UNL     1       9.687  30.450  59.190  1.00  0.00    -0.352 N 
HETATM   10  C   UNL     1       9.419  31.652  59.792  1.00  0.00     0.225 C 
HETATM   11  O   UNL     1       9.194  32.696  59.197  1.00  0.00    -0.273 OA
HETATM   12  H   UNL     1       9.911  29.639  59.751  1.00  0.00     0.163 HD
BRANCH  10  13
HETATM   13  C   UNL     1       9.409  31.598  61.268  1.00  0.00     0.119 A 
HETATM   14  C   UNL     1       8.119  31.786  62.024  1.00  0.00     0.126 A 
HETATM   15 CL   UNL     1       8.196  32.694  63.535  1.00  0.00    -0.101 Cl
HETATM   16 CL   UNL     1       6.599  31.994  61.172  1.00  0.00    -0.101 Cl
HETATM   17  C   UNL     1       8.768  30.434  61.991  1.00  0.00     0.060 A 
ENDBRANCH  10  13
ENDBRANCH   7   9
ENDBRANCH   1   7
BRANCH   4  18
HETATM   18  O   UNL     1       6.131  26.522  55.694  1.00  0.00    -0.347 OA
BRANCH  18  19
HETATM   19  C   UNL     1       6.216  26.108  54.330  1.00  0.00     0.215 C 
BRANCH  19  20
HETATM   20  C   UNL     1       6.826  24.735  54.255  1.00  0.00    -0.017 A 
HETATM   21  C   UNL     1       6.893  23.908  55.372  1.00  0.00     0.125 A 
HETATM   22  N   UNL     1       7.394  22.651  55.359  1.00  0.00    -0.272 NA
HETATM   23  C   UNL     1       7.853  22.192  54.175  1.00  0.00     0.116 A 
HETATM   24  C   UNL     1       7.823  22.927  53.002  1.00  0.00     0.020 A 
HETATM   25  C   UNL     1       7.297  24.215  53.044  1.00  0.00     0.012 A 
ENDBRANCH  19  20
ENDBRANCH  18  19
ENDBRANCH   4  18
TORSDOF 6
ENDMDL
MODEL 2
REMARK VINA RESULT:      -8.5      5.716      9.492
REMARK  6 active torsions:
REMARK  status: ('A' for Active; 'I' for Inactive)
REMARK    1  A    between atoms: C_2  and  N_3 
REMARK    2  A    between atoms: C_2  and  C_11 
REMARK       I    between atoms: N_3  and  C_4 
REMARK    3  A    between atoms: C_4  and  C_5 
REMARK    4  A    between atoms: C_14  and  O_15 
REMARK    5  A    between atoms: O_15  and  C_16 
REMARK    6  A    between atoms: C_16  and  C_17 
ROOT
HETATM    1  C   UNL     1       5.742  33.735  65.139  1.00  0.00    -0.036 A 
HETATM    2  C   UNL     1       7.147  33.776  65.139  1.00  0.00     0.012 A 
HETATM    3  C   UNL     1       7.893  33.086  64.177  1.00  0.00     0.037 A 
HETATM    4  C   UNL     1       7.246  32.340  63.195  1.00  0.00     0.069 A 
HETATM    5  C   UNL     1       5.851  32.328  63.159  1.00  0.00     0.037 A 
HETATM    6  C   UNL     1       5.103  33.020  64.119  1.00  0.00     0.012 A 
ENDROOT
BRANCH   1   7
HETATM    7  C   UNL     1       4.993  34.494  66.219  1.00  0.00     0.113 C 
HETATM    8  C   UNL     1       4.171  35.685  65.717  1.00  0.00     0.037 C 
BRANCH   7   9
HETATM    9  N   UNL     1       5.932  34.928  67.240  1.00  0.00    -0.352 N 
HETATM   10  C   UNL     1       5.787  34.561  68.552  1.00  0.00     0.225 C 
HETATM   11  O   UNL     1       4.942  33.782  68.969  1.00  0.00    -0.273 OA
HETATM   12  H   UNL     1       6.625  35.616  66.978  1.00  0.00     0.163 HD
BRANCH  10  13
HETATM   13  C   UNL     1       6.764  35.186  69.466  1.00  0.00     0.119 A 
HETATM   14  C   UNL     1       7.381  34.383  70.581  1.00  0.00     0.126 A 
HETATM   15 CL   UNL     1       7.647  35.208  72.117  1.00  0.00    -0.101 Cl
HETATM   16 CL   UNL     1       7.013  32.677  70.771  1.00  0.00    -0.101 Cl
HETATM   17  C   UNL     1       8.225  34.797  69.412  1.00  0.00     0.060 A 
ENDBRANCH  10  13
ENDBRANCH   7   9
ENDBRANCH   1   7
BRANCH   4  18
HETATM   18  O   UNL     1       7.855  31.597  62.222  1.00  0.00    -0.347 OA
BRANCH  18  19
HETATM   19  C   UNL     1       7.207  31.554  60.950  1.00  0.00     0.215 C 
BRANCH  19  20
HETATM   20  C   UNL     1       8.228  31.329  59.869  1.00  0.00    -0.017 A 
HETATM   21  C   UNL     1       9.230  32.259  59.611  1.00  0.00     0.125 A 
HETATM   22  N   UNL     1      10.198  32.096  58.679  1.00  0.00    -0.272 NA
HETATM   23  C   UNL     1      10.169  30.950  57.967  1.00  0.00     0.116 A 
HETATM   24  C   UNL     1       9.223  29.955  58.150  1.00  0.00     0.020 A 
HETATM   25  C   UNL     1       8.243  30.148  59.119  1.00  0.00     0.012 A 
ENDBRANCH  19  20
ENDBRANCH  18  19
ENDBRANCH   4  18
TORSDOF 6
ENDMDL
MODEL 3
REMARK VINA RESULT:      -8.3      1.512      1.891
REMARK  6 active torsions:
REMARK  status: ('A' for Active; 'I' for Inactive)
REMARK    1  A    between atoms: C_2  and  N_3 
REMARK    2  A    between atoms: C_2  and  C_11 
REMARK       I    between atoms: N_3  and  C_4 
REMARK    3  A    between atoms: C_4  and  C_5 
REMARK    4  A    between atoms: C_14  and  O_15 
REMARK    5  A    between atoms: O_15  and  C_16 
REMARK    6  A    between atoms: C_16  and  C_17 
ROOT
HETATM    1  C   UNL     1       8.311  29.241  57.601  1.00  0.00    -0.036 A 
HETATM    2  C   UNL     1       6.942  29.552  57.552  1.00  0.00     0.012 A 
HETATM    3  C   UNL     1       5.993  28.595  57.176  1.00  0.00     0.037 A 
HETATM    4  C   UNL     1       6.398  27.305  56.843  1.00  0.00     0.069 A 
HETATM    5  C   UNL     1       7.750  26.972  56.932  1.00  0.00     0.037 A 
HETATM    6  C   UNL     1       8.701  27.928  57.309  1.00  0.00     0.012 A 
ENDROOT
BRANCH   1   7
HETATM    7  C   UNL     1       9.290  30.330  58.003  1.00  0.00     0.113 C 
HETATM    8  C   UNL     1      10.732  30.103  57.538  1.00  0.00     0.037 C 
BRANCH   7   9
HETATM    9  N   UNL     1       9.249  30.503  59.445  1.00  0.00    -0.352 N 
HETATM   10  C   UNL     1       9.197  31.747  60.017  1.00  0.00     0.225 C 
HETATM   11  O   UNL     1       9.086  32.796  59.399  1.00  0.00    -0.273 OA
HETATM   12  H   UNL     1       9.392  29.684  60.021  1.00  0.00     0.163 HD
BRANCH  10  13
HETATM   13  C   UNL     1       9.279  31.737  61.492  1.00  0.00     0.119 A 
HETATM   14  C   UNL     1       8.029  31.887  62.321  1.00  0.00     0.126 A 
HETATM   15 CL   UNL     1       8.153  32.842  63.799  1.00  0.00    -0.101 Cl
HETATM   16 CL   UNL     1       6.452  31.999  61.558  1.00  0.00    -0.101 Cl
HETATM   17  C   UNL     1       8.739  30.566  62.283  1.00  0.00     0.060 A 
ENDBRANCH  10  13
ENDBRANCH   7   9
ENDBRANCH   1   7
BRANCH   4  18
HETATM   18  O   UNL     1       5.580  26.290  56.430  1.00  0.00    -0.347 OA
BRANCH  18  19
HETATM   19  C   UNL     1       6.218  25.142  55.867  1.00  0.00     0.215 C 
BRANCH  19  20
HETATM   20  C   UNL     1       6.231  25.256  54.368  1.00  0.00    -0.017 A 
HETATM   21  C   UNL     1       7.413  25.468  53.666  1.00  0.00     0.125 A 
HETATM   22  N   UNL     1       7.495  25.541  52.316  1.00  0.00    -0.272 NA
HETATM   23  C   UNL     1       6.342  25.396  51.629  1.00  0.00     0.116 A 
HETATM   24  C   UNL     1       5.114  25.171  52.228  1.00  0.00     0.020 A 
HETATM   25  C   UNL     1       5.061  25.095  53.617  1.00  0.00     0.012 A 
ENDBRANCH  19  20
ENDBRANCH  18  19
ENDBRANCH   4  18
TORSDOF 6
ENDMDL
MODEL 4
REMARK VINA RESULT:      -8.2      1.686      2.308
REMARK  6 active torsions:
REMARK  status: ('A' for Active; 'I' for Inactive)
REMARK    1  A    between atoms: C_2  and  N_3 
REMARK    2  A    between atoms: C_2  and  C_11 
REMARK       I    between atoms: N_3  and  C_4 
REMARK    3  A    between atoms: C_4  and  C_5 
REMARK    4  A    between atoms: C_14  and  O_15 
REMARK    5  A    between atoms: O_15  and  C_16 
REMARK    6  A    between atoms: C_16  and  C_17 
ROOT
HETATM    1  C   UNL     1       8.295  28.530  56.579  1.00  0.00    -0.036 A 
HETATM    2  C   UNL     1       8.143  27.438  57.450  1.00  0.00     0.012 A 
HETATM    3  C   UNL     1       7.585  26.232  57.011  1.00  0.00     0.037 A 
HETATM    4  C   UNL     1       7.169  26.096  55.689  1.00  0.00     0.069 A 
HETATM    5  C   UNL     1       7.357  27.159  54.804  1.00  0.00     0.037 A 
HETATM    6  C   UNL     1       7.916  28.366  55.241  1.00  0.00     0.012 A 
ENDROOT
BRANCH   1   7
HETATM    7  C   UNL     1       8.894  29.815  57.122  1.00  0.00     0.113 C 
HETATM    8  C   UNL     1      10.423  29.884  57.073  1.00  0.00     0.037 C 
BRANCH   7   9
HETATM    9  N   UNL     1       8.425  30.025  58.481  1.00  0.00    -0.352 N 
HETATM   10  C   UNL     1       7.559  31.040  58.793  1.00  0.00     0.225 C 
HETATM   11  O   UNL     1       7.034  31.784  57.979  1.00  0.00    -0.273 OA
HETATM   12  H   UNL     1       8.858  29.481  59.216  1.00  0.00     0.163 HD
BRANCH  10  13
HETATM   13  C   UNL     1       7.282  31.174  60.238  1.00  0.00     0.119 A 
HETATM   14  C   UNL     1       8.360  31.653  61.175  1.00  0.00     0.126 A 
HETATM   15 CL   UNL     1       8.436  30.900  62.768  1.00  0.00    -0.101 Cl
HETATM   16 CL   UNL     1       9.934  32.133  60.564  1.00  0.00    -0.101 Cl
HETATM   17  C   UNL     1       7.188  32.541  60.879  1.00  0.00     0.060 A 
ENDBRANCH  10  13
ENDBRANCH   7   9
ENDBRANCH   1   7
BRANCH   4  18
HETATM   18  O   UNL     1       6.582  24.988  55.143  1.00  0.00    -0.347 OA
BRANCH  18  19
HETATM   19  C   UNL     1       7.159  24.486  53.937  1.00  0.00     0.215 C 
BRANCH  19  20
HETATM   20  C   UNL     1       7.490  23.028  54.103  1.00  0.00    -0.017 A 
HETATM   21  C   UNL     1       7.823  22.230  53.013  1.00  0.00     0.125 A 
HETATM   22  N   UNL     1       8.167  20.924  53.103  1.00  0.00    -0.272 NA
HETATM   23  C   UNL     1       8.180  20.383  54.339  1.00  0.00     0.116 A 
HETATM   24  C   UNL     1       7.876  21.090  55.491  1.00  0.00     0.020 A 
HETATM   25  C   UNL     1       7.532  22.433  55.369  1.00  0.00     0.012 A 
ENDBRANCH  19  20
ENDBRANCH  18  19
ENDBRANCH   4  18
TORSDOF 6
ENDMDL
MODEL 5
REMARK VINA RESULT:      -8.0      6.596      8.805
REMARK  6 active torsions:
REMARK  status: ('A' for Active; 'I' for Inactive)
REMARK    1  A    between atoms: C_2  and  N_3 
REMARK    2  A    between atoms: C_2  and  C_11 
REMARK       I    between atoms: N_3  and  C_4 
REMARK    3  A    between atoms: C_4  and  C_5 
REMARK    4  A    between atoms: C_14  and  O_15 
REMARK    5  A    between atoms: O_15  and  C_16 
REMARK    6  A    between atoms: C_16  and  C_17 
ROOT
HETATM    1  C   UNL     1       5.527  26.847  53.435  1.00  0.00    -0.036 A 
HETATM    2  C   UNL     1       6.670  27.320  54.102  1.00  0.00     0.012 A 
HETATM    3  C   UNL     1       7.339  26.532  55.045  1.00  0.00     0.037 A 
HETATM    4  C   UNL     1       6.876  25.252  55.339  1.00  0.00     0.069 A 
HETATM    5  C   UNL     1       5.769  24.755  54.650  1.00  0.00     0.037 A 
HETATM    6  C   UNL     1       5.099  25.541  53.705  1.00  0.00     0.012 A 
ENDROOT
BRANCH   1   7
HETATM    7  C   UNL     1       4.840  27.758  52.435  1.00  0.00     0.113 C 
HETATM    8  C   UNL     1       3.506  28.344  52.907  1.00  0.00     0.037 C 
BRANCH   7   9
HETATM    9  N   UNL     1       4.659  27.044  51.182  1.00  0.00    -0.352 N 
HETATM   10  C   UNL     1       5.076  27.572  49.988  1.00  0.00     0.225 C 
HETATM   11  O   UNL     1       5.706  28.613  49.866  1.00  0.00    -0.273 OA
HETATM   12  H   UNL     1       4.100  26.202  51.197  1.00  0.00     0.163 HD
BRANCH  10  13
HETATM   13  C   UNL     1       4.708  26.763  48.808  1.00  0.00     0.119 A 
HETATM   14  C   UNL     1       3.312  26.835  48.246  1.00  0.00     0.126 A 
HETATM   15 CL   UNL     1       2.605  25.333  47.649  1.00  0.00    -0.101 Cl
HETATM   16 CL   UNL     1       2.123  27.932  48.927  1.00  0.00    -0.101 Cl
HETATM   17  C   UNL     1       4.454  27.423  47.471  1.00  0.00     0.060 A 
ENDBRANCH  10  13
ENDBRANCH   7   9
ENDBRANCH   1   7
BRANCH   4  18
HETATM   18  O   UNL     1       7.416  24.396  56.258  1.00  0.00    -0.347 OA
BRANCH  18  19
HETATM   19  C   UNL     1       8.749  23.947  56.009  1.00  0.00     0.215 C 
BRANCH  19  20
HETATM   20  C   UNL     1       8.714  22.591  55.359  1.00  0.00    -0.017 A 
HETATM   21  C   UNL     1       8.667  21.425  56.115  1.00  0.00     0.125 A 
HETATM   22  N   UNL     1       8.595  20.179  55.589  1.00  0.00    -0.272 NA
HETATM   23  C   UNL     1       8.569  20.089  54.242  1.00  0.00     0.116 A 
HETATM   24  C   UNL     1       8.601  21.187  53.398  1.00  0.00     0.020 A 
HETATM   25  C   UNL     1       8.669  22.455  53.967  1.00  0.00     0.012 A 
ENDBRANCH  19  20
ENDBRANCH  18  19
ENDBRANCH   4  18
TORSDOF 6
ENDMDL
MODEL 6
REMARK VINA RESULT:      -7.9      4.035      9.272
REMARK  6 active torsions:
REMARK  status: ('A' for Active; 'I' for Inactive)
REMARK    1  A    between atoms: C_2  and  N_3 
REMARK    2  A    between atoms: C_2  and  C_11 
REMARK       I    between atoms: N_3  and  C_4 
REMARK    3  A    between atoms: C_4  and  C_5 
REMARK    4  A    between atoms: C_14  and  O_15 
REMARK    5  A    between atoms: O_15  and  C_16 
REMARK    6  A    between atoms: C_16  and  C_17 
ROOT
HETATM    1  C   UNL     1       6.401  27.464  56.839  1.00  0.00    -0.036 A 
HETATM    2  C   UNL     1       5.610  28.624  56.892  1.00  0.00     0.012 A 
HETATM    3  C   UNL     1       6.075  29.792  57.506  1.00  0.00     0.037 A 
HETATM    4  C   UNL     1       7.344  29.821  58.080  1.00  0.00     0.069 A 
HETATM    5  C   UNL     1       8.155  28.689  57.994  1.00  0.00     0.037 A 
HETATM    6  C   UNL     1       7.693  27.520  57.378  1.00  0.00     0.012 A 
ENDROOT
BRANCH   1   7
HETATM    7  C   UNL     1       5.832  26.226  56.170  1.00  0.00     0.113 C 
HETATM    8  C   UNL     1       5.073  25.280  57.105  1.00  0.00     0.037 C 
BRANCH   7   9
HETATM    9  N   UNL     1       6.901  25.511  55.494  1.00  0.00    -0.352 N 
HETATM   10  C   UNL     1       6.685  24.837  54.321  1.00  0.00     0.225 C 
HETATM   11  O   UNL     1       5.636  24.845  53.694  1.00  0.00    -0.273 OA
HETATM   12  H   UNL     1       7.783  25.416  55.980  1.00  0.00     0.163 HD
BRANCH  10  13
HETATM   13  C   UNL     1       7.854  24.074  53.838  1.00  0.00     0.119 A 
HETATM   14  C   UNL     1       8.211  22.754  54.471  1.00  0.00     0.126 A 
HETATM   15 CL   UNL     1       9.927  22.397  54.674  1.00  0.00    -0.101 Cl
HETATM   16 CL   UNL     1       7.209  22.061  55.733  1.00  0.00    -0.101 Cl
HETATM   17  C   UNL     1       7.667  22.783  53.073  1.00  0.00     0.060 A 
ENDBRANCH  10  13
ENDBRANCH   7   9
ENDBRANCH   1   7
BRANCH   4  18
HETATM   18  O   UNL     1       7.902  30.883  58.736  1.00  0.00    -0.347 OA
BRANCH  18  19
HETATM   19  C   UNL     1       8.523  30.605  59.992  1.00  0.00     0.215 C 
BRANCH  19  20
HETATM   20  C   UNL     1       8.023  31.572  61.029  1.00  0.00    -0.017 A 
HETATM   21  C   UNL     1       6.985  32.457  60.757  1.00  0.00     0.125 A 
HETATM   22  N   UNL     1       6.466  33.323  61.658  1.00  0.00    -0.272 NA
HETATM   23  C   UNL     1       7.008  33.310  62.895  1.00  0.00     0.116 A 
HETATM   24  C   UNL     1       8.036  32.463  63.273  1.00  0.00     0.020 A 
HETATM   25  C   UNL     1       8.545  31.579  62.327  1.00  0.00     0.012 A 
ENDBRANCH  19  20
ENDBRANCH  18  19
ENDBRANCH   4  18
TORSDOF 6
ENDMDL
MODEL 7
REMARK VINA RESULT:      -7.9      3.648      9.142
REMARK  6 active torsions:
REMARK  status: ('A' for Active; 'I' for Inactive)
REMARK    1  A    between atoms: C_2  and  N_3 
REMARK    2  A    between atoms: C_2  and  C_11 
REMARK       I    between atoms: N_3  and  C_4 
REMARK    3  A    between atoms: C_4  and  C_5 
REMARK    4  A    between atoms: C_14  and  O_15 
REMARK    5  A    between atoms: O_15  and  C_16 
REMARK    6  A    between atoms: C_16  and  C_17 
ROOT
HETATM    1  C   UNL     1       6.743  29.984  57.740  1.00  0.00    -0.036 A 
HETATM    2  C   UNL     1       6.170  31.188  58.184  1.00  0.00     0.012 A 
HETATM    3  C   UNL     1       6.714  31.896  59.262  1.00  0.00     0.037 A 
HETATM    4  C   UNL     1       7.842  31.410  59.918  1.00  0.00     0.069 A 
HETATM    5  C   UNL     1       8.445  30.239  59.457  1.00  0.00     0.037 A 
HETATM    6  C   UNL     1       7.904  29.531  58.377  1.00  0.00     0.012 A 
ENDROOT
BRANCH   1   7
HETATM    7  C   UNL     1       6.096  29.258  56.575  1.00  0.00     0.113 C 
HETATM    8  C   UNL     1       4.575  29.104  56.675  1.00  0.00     0.037 C 
BRANCH   7   9
HETATM    9  N   UNL     1       6.722  27.957  56.413  1.00  0.00    -0.352 N 
HETATM   10  C   UNL     1       6.840  27.364  55.183  1.00  0.00     0.225 C 
HETATM   11  O   UNL     1       6.532  27.889  54.123  1.00  0.00    -0.273 OA
HETATM   12  H   UNL     1       6.953  27.439  57.251  1.00  0.00     0.163 HD
BRANCH  10  13
HETATM   13  C   UNL     1       7.397  25.997  55.222  1.00  0.00     0.119 A 
HETATM   14  C   UNL     1       6.737  24.935  56.062  1.00  0.00     0.126 A 
HETATM   15 CL   UNL     1       7.794  23.795  56.896  1.00  0.00    -0.101 Cl
HETATM   16 CL   UNL     1       5.259  25.275  56.945  1.00  0.00    -0.101 Cl
HETATM   17  C   UNL     1       6.662  24.849  54.566  1.00  0.00     0.060 A 
ENDBRANCH  10  13
ENDBRANCH   7   9
ENDBRANCH   1   7
BRANCH   4  18
HETATM   18  O   UNL     1       8.450  31.985  60.999  1.00  0.00    -0.347 OA
BRANCH  18  19
HETATM   19  C   UNL     1       8.304  31.310  62.249  1.00  0.00     0.215 C 
BRANCH  19  20
HETATM   20  C   UNL     1       7.348  32.072  63.127  1.00  0.00    -0.017 A 
HETATM   21  C   UNL     1       5.980  31.824  63.098  1.00  0.00     0.125 A 
HETATM   22  N   UNL     1       5.076  32.448  63.889  1.00  0.00    -0.272 NA
HETATM   23  C   UNL     1       5.557  33.366  64.753  1.00  0.00     0.116 A 
HETATM   24  C   UNL     1       6.900  33.682  64.870  1.00  0.00     0.020 A 
HETATM   25  C   UNL     1       7.807  33.020  64.048  1.00  0.00     0.012 A 
ENDBRANCH  19  20
ENDBRANCH  18  19
ENDBRANCH   4  18
TORSDOF 6
ENDMDL
MODEL 8
REMARK VINA RESULT:      -7.9      7.318      9.644
REMARK  6 active torsions:
REMARK  status: ('A' for Active; 'I' for Inactive)
REMARK    1  A    between atoms: C_2  and  N_3 
REMARK    2  A    between atoms: C_2  and  C_11 
REMARK       I    between atoms: N_3  and  C_4 
REMARK    3  A    between atoms: C_4  and  C_5 
REMARK    4  A    between atoms: C_14  and  O_15 
REMARK    5  A    between atoms: O_15  and  C_16 
REMARK    6  A    between atoms: C_16  and  C_17 
ROOT
HETATM    1  C   UNL     1       5.587  26.897  51.847  1.00  0.00    -0.036 A 
HETATM    2  C   UNL     1       5.271  25.531  51.755  1.00  0.00     0.012 A 
HETATM    3  C   UNL     1       5.604  24.639  52.780  1.00  0.00     0.037 A 
HETATM    4  C   UNL     1       6.260  25.098  53.920  1.00  0.00     0.069 A 
HETATM    5  C   UNL     1       6.538  26.460  54.041  1.00  0.00     0.037 A 
HETATM    6  C   UNL     1       6.204  27.355  53.017  1.00  0.00     0.012 A 
ENDROOT
BRANCH   1   7
HETATM    7  C   UNL     1       5.211  27.809  50.693  1.00  0.00     0.113 C 
HETATM    8  C   UNL     1       5.016  29.280  51.071  1.00  0.00     0.037 C 
BRANCH   7   9
HETATM    9  N   UNL     1       4.017  27.294  50.044  1.00  0.00    -0.352 N 
HETATM   10  C   UNL     1       4.063  26.732  48.795  1.00  0.00     0.225 C 
HETATM   11  O   UNL     1       5.087  26.524  48.161  1.00  0.00    -0.273 OA
HETATM   12  H   UNL     1       3.126  27.480  50.486  1.00  0.00     0.163 HD
BRANCH  10  13
HETATM   13  C   UNL     1       2.740  26.370  48.247  1.00  0.00     0.119 A 
HETATM   14  C   UNL     1       2.004  27.330  47.349  1.00  0.00     0.126 A 
HETATM   15 CL   UNL     1       0.253  27.426  47.535  1.00  0.00    -0.101 Cl
HETATM   16 CL   UNL     1       2.731  28.856  46.875  1.00  0.00    -0.101 Cl
HETATM   17  C   UNL     1       2.576  26.068  46.774  1.00  0.00     0.060 A 
ENDBRANCH  10  13
ENDBRANCH   7   9
ENDBRANCH   1   7
BRANCH   4  18
HETATM   18  O   UNL     1       6.667  24.330  54.975  1.00  0.00    -0.347 OA
BRANCH  18  19
HETATM   19  C   UNL     1       8.069  24.073  55.075  1.00  0.00     0.215 C 
BRANCH  19  20
HETATM   20  C   UNL     1       8.333  22.610  54.848  1.00  0.00    -0.017 A 
HETATM   21  C   UNL     1       8.658  21.758  55.898  1.00  0.00     0.125 A 
HETATM   22  N   UNL     1       8.869  20.428  55.763  1.00  0.00    -0.272 NA
HETATM   23  C   UNL     1       8.751  19.918  54.519  1.00  0.00     0.116 A 
HETATM   24  C   UNL     1       8.421  20.674  53.406  1.00  0.00     0.020 A 
HETATM   25  C   UNL     1       8.204  22.038  53.577  1.00  0.00     0.012 A 
ENDBRANCH  19  20
ENDBRANCH  18  19
ENDBRANCH   4  18
TORSDOF 6
ENDMDL
MODEL 9
REMARK VINA RESULT:      -7.8      3.882      9.551
REMARK  6 active torsions:
REMARK  status: ('A' for Active; 'I' for Inactive)
REMARK    1  A    between atoms: C_2  and  N_3 
REMARK    2  A    between atoms: C_2  and  C_11 
REMARK       I    between atoms: N_3  and  C_4 
REMARK    3  A    between atoms: C_4  and  C_5 
REMARK    4  A    between atoms: C_14  and  O_15 
REMARK    5  A    between atoms: O_15  and  C_16 
REMARK    6  A    between atoms: C_16  and  C_17 
ROOT
HETATM    1  C   UNL     1       8.443  30.255  58.770  1.00  0.00    -0.036 A 
HETATM    2  C   UNL     1       9.244  30.412  59.914  1.00  0.00     0.012 A 
HETATM    3  C   UNL     1       8.867  31.272  60.952  1.00  0.00     0.037 A 
HETATM    4  C   UNL     1       7.679  31.993  60.863  1.00  0.00     0.069 A 
HETATM    5  C   UNL     1       6.854  31.811  59.752  1.00  0.00     0.037 A 
HETATM    6  C   UNL     1       7.228  30.949  58.714  1.00  0.00     0.012 A 
ENDROOT
BRANCH   1   7
HETATM    7  C   UNL     1       8.917  29.317  57.675  1.00  0.00     0.113 C 
HETATM    8  C   UNL     1       9.857  29.951  56.646  1.00  0.00     0.037 C 
BRANCH   7   9
HETATM    9  N   UNL     1       7.763  28.736  57.009  1.00  0.00    -0.352 N 
HETATM   10  C   UNL     1       7.395  27.432  57.217  1.00  0.00     0.225 C 
HETATM   11  O   UNL     1       7.918  26.680  58.025  1.00  0.00    -0.273 OA
HETATM   12  H   UNL     1       7.313  29.282  56.286  1.00  0.00     0.163 HD
BRANCH  10  13
HETATM   13  C   UNL     1       6.271  26.980  56.372  1.00  0.00     0.119 A 
HETATM   14  C   UNL     1       6.342  27.127  54.874  1.00  0.00     0.126 A 
HETATM   15 CL   UNL     1       4.855  27.570  54.036  1.00  0.00    -0.101 Cl
HETATM   16 CL   UNL     1       7.784  27.763  54.100  1.00  0.00    -0.101 Cl
HETATM   17  C   UNL     1       6.415  25.761  55.489  1.00  0.00     0.060 A 
ENDBRANCH  10  13
ENDBRANCH   7   9
ENDBRANCH   1   7
BRANCH   4  18
HETATM   18  O   UNL     1       7.213  32.886  61.788  1.00  0.00    -0.347 OA
BRANCH  18  19
HETATM   19  C   UNL     1       7.828  32.853  63.076  1.00  0.00     0.215 C 
BRANCH  19  20
HETATM   20  C   UNL     1       6.818  33.215  64.129  1.00  0.00    -0.017 A 
HETATM   21  C   UNL     1       5.468  32.918  63.973  1.00  0.00     0.125 A 
HETATM   22  N   UNL     1       4.518  33.184  64.900  1.00  0.00    -0.272 NA
HETATM   23  C   UNL     1       4.930  33.776  66.041  1.00  0.00     0.116 A 
HETATM   24  C   UNL     1       6.250  34.104  66.302  1.00  0.00     0.020 A 
HETATM   25  C   UNL     1       7.206  33.814  65.333  1.00  0.00     0.012 A 
ENDBRANCH  19  20
ENDBRANCH  18  19
ENDBRANCH   4  18
TORSDOF 6
ENDMDL
MODEL 10
REMARK VINA RESULT:      -7.8      7.068      9.217
REMARK  6 active torsions:
REMARK  status: ('A' for Active; 'I' for Inactive)
REMARK    1  A    between atoms: C_2  and  N_3 
REMARK    2  A    between atoms: C_2  and  C_11 
REMARK       I    between atoms: N_3  and  C_4 
REMARK    3  A    between atoms: C_4  and  C_5 
REMARK    4  A    between atoms: C_14  and  O_15 
REMARK    5  A    between atoms: O_15  and  C_16 
REMARK    6  A    between atoms: C_16  and  C_17 
ROOT
HETATM    1  C   UNL     1       5.522  27.260  52.169  1.00  0.00    -0.036 A 
HETATM    2  C   UNL     1       6.460  27.555  53.173  1.00  0.00     0.012 A 
HETATM    3  C   UNL     1       7.412  26.613  53.577  1.00  0.00     0.037 A 
HETATM    4  C   UNL     1       7.443  25.354  52.983  1.00  0.00     0.069 A 
HETATM    5  C   UNL     1       6.546  25.065  51.955  1.00  0.00     0.037 A 
HETATM    6  C   UNL     1       5.594  26.007  51.547  1.00  0.00     0.012 A 
ENDROOT
BRANCH   1   7
HETATM    7  C   UNL     1       4.507  28.321  51.787  1.00  0.00     0.113 C 
HETATM    8  C   UNL     1       3.494  28.668  52.882  1.00  0.00     0.037 C 
BRANCH   7   9
HETATM    9  N   UNL     1       3.816  27.911  50.576  1.00  0.00    -0.352 N 
HETATM   10  C   UNL     1       4.188  28.379  49.343  1.00  0.00     0.225 C 
HETATM   11  O   UNL     1       5.162  29.087  49.130  1.00  0.00    -0.273 OA
HETATM   12  H   UNL     1       2.968  27.369  50.680  1.00  0.00     0.163 HD
BRANCH  10  13
HETATM   13  C   UNL     1       3.304  27.947  48.242  1.00  0.00     0.119 A 
HETATM   14  C   UNL     1       1.879  28.431  48.180  1.00  0.00     0.126 A 
HETATM   15 CL   UNL     1       0.660  27.281  47.631  1.00  0.00    -0.101 Cl
HETATM   16 CL   UNL     1       1.264  29.573  49.364  1.00  0.00    -0.101 Cl
HETATM   17  C   UNL     1       2.873  28.927  47.173  1.00  0.00     0.060 A 
ENDBRANCH  10  13
ENDBRANCH   7   9
ENDBRANCH   1   7
BRANCH   4  18
HETATM   18  O   UNL     1       8.297  24.336  53.307  1.00  0.00    -0.347 OA
BRANCH  18  19
HETATM   19  C   UNL     1       8.011  23.056  52.741  1.00  0.00     0.215 C 
BRANCH  19  20
HETATM   20  C   UNL     1       8.124  21.997  53.803  1.00  0.00    -0.017 A 
HETATM   21  C   UNL     1       8.678  20.750  53.529  1.00  0.00     0.125 A 
HETATM   22  N   UNL     1       8.842  19.771  54.450  1.00  0.00    -0.272 NA
HETATM   23  C   UNL     1       8.434  20.045  55.707  1.00  0.00     0.116 A 
HETATM   24  C   UNL     1       7.880  21.256  56.088  1.00  0.00     0.020 A 
HETATM   25  C   UNL     1       7.730  22.246  55.122  1.00  0.00     0.012 A 
ENDBRANCH  19  20
ENDBRANCH  18  19
ENDBRANCH   4  18
TORSDOF 6
ENDMDL
