MODEL 1
REMARK VINA RESULT:     -10.6      0.000      0.000
REMARK  8 active torsions:
REMARK  status: ('A' for Active; 'I' for Inactive)
REMARK    1  A    between atoms: C_2  and  N_3 
REMARK    2  A    between atoms: C_2  and  C_26 
REMARK       I    between atoms: N_3  and  C_4 
REMARK    3  A    between atoms: C_4  and  C_5 
REMARK    4  A    between atoms: C_5  and  S_6 
REMARK    5  A    between atoms: S_6  and  C_7 
REMARK    6  A    between atoms: C_10  and  C_11 
REMARK    7  A    between atoms: C_11  and  O_12 
REMARK    8  A    between atoms: O_12  and  C_13 
ROOT
HETATM    1  C   UNL     1       7.040  28.844  57.730  1.00  0.00     0.191 A 
HETATM    2  N   UNL     1       6.012  28.160  57.146  1.00  0.00    -0.314 N 
HETATM    3  C   UNL     1       4.800  28.703  56.591  1.00  0.00     0.160 C 
HETATM    4  C   UNL     1       6.393  26.837  57.168  1.00  0.00     0.154 A 
HETATM    5  N   UNL     1       7.547  26.739  57.801  1.00  0.00    -0.132 NA
HETATM    6  N   UNL     1       7.942  27.997  58.166  1.00  0.00    -0.123 NA
ENDROOT
BRANCH   1   7
HETATM    7  S   UNL     1       7.160  30.565  57.794  1.00  0.00    -0.081 SA
BRANCH   7   8
HETATM    8  C   UNL     1       8.962  30.800  57.723  1.00  0.00     0.185 C 
BRANCH   8   9
HETATM    9  C   UNL     1       9.516  31.329  59.038  1.00  0.00     0.227 C 
HETATM   10  N   UNL     1       8.928  30.809  60.165  1.00  0.00    -0.352 N 
HETATM   11  H   UNL     1       8.236  30.066  60.054  1.00  0.00     0.163 HD
HETATM   12  O   UNL     1      10.402  32.181  59.074  1.00  0.00    -0.273 OA
BRANCH  10  13
HETATM   13  C   UNL     1       9.272  31.206  61.519  1.00  0.00     0.113 C 
HETATM   14  C   UNL     1       9.459  30.002  62.449  1.00  0.00     0.037 C 
BRANCH  13  15
HETATM   15  C   UNL     1       8.213  32.160  62.044  1.00  0.00    -0.036 A 
HETATM   16  C   UNL     1       7.238  32.679  61.179  1.00  0.00     0.009 A 
HETATM   17  C   UNL     1       6.236  33.525  61.660  1.00  0.00     0.001 A 
HETATM   18  C   UNL     1       6.192  33.861  63.012  1.00  0.00     0.000 A 
HETATM   19  C   UNL     1       7.146  33.347  63.885  1.00  0.00     0.001 A 
HETATM   20  C   UNL     1       8.147  32.501  63.407  1.00  0.00     0.009 A 
ENDBRANCH  13  15
ENDBRANCH  10  13
ENDBRANCH   8   9
ENDBRANCH   7   8
ENDBRANCH   1   7
BRANCH   4  21
HETATM   21  C   UNL     1       5.655  25.716  56.529  1.00  0.00     0.256 C 
BRANCH  21  22
HETATM   22  O   UNL     1       6.065  25.666  55.163  1.00  0.00    -0.344 OA
BRANCH  22  23
HETATM   23  C   UNL     1       6.633  24.484  54.770  1.00  0.00     0.069 A 
HETATM   24  C   UNL     1       7.059  23.470  55.629  1.00  0.00     0.044 A 
HETATM   25  C   UNL     1       7.627  22.288  55.121  1.00  0.00    -0.049 A 
HETATM   26  C   UNL     1       7.800  22.143  53.734  1.00  0.00    -0.052 A 
HETATM   27  C   UNL     1       8.099  21.229  56.089  1.00  0.00     0.039 C 
HETATM   28  C   UNL     1       8.373  20.879  53.138  1.00  0.00     0.039 C 
HETATM   29  C   UNL     1       7.378  23.169  52.879  1.00  0.00     0.010 A 
HETATM   30  C   UNL     1       9.140  20.031  54.151  1.00  0.00     0.005 C 
HETATM   31  C   UNL     1       8.332  19.870  55.432  1.00  0.00     0.005 C 
HETATM   32  C   UNL     1       6.809  24.334  53.395  1.00  0.00     0.037 A 
ENDBRANCH  22  23
ENDBRANCH  21  22
ENDBRANCH   4  21
TORSDOF 8
ENDMDL
MODEL 2
REMARK VINA RESULT:     -10.4      1.683     10.958
REMARK  8 active torsions:
REMARK  status: ('A' for Active; 'I' for Inactive)
REMARK    1  A    between atoms: C_2  and  N_3 
REMARK    2  A    between atoms: C_2  and  C_26 
REMARK       I    between atoms: N_3  and  C_4 
REMARK    3  A    between atoms: C_4  and  C_5 
REMARK    4  A    between atoms: C_5  and  S_6 
REMARK    5  A    between atoms: S_6  and  C_7 
REMARK    6  A    between atoms: C_10  and  C_11 
REMARK    7  A    between atoms: C_11  and  O_12 
REMARK    8  A    between atoms: O_12  and  C_13 
ROOT
HETATM    1  C   UNL     1       6.666  27.632  57.181  1.00  0.00     0.191 A 
HETATM    2  N   UNL     1       6.611  28.954  57.521  1.00  0.00    -0.314 N 
HETATM    3  C   UNL     1       5.469  29.828  57.462  1.00  0.00     0.160 C 
HETATM    4  C   UNL     1       7.876  29.271  57.963  1.00  0.00     0.154 A 
HETATM    5  N   UNL     1       8.652  28.214  57.819  1.00  0.00    -0.132 NA
HETATM    6  N   UNL     1       7.895  27.193  57.313  1.00  0.00    -0.123 NA
ENDROOT
BRANCH   1   7
HETATM    7  S   UNL     1       5.298  26.677  56.735  1.00  0.00    -0.081 SA
BRANCH   7   8
HETATM    8  C   UNL     1       5.168  27.048  54.959  1.00  0.00     0.185 C 
BRANCH   8   9
HETATM    9  C   UNL     1       6.418  26.628  54.201  1.00  0.00     0.227 C 
HETATM   10  N   UNL     1       6.615  25.272  54.113  1.00  0.00    -0.352 N 
HETATM   11  H   UNL     1       5.892  24.651  54.479  1.00  0.00     0.163 HD
HETATM   12  O   UNL     1       7.202  27.452  53.734  1.00  0.00    -0.273 OA
BRANCH  10  13
HETATM   13  C   UNL     1       7.764  24.657  53.474  1.00  0.00     0.113 C 
HETATM   14  C   UNL     1       7.732  24.807  51.949  1.00  0.00     0.037 C 
BRANCH  13  15
HETATM   15  C   UNL     1       7.847  23.198  53.891  1.00  0.00    -0.036 A 
HETATM   16  C   UNL     1       7.696  22.839  55.239  1.00  0.00     0.009 A 
HETATM   17  C   UNL     1       7.730  21.497  55.627  1.00  0.00     0.001 A 
HETATM   18  C   UNL     1       7.910  20.497  54.674  1.00  0.00     0.000 A 
HETATM   19  C   UNL     1       8.051  20.835  53.331  1.00  0.00     0.001 A 
HETATM   20  C   UNL     1       8.017  22.175  52.941  1.00  0.00     0.009 A 
ENDBRANCH  13  15
ENDBRANCH  10  13
ENDBRANCH   8   9
ENDBRANCH   7   8
ENDBRANCH   1   7
BRANCH   4  21
HETATM   21  C   UNL     1       8.279  30.570  58.563  1.00  0.00     0.256 C 
BRANCH  21  22
HETATM   22  O   UNL     1       8.396  30.367  59.970  1.00  0.00    -0.344 OA
BRANCH  22  23
HETATM   23  C   UNL     1       7.806  31.328  60.747  1.00  0.00     0.069 A 
HETATM   24  C   UNL     1       8.088  31.561  62.094  1.00  0.00     0.044 A 
HETATM   25  C   UNL     1       7.427  32.580  62.801  1.00  0.00    -0.049 A 
HETATM   26  C   UNL     1       6.447  33.351  62.153  1.00  0.00    -0.052 A 
HETATM   27  C   UNL     1       7.743  32.778  64.265  1.00  0.00     0.039 C 
HETATM   28  C   UNL     1       5.736  34.479  62.860  1.00  0.00     0.039 C 
HETATM   29  C   UNL     1       6.164  33.106  60.803  1.00  0.00     0.010 A 
HETATM   30  C   UNL     1       5.831  34.392  64.381  1.00  0.00     0.005 C 
HETATM   31  C   UNL     1       7.268  34.122  64.810  1.00  0.00     0.005 C 
HETATM   32  C   UNL     1       6.832  32.095  60.109  1.00  0.00     0.037 A 
ENDBRANCH  22  23
ENDBRANCH  21  22
ENDBRANCH   4  21
TORSDOF 8
ENDMDL
MODEL 3
REMARK VINA RESULT:     -10.3      1.622      1.986
REMARK  8 active torsions:
REMARK  status: ('A' for Active; 'I' for Inactive)
REMARK    1  A    between atoms: C_2  and  N_3 
REMARK    2  A    between atoms: C_2  and  C_26 
REMARK       I    between atoms: N_3  and  C_4 
REMARK    3  A    between atoms: C_4  and  C_5 
REMARK    4  A    between atoms: C_5  and  S_6 
REMARK    5  A    between atoms: S_6  and  C_7 
REMARK    6  A    between atoms: C_10  and  C_11 
REMARK    7  A    between atoms: C_11  and  O_12 
REMARK    8  A    between atoms: O_12  and  C_13 
ROOT
HETATM    1  C   UNL     1       6.375  29.974  56.405  1.00  0.00     0.191 A 
HETATM    2  N   UNL     1       5.639  28.922  55.937  1.00  0.00    -0.314 N 
HETATM    3  C   UNL     1       4.205  28.811  55.878  1.00  0.00     0.160 C 
HETATM    4  C   UNL     1       6.561  27.997  55.500  1.00  0.00     0.154 A 
HETATM    5  N   UNL     1       7.772  28.447  55.768  1.00  0.00    -0.132 NA
HETATM    6  N   UNL     1       7.652  29.679  56.349  1.00  0.00    -0.123 NA
ENDROOT
BRANCH   1   7
HETATM    7  S   UNL     1       5.711  31.488  56.904  1.00  0.00    -0.081 SA
BRANCH   7   8
HETATM    8  C   UNL     1       5.538  31.229  58.696  1.00  0.00     0.185 C 
BRANCH   8   9
HETATM    9  C   UNL     1       6.757  31.723  59.459  1.00  0.00     0.227 C 
HETATM   10  N   UNL     1       6.675  31.598  60.824  1.00  0.00    -0.352 N 
HETATM   11  H   UNL     1       5.864  31.123  61.222  1.00  0.00     0.163 HD
HETATM   12  O   UNL     1       7.723  32.223  58.887  1.00  0.00    -0.273 OA
BRANCH  10  13
HETATM   13  C   UNL     1       7.706  32.046  61.745  1.00  0.00     0.113 C 
HETATM   14  C   UNL     1       8.711  30.938  62.077  1.00  0.00     0.037 C 
BRANCH  13  15
HETATM   15  C   UNL     1       7.049  32.601  62.998  1.00  0.00    -0.036 A 
HETATM   16  C   UNL     1       7.837  33.080  64.055  1.00  0.00     0.009 A 
HETATM   17  C   UNL     1       7.243  33.629  65.195  1.00  0.00     0.001 A 
HETATM   18  C   UNL     1       5.855  33.709  65.291  1.00  0.00     0.000 A 
HETATM   19  C   UNL     1       5.059  33.247  64.247  1.00  0.00     0.001 A 
HETATM   20  C   UNL     1       5.651  32.700  63.108  1.00  0.00     0.009 A 
ENDBRANCH  13  15
ENDBRANCH  10  13
ENDBRANCH   8   9
ENDBRANCH   7   8
ENDBRANCH   1   7
BRANCH   4  21
HETATM   21  C   UNL     1       6.241  26.731  54.788  1.00  0.00     0.256 C 
BRANCH  21  22
HETATM   22  O   UNL     1       7.434  26.302  54.134  1.00  0.00    -0.344 OA
BRANCH  22  23
HETATM   23  C   UNL     1       7.626  24.946  54.105  1.00  0.00     0.069 A 
HETATM   24  C   UNL     1       7.777  24.130  55.227  1.00  0.00     0.044 A 
HETATM   25  C   UNL     1       7.963  22.744  55.087  1.00  0.00    -0.049 A 
HETATM   26  C   UNL     1       8.033  22.179  53.801  1.00  0.00    -0.052 A 
HETATM   27  C   UNL     1       8.150  21.902  56.327  1.00  0.00     0.039 C 
HETATM   28  C   UNL     1       8.197  20.692  53.600  1.00  0.00     0.039 C 
HETATM   29  C   UNL     1       7.889  23.007  52.680  1.00  0.00     0.010 A 
HETATM   30  C   UNL     1       8.728  19.973  54.838  1.00  0.00     0.005 C 
HETATM   31  C   UNL     1       7.959  20.408  56.079  1.00  0.00     0.005 C 
HETATM   32  C   UNL     1       7.697  24.382  52.832  1.00  0.00     0.037 A 
ENDBRANCH  22  23
ENDBRANCH  21  22
ENDBRANCH   4  21
TORSDOF 8
ENDMDL
MODEL 4
REMARK VINA RESULT:     -10.3      1.740     10.896
REMARK  8 active torsions:
REMARK  status: ('A' for Active; 'I' for Inactive)
REMARK    1  A    between atoms: C_2  and  N_3 
REMARK    2  A    between atoms: C_2  and  C_26 
REMARK       I    between atoms: N_3  and  C_4 
REMARK    3  A    between atoms: C_4  and  C_5 
REMARK    4  A    between atoms: C_5  and  S_6 
REMARK    5  A    between atoms: S_6  and  C_7 
REMARK    6  A    between atoms: C_10  and  C_11 
REMARK    7  A    between atoms: C_11  and  O_12 
REMARK    8  A    between atoms: O_12  and  C_13 
ROOT
HETATM    1  C   UNL     1       7.109  28.766  55.870  1.00  0.00     0.191 A 
HETATM    2  N   UNL     1       6.390  29.857  56.269  1.00  0.00    -0.314 N 
HETATM    3  C   UNL     1       5.287  30.479  55.584  1.00  0.00     0.160 C 
HETATM    4  C   UNL     1       6.923  30.222  57.485  1.00  0.00     0.154 A 
HETATM    5  N   UNL     1       7.949  29.436  57.751  1.00  0.00    -0.132 NA
HETATM    6  N   UNL     1       8.073  28.535  56.729  1.00  0.00    -0.123 NA
ENDROOT
BRANCH   1   7
HETATM    7  S   UNL     1       6.734  27.796  54.492  1.00  0.00    -0.081 SA
BRANCH   7   8
HETATM    8  C   UNL     1       5.337  26.813  55.117  1.00  0.00     0.185 C 
BRANCH   8   9
HETATM    9  C   UNL     1       5.802  25.680  56.019  1.00  0.00     0.227 C 
HETATM   10  N   UNL     1       6.921  25.014  55.584  1.00  0.00    -0.352 N 
HETATM   11  H   UNL     1       7.401  25.362  54.753  1.00  0.00     0.163 HD
HETATM   12  O   UNL     1       5.193  25.374  57.043  1.00  0.00    -0.273 OA
BRANCH  10  13
HETATM   13  C   UNL     1       7.507  23.875  56.268  1.00  0.00     0.113 C 
HETATM   14  C   UNL     1       8.807  24.239  56.994  1.00  0.00     0.037 C 
BRANCH  13  15
HETATM   15  C   UNL     1       7.719  22.748  55.271  1.00  0.00    -0.036 A 
HETATM   16  C   UNL     1       7.848  21.425  55.718  1.00  0.00     0.009 A 
HETATM   17  C   UNL     1       8.003  20.377  54.807  1.00  0.00     0.001 A 
HETATM   18  C   UNL     1       8.027  20.637  53.438  1.00  0.00     0.000 A 
HETATM   19  C   UNL     1       7.890  21.943  52.978  1.00  0.00     0.001 A 
HETATM   20  C   UNL     1       7.735  22.991  53.886  1.00  0.00     0.009 A 
ENDBRANCH  13  15
ENDBRANCH  10  13
ENDBRANCH   8   9
ENDBRANCH   7   8
ENDBRANCH   1   7
BRANCH   4  21
HETATM   21  C   UNL     1       6.388  31.285  58.377  1.00  0.00     0.256 C 
BRANCH  21  22
HETATM   22  O   UNL     1       7.506  32.005  58.892  1.00  0.00    -0.344 OA
BRANCH  22  23
HETATM   23  C   UNL     1       7.452  32.281  60.233  1.00  0.00     0.069 A 
HETATM   24  C   UNL     1       6.340  32.786  60.907  1.00  0.00     0.044 A 
HETATM   25  C   UNL     1       6.388  33.030  62.291  1.00  0.00    -0.049 A 
HETATM   26  C   UNL     1       7.581  32.795  62.996  1.00  0.00    -0.052 A 
HETATM   27  C   UNL     1       5.169  33.603  62.974  1.00  0.00     0.039 C 
HETATM   28  C   UNL     1       7.670  33.008  64.487  1.00  0.00     0.039 C 
HETATM   29  C   UNL     1       8.696  32.296  62.310  1.00  0.00     0.010 A 
HETATM   30  C   UNL     1       6.560  33.902  65.035  1.00  0.00     0.005 C 
HETATM   31  C   UNL     1       5.206  33.463  64.494  1.00  0.00     0.005 C 
HETATM   32  C   UNL     1       8.634  32.051  60.937  1.00  0.00     0.037 A 
ENDBRANCH  22  23
ENDBRANCH  21  22
ENDBRANCH   4  21
TORSDOF 8
ENDMDL
MODEL 5
REMARK VINA RESULT:     -10.1      1.901     11.700
REMARK  8 active torsions:
REMARK  status: ('A' for Active; 'I' for Inactive)
REMARK    1  A    between atoms: C_2  and  N_3 
REMARK    2  A    between atoms: C_2  and  C_26 
REMARK       I    between atoms: N_3  and  C_4 
REMARK    3  A    between atoms: C_4  and  C_5 
REMARK    4  A    between atoms: C_5  and  S_6 
REMARK    5  A    between atoms: S_6  and  C_7 
REMARK    6  A    between atoms: C_10  and  C_11 
REMARK    7  A    between atoms: C_11  and  O_12 
REMARK    8  A    between atoms: O_12  and  C_13 
ROOT
HETATM    1  C   UNL     1       7.082  29.341  57.759  1.00  0.00     0.191 A 
HETATM    2  N   UNL     1       6.827  30.524  58.394  1.00  0.00    -0.314 N 
HETATM    3  C   UNL     1       5.702  31.401  58.195  1.00  0.00     0.160 C 
HETATM    4  C   UNL     1       7.859  30.689  59.290  1.00  0.00     0.154 A 
HETATM    5  N   UNL     1       8.714  29.696  59.137  1.00  0.00    -0.132 NA
HETATM    6  N   UNL     1       8.233  28.862  58.166  1.00  0.00    -0.123 NA
ENDROOT
BRANCH   1   7
HETATM    7  S   UNL     1       5.999  28.566  56.660  1.00  0.00    -0.081 SA
BRANCH   7   8
HETATM    8  C   UNL     1       6.647  26.866  56.661  1.00  0.00     0.185 C 
BRANCH   8   9
HETATM    9  C   UNL     1       7.044  26.412  55.264  1.00  0.00     0.227 C 
HETATM   10  N   UNL     1       6.793  25.089  54.992  1.00  0.00    -0.352 N 
HETATM   11  H   UNL     1       6.299  24.534  55.692  1.00  0.00     0.163 HD
HETATM   12  O   UNL     1       7.577  27.174  54.460  1.00  0.00    -0.273 OA
BRANCH  10  13
HETATM   13  C   UNL     1       7.133  24.438  53.739  1.00  0.00     0.113 C 
HETATM   14  C   UNL     1       5.998  24.523  52.713  1.00  0.00     0.037 C 
BRANCH  13  15
HETATM   15  C   UNL     1       7.531  22.998  54.016  1.00  0.00    -0.036 A 
HETATM   16  C   UNL     1       7.530  22.506  55.330  1.00  0.00     0.009 A 
HETATM   17  C   UNL     1       7.856  21.172  55.591  1.00  0.00     0.001 A 
HETATM   18  C   UNL     1       8.183  20.313  54.543  1.00  0.00     0.000 A 
HETATM   19  C   UNL     1       8.179  20.784  53.233  1.00  0.00     0.001 A 
HETATM   20  C   UNL     1       7.853  22.115  52.971  1.00  0.00     0.009 A 
ENDBRANCH  13  15
ENDBRANCH  10  13
ENDBRANCH   8   9
ENDBRANCH   7   8
ENDBRANCH   1   7
BRANCH   4  21
HETATM   21  C   UNL     1       7.955  31.772  60.304  1.00  0.00     0.256 C 
BRANCH  21  22
HETATM   22  O   UNL     1       7.665  31.188  61.573  1.00  0.00    -0.344 OA
BRANCH  22  23
HETATM   23  C   UNL     1       7.098  32.036  62.487  1.00  0.00     0.069 A 
HETATM   24  C   UNL     1       5.780  32.495  62.449  1.00  0.00     0.044 A 
HETATM   25  C   UNL     1       5.293  33.363  63.442  1.00  0.00    -0.049 A 
HETATM   26  C   UNL     1       6.153  33.799  64.465  1.00  0.00    -0.052 A 
HETATM   27  C   UNL     1       3.869  33.857  63.346  1.00  0.00     0.039 C 
HETATM   28  C   UNL     1       5.667  34.703  65.572  1.00  0.00     0.039 C 
HETATM   29  C   UNL     1       7.476  33.341  64.490  1.00  0.00     0.010 A 
HETATM   30  C   UNL     1       4.370  35.432  65.228  1.00  0.00     0.005 C 
HETATM   31  C   UNL     1       3.350  34.461  64.649  1.00  0.00     0.005 C 
HETATM   32  C   UNL     1       7.947  32.474  63.503  1.00  0.00     0.037 A 
ENDBRANCH  22  23
ENDBRANCH  21  22
ENDBRANCH   4  21
TORSDOF 8
ENDMDL
MODEL 6
REMARK VINA RESULT:     -10.0      1.128      1.711
REMARK  8 active torsions:
REMARK  status: ('A' for Active; 'I' for Inactive)
REMARK    1  A    between atoms: C_2  and  N_3 
REMARK    2  A    between atoms: C_2  and  C_26 
REMARK       I    between atoms: N_3  and  C_4 
REMARK    3  A    between atoms: C_4  and  C_5 
REMARK    4  A    between atoms: C_5  and  S_6 
REMARK    5  A    between atoms: S_6  and  C_7 
REMARK    6  A    between atoms: C_10  and  C_11 
REMARK    7  A    between atoms: C_11  and  O_12 
REMARK    8  A    between atoms: O_12  and  C_13 
ROOT
HETATM    1  C   UNL     1       7.014  28.923  57.802  1.00  0.00     0.191 A 
HETATM    2  N   UNL     1       6.019  28.408  57.020  1.00  0.00    -0.314 N 
HETATM    3  C   UNL     1       4.878  29.101  56.483  1.00  0.00     0.160 C 
HETATM    4  C   UNL     1       6.354  27.086  56.824  1.00  0.00     0.154 A 
HETATM    5  N   UNL     1       7.445  26.820  57.517  1.00  0.00    -0.132 NA
HETATM    6  N   UNL     1       7.847  27.968  58.142  1.00  0.00    -0.123 NA
ENDROOT
BRANCH   1   7
HETATM    7  S   UNL     1       7.183  30.595  58.197  1.00  0.00    -0.081 SA
BRANCH   7   8
HETATM    8  C   UNL     1       8.621  30.555  59.311  1.00  0.00     0.185 C 
BRANCH   8   9
HETATM    9  C   UNL     1       8.662  31.772  60.223  1.00  0.00     0.227 C 
HETATM   10  N   UNL     1       7.631  31.855  61.126  1.00  0.00    -0.352 N 
HETATM   11  H   UNL     1       6.969  31.080  61.181  1.00  0.00     0.163 HD
HETATM   12  O   UNL     1       9.542  32.625  60.128  1.00  0.00    -0.273 OA
BRANCH  10  13
HETATM   13  C   UNL     1       7.453  32.953  62.059  1.00  0.00     0.113 C 
HETATM   14  C   UNL     1       7.992  32.624  63.456  1.00  0.00     0.037 C 
BRANCH  13  15
HETATM   15  C   UNL     1       5.984  33.340  62.102  1.00  0.00    -0.036 A 
HETATM   16  C   UNL     1       5.607  34.646  62.450  1.00  0.00     0.009 A 
HETATM   17  C   UNL     1       4.262  35.021  62.453  1.00  0.00     0.001 A 
HETATM   18  C   UNL     1       3.276  34.100  62.105  1.00  0.00     0.000 A 
HETATM   19  C   UNL     1       3.634  32.803  61.748  1.00  0.00     0.001 A 
HETATM   20  C   UNL     1       4.978  32.426  61.743  1.00  0.00     0.009 A 
ENDBRANCH  13  15
ENDBRANCH  10  13
ENDBRANCH   8   9
ENDBRANCH   7   8
ENDBRANCH   1   7
BRANCH   4  21
HETATM   21  C   UNL     1       5.638  26.139  55.930  1.00  0.00     0.256 C 
BRANCH  21  22
HETATM   22  O   UNL     1       6.426  25.998  54.749  1.00  0.00    -0.344 OA
BRANCH  22  23
HETATM   23  C   UNL     1       6.874  24.728  54.498  1.00  0.00     0.069 A 
HETATM   24  C   UNL     1       7.205  23.784  55.471  1.00  0.00     0.044 A 
HETATM   25  C   UNL     1       7.652  22.502  55.105  1.00  0.00    -0.049 A 
HETATM   26  C   UNL     1       7.800  22.180  53.745  1.00  0.00    -0.052 A 
HETATM   27  C   UNL     1       8.026  21.521  56.191  1.00  0.00     0.039 C 
HETATM   28  C   UNL     1       8.243  20.807  53.303  1.00  0.00     0.039 C 
HETATM   29  C   UNL     1       7.474  23.137  52.775  1.00  0.00     0.010 A 
HETATM   30  C   UNL     1       8.931  20.010  54.410  1.00  0.00     0.005 C 
HETATM   31  C   UNL     1       8.121  20.079  55.698  1.00  0.00     0.005 C 
HETATM   32  C   UNL     1       7.024  24.404  53.150  1.00  0.00     0.037 A 
ENDBRANCH  22  23
ENDBRANCH  21  22
ENDBRANCH   4  21
TORSDOF 8
ENDMDL
MODEL 7
REMARK VINA RESULT:      -9.9      2.146      3.106
REMARK  8 active torsions:
REMARK  status: ('A' for Active; 'I' for Inactive)
REMARK    1  A    between atoms: C_2  and  N_3 
REMARK    2  A    between atoms: C_2  and  C_26 
REMARK       I    between atoms: N_3  and  C_4 
REMARK    3  A    between atoms: C_4  and  C_5 
REMARK    4  A    between atoms: C_5  and  S_6 
REMARK    5  A    between atoms: S_6  and  C_7 
REMARK    6  A    between atoms: C_10  and  C_11 
REMARK    7  A    between atoms: C_11  and  O_12 
REMARK    8  A    between atoms: O_12  and  C_13 
ROOT
HETATM    1  C   UNL     1       5.887  29.941  56.579  1.00  0.00     0.191 A 
HETATM    2  N   UNL     1       5.904  29.070  55.526  1.00  0.00    -0.314 N 
HETATM    3  C   UNL     1       5.141  29.152  54.308  1.00  0.00     0.160 C 
HETATM    4  C   UNL     1       6.833  28.111  55.860  1.00  0.00     0.154 A 
HETATM    5  N   UNL     1       7.281  28.360  57.076  1.00  0.00    -0.132 NA
HETATM    6  N   UNL     1       6.674  29.499  57.530  1.00  0.00    -0.123 NA
ENDROOT
BRANCH   1   7
HETATM    7  S   UNL     1       5.024  31.437  56.599  1.00  0.00    -0.081 SA
BRANCH   7   8
HETATM    8  C   UNL     1       3.593  31.010  57.636  1.00  0.00     0.185 C 
BRANCH   8   9
HETATM    9  C   UNL     1       3.745  31.538  59.055  1.00  0.00     0.227 C 
HETATM   10  N   UNL     1       5.009  31.961  59.383  1.00  0.00    -0.352 N 
HETATM   11  H   UNL     1       5.723  31.971  58.653  1.00  0.00     0.163 HD
HETATM   12  O   UNL     1       2.805  31.549  59.848  1.00  0.00    -0.273 OA
BRANCH  10  13
HETATM   13  C   UNL     1       5.385  32.459  60.694  1.00  0.00     0.113 C 
HETATM   14  C   UNL     1       4.964  33.918  60.906  1.00  0.00     0.037 C 
BRANCH  13  15
HETATM   15  C   UNL     1       6.881  32.274  60.889  1.00  0.00    -0.036 A 
HETATM   16  C   UNL     1       7.417  32.173  62.181  1.00  0.00     0.009 A 
HETATM   17  C   UNL     1       8.786  31.963  62.370  1.00  0.00     0.001 A 
HETATM   18  C   UNL     1       9.634  31.846  61.270  1.00  0.00     0.000 A 
HETATM   19  C   UNL     1       9.116  31.934  59.982  1.00  0.00     0.001 A 
HETATM   20  C   UNL     1       7.750  32.143  59.791  1.00  0.00     0.009 A 
ENDBRANCH  13  15
ENDBRANCH  10  13
ENDBRANCH   8   9
ENDBRANCH   7   8
ENDBRANCH   1   7
BRANCH   4  21
HETATM   21  C   UNL     1       7.298  27.014  54.970  1.00  0.00     0.256 C 
BRANCH  21  22
HETATM   22  O   UNL     1       6.329  25.970  55.047  1.00  0.00    -0.344 OA
BRANCH  22  23
HETATM   23  C   UNL     1       6.793  24.722  54.725  1.00  0.00     0.069 A 
HETATM   24  C   UNL     1       7.190  23.749  55.644  1.00  0.00     0.044 A 
HETATM   25  C   UNL     1       7.648  22.493  55.207  1.00  0.00    -0.049 A 
HETATM   26  C   UNL     1       7.738  22.228  53.830  1.00  0.00    -0.052 A 
HETATM   27  C   UNL     1       8.094  21.481  56.235  1.00  0.00     0.039 C 
HETATM   28  C   UNL     1       8.190  20.884  53.314  1.00  0.00     0.039 C 
HETATM   29  C   UNL     1       7.345  23.213  52.915  1.00  0.00     0.010 A 
HETATM   30  C   UNL     1       8.947  20.062  54.355  1.00  0.00     0.005 C 
HETATM   31  C   UNL     1       8.198  20.062  55.681  1.00  0.00     0.005 C 
HETATM   32  C   UNL     1       6.886  24.454  53.360  1.00  0.00     0.037 A 
ENDBRANCH  22  23
ENDBRANCH  21  22
ENDBRANCH   4  21
TORSDOF 8
ENDMDL
MODEL 8
REMARK VINA RESULT:      -9.8      2.080      2.675
REMARK  8 active torsions:
REMARK  status: ('A' for Active; 'I' for Inactive)
REMARK    1  A    between atoms: C_2  and  N_3 
REMARK    2  A    between atoms: C_2  and  C_26 
REMARK       I    between atoms: N_3  and  C_4 
REMARK    3  A    between atoms: C_4  and  C_5 
REMARK    4  A    between atoms: C_5  and  S_6 
REMARK    5  A    between atoms: S_6  and  C_7 
REMARK    6  A    between atoms: C_10  and  C_11 
REMARK    7  A    between atoms: C_11  and  O_12 
REMARK    8  A    between atoms: O_12  and  C_13 
ROOT
HETATM    1  C   UNL     1       4.167  29.304  55.709  1.00  0.00     0.191 A 
HETATM    2  N   UNL     1       4.642  29.006  54.463  1.00  0.00    -0.314 N 
HETATM    3  C   UNL     1       4.481  29.774  53.256  1.00  0.00     0.160 C 
HETATM    4  C   UNL     1       5.339  27.827  54.609  1.00  0.00     0.154 A 
HETATM    5  N   UNL     1       5.215  27.414  55.856  1.00  0.00    -0.132 NA
HETATM    6  N   UNL     1       4.467  28.334  56.539  1.00  0.00    -0.123 NA
ENDROOT
BRANCH   1   7
HETATM    7  S   UNL     1       3.376  30.780  56.129  1.00  0.00    -0.081 SA
BRANCH   7   8
HETATM    8  C   UNL     1       3.867  30.966  57.870  1.00  0.00     0.185 C 
BRANCH   8   9
HETATM    9  C   UNL     1       5.261  31.560  58.003  1.00  0.00     0.227 C 
HETATM   10  N   UNL     1       6.026  31.023  59.009  1.00  0.00    -0.352 N 
HETATM   11  H   UNL     1       5.653  30.230  59.533  1.00  0.00     0.163 HD
HETATM   12  O   UNL     1       5.650  32.474  57.278  1.00  0.00    -0.273 OA
BRANCH  10  13
HETATM   13  C   UNL     1       7.368  31.472  59.339  1.00  0.00     0.113 C 
HETATM   14  C   UNL     1       8.406  30.354  59.201  1.00  0.00     0.037 C 
BRANCH  13  15
HETATM   15  C   UNL     1       7.366  32.066  60.738  1.00  0.00    -0.036 A 
HETATM   16  C   UNL     1       6.338  32.935  61.135  1.00  0.00     0.009 A 
HETATM   17  C   UNL     1       6.306  33.454  62.431  1.00  0.00     0.001 A 
HETATM   18  C   UNL     1       7.296  33.109  63.349  1.00  0.00     0.000 A 
HETATM   19  C   UNL     1       8.317  32.241  62.974  1.00  0.00     0.001 A 
HETATM   20  C   UNL     1       8.351  31.720  61.680  1.00  0.00     0.009 A 
ENDBRANCH  13  15
ENDBRANCH  10  13
ENDBRANCH   8   9
ENDBRANCH   7   8
ENDBRANCH   1   7
BRANCH   4  21
HETATM   21  C   UNL     1       6.147  27.166  53.551  1.00  0.00     0.256 C 
BRANCH  21  22
HETATM   22  O   UNL     1       7.315  26.640  54.179  1.00  0.00    -0.344 OA
BRANCH  22  23
HETATM   23  C   UNL     1       7.489  25.289  54.043  1.00  0.00     0.069 A 
HETATM   24  C   UNL     1       7.647  24.387  55.097  1.00  0.00     0.044 A 
HETATM   25  C   UNL     1       7.815  23.014  54.848  1.00  0.00    -0.049 A 
HETATM   26  C   UNL     1       7.858  22.549  53.522  1.00  0.00    -0.052 A 
HETATM   27  C   UNL     1       8.011  22.078  56.018  1.00  0.00     0.039 C 
HETATM   28  C   UNL     1       8.001  21.080  53.206  1.00  0.00     0.039 C 
HETATM   29  C   UNL     1       7.707  23.462  52.471  1.00  0.00     0.010 A 
HETATM   30  C   UNL     1       8.542  20.261  54.376  1.00  0.00     0.005 C 
HETATM   31  C   UNL     1       7.798  20.609  55.659  1.00  0.00     0.005 C 
HETATM   32  C   UNL     1       7.534  24.822  52.730  1.00  0.00     0.037 A 
ENDBRANCH  22  23
ENDBRANCH  21  22
ENDBRANCH   4  21
TORSDOF 8
ENDMDL
MODEL 9
REMARK VINA RESULT:      -9.6      2.193      3.190
REMARK  8 active torsions:
REMARK  status: ('A' for Active; 'I' for Inactive)
REMARK    1  A    between atoms: C_2  and  N_3 
REMARK    2  A    between atoms: C_2  and  C_26 
REMARK       I    between atoms: N_3  and  C_4 
REMARK    3  A    between atoms: C_4  and  C_5 
REMARK    4  A    between atoms: C_5  and  S_6 
REMARK    5  A    between atoms: S_6  and  C_7 
REMARK    6  A    between atoms: C_10  and  C_11 
REMARK    7  A    between atoms: C_11  and  O_12 
REMARK    8  A    between atoms: O_12  and  C_13 
ROOT
HETATM    1  C   UNL     1       6.203  30.273  56.863  1.00  0.00     0.191 A 
HETATM    2  N   UNL     1       7.105  29.251  56.958  1.00  0.00    -0.314 N 
HETATM    3  C   UNL     1       8.126  29.072  57.957  1.00  0.00     0.160 C 
HETATM    4  C   UNL     1       6.810  28.405  55.912  1.00  0.00     0.154 A 
HETATM    5  N   UNL     1       5.840  28.940  55.195  1.00  0.00    -0.132 NA
HETATM    6  N   UNL     1       5.472  30.119  55.785  1.00  0.00    -0.123 NA
ENDROOT
BRANCH   1   7
HETATM    7  S   UNL     1       6.009  31.521  58.041  1.00  0.00    -0.081 SA
BRANCH   7   8
HETATM    8  C   UNL     1       4.266  31.300  58.511  1.00  0.00     0.185 C 
BRANCH   8   9
HETATM    9  C   UNL     1       3.831  32.312  59.560  1.00  0.00     0.227 C 
HETATM   10  N   UNL     1       4.833  32.755  60.389  1.00  0.00    -0.352 N 
HETATM   11  H   UNL     1       5.789  32.449  60.202  1.00  0.00     0.163 HD
HETATM   12  O   UNL     1       2.661  32.674  59.668  1.00  0.00    -0.273 OA
BRANCH  10  13
HETATM   13  C   UNL     1       4.630  33.686  61.484  1.00  0.00     0.113 C 
HETATM   14  C   UNL     1       4.576  35.142  61.009  1.00  0.00     0.037 C 
BRANCH  13  15
HETATM   15  C   UNL     1       5.717  33.477  62.526  1.00  0.00    -0.036 A 
HETATM   16  C   UNL     1       6.895  32.794  62.189  1.00  0.00     0.009 A 
HETATM   17  C   UNL     1       7.917  32.632  63.127  1.00  0.00     0.001 A 
HETATM   18  C   UNL     1       7.778  33.153  64.413  1.00  0.00     0.000 A 
HETATM   19  C   UNL     1       6.619  33.841  64.759  1.00  0.00     0.001 A 
HETATM   20  C   UNL     1       5.597  34.005  63.823  1.00  0.00     0.009 A 
ENDBRANCH  13  15
ENDBRANCH  10  13
ENDBRANCH   8   9
ENDBRANCH   7   8
ENDBRANCH   1   7
BRANCH   4  21
HETATM   21  C   UNL     1       7.440  27.080  55.671  1.00  0.00     0.256 C 
BRANCH  21  22
HETATM   22  O   UNL     1       6.623  26.390  54.727  1.00  0.00    -0.344 OA
BRANCH  22  23
HETATM   23  C   UNL     1       7.038  25.123  54.415  1.00  0.00     0.069 A 
HETATM   24  C   UNL     1       7.135  24.063  55.318  1.00  0.00     0.044 A 
HETATM   25  C   UNL     1       7.570  22.795  54.893  1.00  0.00    -0.049 A 
HETATM   26  C   UNL     1       7.943  22.603  53.551  1.00  0.00    -0.052 A 
HETATM   27  C   UNL     1       7.687  21.684  55.909  1.00  0.00     0.039 C 
HETATM   28  C   UNL     1       8.383  21.253  53.040  1.00  0.00     0.039 C 
HETATM   29  C   UNL     1       7.851  23.675  52.654  1.00  0.00     0.010 A 
HETATM   30  C   UNL     1       8.814  20.299  54.152  1.00  0.00     0.005 C 
HETATM   31  C   UNL     1       7.790  20.297  55.279  1.00  0.00     0.005 C 
HETATM   32  C   UNL     1       7.411  24.927  53.086  1.00  0.00     0.037 A 
ENDBRANCH  22  23
ENDBRANCH  21  22
ENDBRANCH   4  21
TORSDOF 8
ENDMDL
MODEL 10
REMARK VINA RESULT:      -9.4      2.054     11.106
REMARK  8 active torsions:
REMARK  status: ('A' for Active; 'I' for Inactive)
REMARK    1  A    between atoms: C_2  and  N_3 
REMARK    2  A    between atoms: C_2  and  C_26 
REMARK       I    between atoms: N_3  and  C_4 
REMARK    3  A    between atoms: C_4  and  C_5 
REMARK    4  A    between atoms: C_5  and  S_6 
REMARK    5  A    between atoms: S_6  and  C_7 
REMARK    6  A    between atoms: C_10  and  C_11 
REMARK    7  A    between atoms: C_11  and  O_12 
REMARK    8  A    between atoms: O_12  and  C_13 
ROOT
HETATM    1  C   UNL     1       5.082  29.154  55.956  1.00  0.00     0.191 A 
HETATM    2  N   UNL     1       6.344  29.474  56.373  1.00  0.00    -0.314 N 
HETATM    3  C   UNL     1       7.592  28.998  55.836  1.00  0.00     0.160 C 
HETATM    4  C   UNL     1       6.172  30.376  57.399  1.00  0.00     0.154 A 
HETATM    5  N   UNL     1       4.880  30.519  57.625  1.00  0.00    -0.132 NA
HETATM    6  N   UNL     1       4.200  29.740  56.730  1.00  0.00    -0.123 NA
ENDROOT
BRANCH   1   7
HETATM    7  S   UNL     1       4.724  28.196  54.565  1.00  0.00    -0.081 SA
BRANCH   7   8
HETATM    8  C   UNL     1       5.134  26.528  55.164  1.00  0.00     0.185 C 
BRANCH   8   9
HETATM    9  C   UNL     1       5.844  25.704  54.100  1.00  0.00     0.227 C 
HETATM   10  N   UNL     1       7.123  25.322  54.422  1.00  0.00    -0.352 N 
HETATM   11  H   UNL     1       7.475  25.538  55.355  1.00  0.00     0.163 HD
HETATM   12  O   UNL     1       5.312  25.435  53.025  1.00  0.00    -0.273 OA
BRANCH  10  13
HETATM   13  C   UNL     1       7.994  24.570  53.536  1.00  0.00     0.113 C 
HETATM   14  C   UNL     1       7.654  24.793  52.058  1.00  0.00     0.037 C 
BRANCH  13  15
HETATM   15  C   UNL     1       7.934  23.097  53.908  1.00  0.00    -0.036 A 
HETATM   16  C   UNL     1       8.066  22.113  52.917  1.00  0.00     0.009 A 
HETATM   17  C   UNL     1       8.052  20.757  53.254  1.00  0.00     0.001 A 
HETATM   18  C   UNL     1       7.911  20.367  54.585  1.00  0.00     0.000 A 
HETATM   19  C   UNL     1       7.789  21.332  55.581  1.00  0.00     0.001 A 
HETATM   20  C   UNL     1       7.804  22.687  55.246  1.00  0.00     0.009 A 
ENDBRANCH  13  15
ENDBRANCH  10  13
ENDBRANCH   8   9
ENDBRANCH   7   8
ENDBRANCH   1   7
BRANCH   4  21
HETATM   21  C   UNL     1       7.263  31.111  58.092  1.00  0.00     0.256 C 
BRANCH  21  22
HETATM   22  O   UNL     1       6.692  32.303  58.630  1.00  0.00    -0.344 OA
BRANCH  22  23
HETATM   23  C   UNL     1       6.867  32.474  59.977  1.00  0.00     0.069 A 
HETATM   24  C   UNL     1       5.884  32.908  60.868  1.00  0.00     0.044 A 
HETATM   25  C   UNL     1       6.166  33.046  62.238  1.00  0.00    -0.049 A 
HETATM   26  C   UNL     1       7.463  32.777  62.710  1.00  0.00    -0.052 A 
HETATM   27  C   UNL     1       5.080  33.546  63.161  1.00  0.00     0.039 C 
HETATM   28  C   UNL     1       7.805  32.877  64.177  1.00  0.00     0.039 C 
HETATM   29  C   UNL     1       8.446  32.350  61.808  1.00  0.00     0.010 A 
HETATM   30  C   UNL     1       6.802  33.708  64.974  1.00  0.00     0.005 C 
HETATM   31  C   UNL     1       5.376  33.290  64.637  1.00  0.00     0.005 C 
HETATM   32  C   UNL     1       8.152  32.210  60.450  1.00  0.00     0.037 A 
ENDBRANCH  22  23
ENDBRANCH  21  22
ENDBRANCH   4  21
TORSDOF 8
ENDMDL
