MODEL 1
REMARK VINA RESULT:      -8.9      0.000      0.000
REMARK  10 active torsions:
REMARK  status: ('A' for Active; 'I' for Inactive)
REMARK    1  A    between atoms: C_3  and  C_4 
REMARK    2  A    between atoms: C_4  and  C_5 
REMARK       I    between atoms: C_5  and  N_6 
REMARK    3  A    between atoms: N_6  and  C_7 
REMARK    4  A    between atoms: C_7  and  C_8 
REMARK    5  A    between atoms: C_18  and  N_19 
REMARK    6  A    between atoms: N_19  and  C_20 
REMARK    7  A    between atoms: C_20  and  C_21 
REMARK    8  A    between atoms: C_26  and  C_27 
REMARK    9  A    between atoms: C_27  and  O_28 
REMARK   10  A    between atoms: C_30  and  O_31 
ROOT
HETATM    1  C   UNL     1       4.913  25.349  56.831  1.00  0.00     0.016 C 
HETATM    2  C   UNL     1       6.042  26.343  56.383  1.00  0.00    -0.030 C 
HETATM    3  C   UNL     1       6.244  26.049  54.812  1.00  0.00     0.056 C 
HETATM    4  C   UNL     1       5.328  26.918  53.987  1.00  0.00     0.056 A 
HETATM    5  C   UNL     1       4.502  27.895  54.488  1.00  0.00     0.012 A 
HETATM    6  S   UNL     1       3.624  28.639  53.233  1.00  0.00    -0.055 SA
HETATM    7  C   UNL     1       4.344  27.557  52.101  1.00  0.00     0.167 A 
HETATM    8  N   UNL     1       5.213  26.723  52.624  1.00  0.00    -0.228 NA
HETATM    9  C   UNL     1       4.323  28.258  55.913  1.00  0.00     0.055 C 
HETATM   10  C   UNL     1       5.538  27.811  56.765  1.00  0.00     0.012 C 
HETATM   11  C   UNL     1       6.639  28.936  56.954  1.00  0.00     0.008 C 
HETATM   12  C   UNL     1       6.027  30.125  57.758  1.00  0.00     0.020 C 
HETATM   13  C   UNL     1       7.798  28.371  57.829  1.00  0.00     0.128 C 
HETATM   14  C   UNL     1       8.350  27.043  57.330  1.00  0.00     0.033 C 
HETATM   15  C   UNL     1       7.267  25.978  57.260  1.00  0.00     0.013 C 
ENDROOT
BRANCH   3  16
HETATM   16  C   UNL     1       7.694  26.042  54.291  1.00  0.00     0.114 C 
BRANCH  16  17
HETATM   17  C   UNL     1       7.913  25.157  53.077  1.00  0.00     0.218 C 
HETATM   18  N   UNL     1       7.512  23.852  53.109  1.00  0.00    -0.357 N 
HETATM   19  H   UNL     1       7.592  23.399  52.210  1.00  0.00     0.162 HD
HETATM   20  O   UNL     1       8.384  25.615  52.034  1.00  0.00    -0.274 OA
BRANCH  18  21
HETATM   21  C   UNL     1       6.941  23.129  54.228  1.00  0.00     0.162 C 
BRANCH  21  22
HETATM   22  C   UNL     1       7.707  21.926  54.704  1.00  0.00    -0.023 A 
HETATM   23  C   UNL     1       8.070  20.850  53.902  1.00  0.00     0.125 A 
HETATM   24  N   UNL     1       8.780  19.777  54.330  1.00  0.00    -0.273 NA
HETATM   25  C   UNL     1       9.163  19.779  55.623  1.00  0.00     0.116 A 
HETATM   26  C   UNL     1       8.863  20.796  56.510  1.00  0.00     0.020 A 
HETATM   27  C   UNL     1       8.124  21.879  56.042  1.00  0.00     0.012 A 
ENDBRANCH  21  22
ENDBRANCH  18  21
ENDBRANCH  16  17
ENDBRANCH   3  16
BRANCH  11  28
HETATM   28  C   UNL     1       7.147  29.528  55.614  1.00  0.00     0.176 C 
BRANCH  28  29
HETATM   29  O   UNL     1       8.459  29.092  55.269  1.00  0.00    -0.400 OA
HETATM   30  H   UNL     1       8.466  28.117  55.387  1.00  0.00     0.209 HD
ENDBRANCH  28  29
ENDBRANCH  11  28
BRANCH   7  31
HETATM   31  N   UNL     1       3.996  27.625  50.801  1.00  0.00    -0.366 N 
HETATM   32  H   UNL     1       3.063  27.936  50.566  1.00  0.00     0.162 HD
BRANCH  31  33
HETATM   33  C   UNL     1       4.626  26.773  49.821  1.00  0.00     0.148 C 
BRANCH  33  34
HETATM   34  C   UNL     1       3.779  26.628  48.585  1.00  0.00    -0.018 C 
HETATM   35  C   UNL     1       3.305  25.509  48.017  1.00  0.00     0.008 C 
ENDBRANCH  33  34
ENDBRANCH  31  33
ENDBRANCH   7  31
BRANCH  13  36
HETATM   36  O   UNL     1       8.880  29.303  57.899  1.00  0.00    -0.395 OA
HETATM   37  H   UNL     1       8.545  30.103  58.346  1.00  0.00     0.210 HD
ENDBRANCH  13  36
TORSDOF 10
ENDMDL
MODEL 2
REMARK VINA RESULT:      -8.4      2.797      5.749
REMARK  10 active torsions:
REMARK  status: ('A' for Active; 'I' for Inactive)
REMARK    1  A    between atoms: C_3  and  C_4 
REMARK    2  A    between atoms: C_4  and  C_5 
REMARK       I    between atoms: C_5  and  N_6 
REMARK    3  A    between atoms: N_6  and  C_7 
REMARK    4  A    between atoms: C_7  and  C_8 
REMARK    5  A    between atoms: C_18  and  N_19 
REMARK    6  A    between atoms: N_19  and  C_20 
REMARK    7  A    between atoms: C_20  and  C_21 
REMARK    8  A    between atoms: C_26  and  C_27 
REMARK    9  A    between atoms: C_27  and  O_28 
REMARK   10  A    between atoms: C_30  and  O_31 
ROOT
HETATM    1  C   UNL     1       8.223  28.015  53.964  1.00  0.00     0.016 C 
HETATM    2  C   UNL     1       6.832  27.330  53.720  1.00  0.00    -0.030 C 
HETATM    3  C   UNL     1       6.215  27.124  55.194  1.00  0.00     0.056 C 
HETATM    4  C   UNL     1       5.406  28.329  55.604  1.00  0.00     0.056 A 
HETATM    5  C   UNL     1       5.145  29.415  54.804  1.00  0.00     0.012 A 
HETATM    6  S   UNL     1       4.209  30.564  55.642  1.00  0.00    -0.055 SA
HETATM    7  C   UNL     1       4.273  29.575  57.052  1.00  0.00     0.167 A 
HETATM    8  N   UNL     1       4.918  28.442  56.892  1.00  0.00    -0.228 NA
HETATM    9  C   UNL     1       5.626  29.632  53.421  1.00  0.00     0.055 C 
HETATM   10  C   UNL     1       6.012  28.292  52.742  1.00  0.00     0.012 C 
HETATM   11  C   UNL     1       4.845  27.645  51.888  1.00  0.00     0.008 C 
HETATM   12  C   UNL     1       4.495  28.589  50.696  1.00  0.00     0.020 C 
HETATM   13  C   UNL     1       5.355  26.316  51.254  1.00  0.00     0.128 C 
HETATM   14  C   UNL     1       5.989  25.363  52.258  1.00  0.00     0.033 C 
HETATM   15  C   UNL     1       7.162  26.009  52.979  1.00  0.00     0.013 C 
ENDROOT
BRANCH   3  16
HETATM   16  C   UNL     1       5.484  25.793  55.457  1.00  0.00     0.114 C 
BRANCH  16  17
HETATM   17  C   UNL     1       5.746  25.202  56.831  1.00  0.00     0.218 C 
HETATM   18  N   UNL     1       6.934  24.579  57.085  1.00  0.00    -0.357 N 
HETATM   19  H   UNL     1       7.047  24.340  58.059  1.00  0.00     0.162 HD
HETATM   20  O   UNL     1       4.932  25.336  57.746  1.00  0.00    -0.274 OA
BRANCH  18  21
HETATM   21  C   UNL     1       8.015  24.321  56.154  1.00  0.00     0.162 C 
BRANCH  21  22
HETATM   22  C   UNL     1       8.105  22.924  55.608  1.00  0.00    -0.023 A 
HETATM   23  C   UNL     1       8.324  21.786  56.377  1.00  0.00     0.125 A 
HETATM   24  N   UNL     1       8.383  20.524  55.883  1.00  0.00    -0.273 NA
HETATM   25  C   UNL     1       8.199  20.382  54.555  1.00  0.00     0.116 A 
HETATM   26  C   UNL     1       7.969  21.441  53.696  1.00  0.00     0.020 A 
HETATM   27  C   UNL     1       7.926  22.725  54.232  1.00  0.00     0.012 A 
ENDBRANCH  21  22
ENDBRANCH  18  21
ENDBRANCH  16  17
ENDBRANCH   3  16
BRANCH  11  28
HETATM   28  C   UNL     1       3.533  27.449  52.691  1.00  0.00     0.176 C 
BRANCH  28  29
HETATM   29  O   UNL     1       2.512  28.377  52.334  1.00  0.00    -0.400 OA
HETATM   30  H   UNL     1       1.658  27.903  52.442  1.00  0.00     0.209 HD
ENDBRANCH  28  29
ENDBRANCH  11  28
BRANCH   7  31
HETATM   31  N   UNL     1       3.681  29.995  58.188  1.00  0.00    -0.366 N 
HETATM   32  H   UNL     1       2.890  29.475  58.542  1.00  0.00     0.162 HD
BRANCH  31  33
HETATM   33  C   UNL     1       3.728  31.385  58.574  1.00  0.00     0.148 C 
BRANCH  33  34
HETATM   34  C   UNL     1       5.129  31.818  58.920  1.00  0.00    -0.018 C 
HETATM   35  C   UNL     1       5.530  32.731  59.817  1.00  0.00     0.008 C 
ENDBRANCH  33  34
ENDBRANCH  31  33
ENDBRANCH   7  31
BRANCH  13  36
HETATM   36  O   UNL     1       4.289  25.625  50.599  1.00  0.00    -0.395 OA
HETATM   37  H   UNL     1       4.602  24.720  50.412  1.00  0.00     0.210 HD
ENDBRANCH  13  36
TORSDOF 10
ENDMDL
MODEL 3
REMARK VINA RESULT:      -8.3      3.234      6.253
REMARK  10 active torsions:
REMARK  status: ('A' for Active; 'I' for Inactive)
REMARK    1  A    between atoms: C_3  and  C_4 
REMARK    2  A    between atoms: C_4  and  C_5 
REMARK       I    between atoms: C_5  and  N_6 
REMARK    3  A    between atoms: N_6  and  C_7 
REMARK    4  A    between atoms: C_7  and  C_8 
REMARK    5  A    between atoms: C_18  and  N_19 
REMARK    6  A    between atoms: N_19  and  C_20 
REMARK    7  A    between atoms: C_20  and  C_21 
REMARK    8  A    between atoms: C_26  and  C_27 
REMARK    9  A    between atoms: C_27  and  O_28 
REMARK   10  A    between atoms: C_30  and  O_31 
ROOT
HETATM    1  C   UNL     1       8.856  28.218  54.011  1.00  0.00     0.016 C 
HETATM    2  C   UNL     1       7.572  27.583  54.651  1.00  0.00    -0.030 C 
HETATM    3  C   UNL     1       7.971  27.315  56.187  1.00  0.00     0.056 C 
HETATM    4  C   UNL     1       7.645  28.517  57.039  1.00  0.00     0.056 A 
HETATM    5  C   UNL     1       7.009  29.651  56.594  1.00  0.00     0.012 A 
HETATM    6  S   UNL     1       6.840  30.778  57.860  1.00  0.00    -0.055 SA
HETATM    7  C   UNL     1       7.698  29.713  58.910  1.00  0.00     0.167 A 
HETATM    8  N   UNL     1       8.051  28.574  58.358  1.00  0.00    -0.228 NA
HETATM    9  C   UNL     1       6.557  29.929  55.212  1.00  0.00     0.055 C 
HETATM   10  C   UNL     1       6.378  28.618  54.403  1.00  0.00     0.012 C 
HETATM   11  C   UNL     1       4.899  28.048  54.425  1.00  0.00     0.008 C 
HETATM   12  C   UNL     1       3.947  29.063  53.720  1.00  0.00     0.020 C 
HETATM   13  C   UNL     1       4.846  26.742  53.576  1.00  0.00     0.128 C 
HETATM   14  C   UNL     1       5.909  25.721  53.958  1.00  0.00     0.033 C 
HETATM   15  C   UNL     1       7.310  26.296  53.827  1.00  0.00     0.013 C 
ENDROOT
BRANCH   3  16
HETATM   16  C   UNL     1       7.482  25.992  56.808  1.00  0.00     0.114 C 
BRANCH  16  17
HETATM   17  C   UNL     1       8.598  25.027  57.171  1.00  0.00     0.218 C 
HETATM   18  N   UNL     1       8.527  23.727  56.761  1.00  0.00    -0.357 N 
HETATM   19  H   UNL     1       9.377  23.214  56.949  1.00  0.00     0.162 HD
HETATM   20  O   UNL     1       9.603  25.415  57.769  1.00  0.00    -0.274 OA
BRANCH  18  21
HETATM   21  C   UNL     1       7.442  23.079  56.053  1.00  0.00     0.162 C 
BRANCH  21  22
HETATM   22  C   UNL     1       7.835  22.081  54.999  1.00  0.00    -0.023 A 
HETATM   23  C   UNL     1       8.284  20.791  55.259  1.00  0.00     0.125 A 
HETATM   24  N   UNL     1       8.617  19.886  54.305  1.00  0.00    -0.273 NA
HETATM   25  C   UNL     1       8.484  20.280  53.022  1.00  0.00     0.116 A 
HETATM   26  C   UNL     1       8.043  21.535  52.647  1.00  0.00     0.020 A 
HETATM   27  C   UNL     1       7.719  22.444  53.650  1.00  0.00     0.012 A 
ENDBRANCH  21  22
ENDBRANCH  18  21
ENDBRANCH  16  17
ENDBRANCH   3  16
BRANCH  11  28
HETATM   28  C   UNL     1       4.341  27.843  55.857  1.00  0.00     0.176 C 
BRANCH  28  29
HETATM   29  O   UNL     1       3.523  28.922  56.300  1.00  0.00    -0.400 OA
HETATM   30  H   UNL     1       3.359  28.770  57.256  1.00  0.00     0.209 HD
ENDBRANCH  28  29
ENDBRANCH  11  28
BRANCH   7  31
HETATM   31  N   UNL     1       7.945  30.087  60.181  1.00  0.00    -0.366 N 
HETATM   32  H   UNL     1       7.162  30.229  60.804  1.00  0.00     0.162 HD
BRANCH  31  33
HETATM   33  C   UNL     1       9.140  30.825  60.514  1.00  0.00     0.148 C 
BRANCH  33  34
HETATM   34  C   UNL     1       9.079  31.376  61.915  1.00  0.00    -0.018 C 
HETATM   35  C   UNL     1       8.001  31.633  62.671  1.00  0.00     0.008 C 
ENDBRANCH  33  34
ENDBRANCH  31  33
ENDBRANCH   7  31
BRANCH  13  36
HETATM   36  O   UNL     1       3.567  26.115  53.692  1.00  0.00    -0.395 OA
HETATM   37  H   UNL     1       2.975  26.540  53.042  1.00  0.00     0.210 HD
ENDBRANCH  13  36
TORSDOF 10
ENDMDL
MODEL 4
REMARK VINA RESULT:      -8.2      3.597      6.857
REMARK  10 active torsions:
REMARK  status: ('A' for Active; 'I' for Inactive)
REMARK    1  A    between atoms: C_3  and  C_4 
REMARK    2  A    between atoms: C_4  and  C_5 
REMARK       I    between atoms: C_5  and  N_6 
REMARK    3  A    between atoms: N_6  and  C_7 
REMARK    4  A    between atoms: C_7  and  C_8 
REMARK    5  A    between atoms: C_18  and  N_19 
REMARK    6  A    between atoms: N_19  and  C_20 
REMARK    7  A    between atoms: C_20  and  C_21 
REMARK    8  A    between atoms: C_26  and  C_27 
REMARK    9  A    between atoms: C_27  and  O_28 
REMARK   10  A    between atoms: C_30  and  O_31 
ROOT
HETATM    1  C   UNL     1       8.795  29.049  55.060  1.00  0.00     0.016 C 
HETATM    2  C   UNL     1       7.736  28.056  55.657  1.00  0.00    -0.030 C 
HETATM    3  C   UNL     1       6.380  28.917  55.759  1.00  0.00     0.056 C 
HETATM    4  C   UNL     1       5.580  28.802  54.485  1.00  0.00     0.056 A 
HETATM    5  C   UNL     1       5.906  28.001  53.417  1.00  0.00     0.012 A 
HETATM    6  S   UNL     1       4.757  28.165  52.172  1.00  0.00    -0.055 SA
HETATM    7  C   UNL     1       3.931  29.357  53.104  1.00  0.00     0.167 A 
HETATM    8  N   UNL     1       4.460  29.586  54.284  1.00  0.00    -0.228 NA
HETATM    9  C   UNL     1       7.102  27.136  53.291  1.00  0.00     0.055 C 
HETATM   10  C   UNL     1       7.695  26.790  54.682  1.00  0.00     0.012 C 
HETATM   11  C   UNL     1       7.169  25.421  55.282  1.00  0.00     0.008 C 
HETATM   12  C   UNL     1       7.633  24.246  54.366  1.00  0.00     0.020 C 
HETATM   13  C   UNL     1       7.839  25.182  56.668  1.00  0.00     0.128 C 
HETATM   14  C   UNL     1       7.714  26.364  57.620  1.00  0.00     0.033 C 
HETATM   15  C   UNL     1       8.321  27.626  57.027  1.00  0.00     0.013 C 
ENDROOT
BRANCH   3  16
HETATM   16  C   UNL     1       5.523  28.713  57.023  1.00  0.00     0.114 C 
BRANCH  16  17
HETATM   17  C   UNL     1       4.965  29.997  57.610  1.00  0.00     0.218 C 
HETATM   18  N   UNL     1       5.805  30.884  58.219  1.00  0.00    -0.357 N 
HETATM   19  H   UNL     1       5.347  31.753  58.457  1.00  0.00     0.162 HD
HETATM   20  O   UNL     1       3.774  30.288  57.483  1.00  0.00    -0.274 OA
BRANCH  18  21
HETATM   21  C   UNL     1       7.225  30.732  58.467  1.00  0.00     0.162 C 
BRANCH  21  22
HETATM   22  C   UNL     1       7.723  31.209  59.803  1.00  0.00    -0.023 A 
HETATM   23  C   UNL     1       7.195  32.285  60.507  1.00  0.00     0.125 A 
HETATM   24  N   UNL     1       7.633  32.699  61.722  1.00  0.00    -0.273 NA
HETATM   25  C   UNL     1       8.642  31.996  62.275  1.00  0.00     0.116 A 
HETATM   26  C   UNL     1       9.240  30.907  61.669  1.00  0.00     0.020 A 
HETATM   27  C   UNL     1       8.775  30.515  60.417  1.00  0.00     0.012 A 
ENDBRANCH  21  22
ENDBRANCH  18  21
ENDBRANCH  16  17
ENDBRANCH   3  16
BRANCH  11  28
HETATM   28  C   UNL     1       5.622  25.336  55.353  1.00  0.00     0.176 C 
BRANCH  28  29
HETATM   29  O   UNL     1       5.036  24.775  54.182  1.00  0.00    -0.400 OA
HETATM   30  H   UNL     1       5.599  25.058  53.428  1.00  0.00     0.209 HD
ENDBRANCH  28  29
ENDBRANCH  11  28
BRANCH   7  31
HETATM   31  N   UNL     1       2.837  29.958  52.597  1.00  0.00    -0.366 N 
HETATM   32  H   UNL     1       1.945  29.798  53.045  1.00  0.00     0.162 HD
BRANCH  31  33
HETATM   33  C   UNL     1       2.769  30.311  51.199  1.00  0.00     0.148 C 
BRANCH  33  34
HETATM   34  C   UNL     1       1.718  29.511  50.476  1.00  0.00    -0.018 C 
HETATM   35  C   UNL     1       1.481  29.431  49.158  1.00  0.00     0.008 C 
ENDBRANCH  33  34
ENDBRANCH  31  33
ENDBRANCH   7  31
BRANCH  13  36
HETATM   36  O   UNL     1       7.280  24.034  57.310  1.00  0.00    -0.395 OA
HETATM   37  H   UNL     1       7.050  24.294  58.222  1.00  0.00     0.210 HD
ENDBRANCH  13  36
TORSDOF 10
ENDMDL
MODEL 5
REMARK VINA RESULT:      -7.9      7.448     10.724
REMARK  10 active torsions:
REMARK  status: ('A' for Active; 'I' for Inactive)
REMARK    1  A    between atoms: C_3  and  C_4 
REMARK    2  A    between atoms: C_4  and  C_5 
REMARK       I    between atoms: C_5  and  N_6 
REMARK    3  A    between atoms: N_6  and  C_7 
REMARK    4  A    between atoms: C_7  and  C_8 
REMARK    5  A    between atoms: C_18  and  N_19 
REMARK    6  A    between atoms: N_19  and  C_20 
REMARK    7  A    between atoms: C_20  and  C_21 
REMARK    8  A    between atoms: C_26  and  C_27 
REMARK    9  A    between atoms: C_27  and  O_28 
REMARK   10  A    between atoms: C_30  and  O_31 
ROOT
HETATM    1  C   UNL     1       1.927  34.191  62.942  1.00  0.00     0.016 C 
HETATM    2  C   UNL     1       3.410  34.704  62.985  1.00  0.00    -0.030 C 
HETATM    3  C   UNL     1       4.258  33.566  62.224  1.00  0.00     0.056 C 
HETATM    4  C   UNL     1       4.334  33.858  60.746  1.00  0.00     0.056 A 
HETATM    5  C   UNL     1       3.835  34.984  60.137  1.00  0.00     0.012 A 
HETATM    6  S   UNL     1       4.112  34.928  58.458  1.00  0.00    -0.055 SA
HETATM    7  C   UNL     1       4.815  33.364  58.635  1.00  0.00     0.167 A 
HETATM    8  N   UNL     1       4.873  32.932  59.874  1.00  0.00    -0.228 NA
HETATM    9  C   UNL     1       3.107  36.096  60.790  1.00  0.00     0.055 C 
HETATM   10  C   UNL     1       3.412  36.154  62.309  1.00  0.00     0.012 C 
HETATM   11  C   UNL     1       4.595  37.136  62.690  1.00  0.00     0.008 C 
HETATM   12  C   UNL     1       4.187  38.598  62.328  1.00  0.00     0.020 C 
HETATM   13  C   UNL     1       4.799  37.112  64.234  1.00  0.00     0.128 C 
HETATM   14  C   UNL     1       4.949  35.711  64.810  1.00  0.00     0.033 C 
HETATM   15  C   UNL     1       3.741  34.843  64.493  1.00  0.00     0.013 C 
ENDROOT
BRANCH   3  16
HETATM   16  C   UNL     1       5.626  33.200  62.833  1.00  0.00     0.114 C 
BRANCH  16  17
HETATM   17  C   UNL     1       5.886  31.706  62.922  1.00  0.00     0.218 C 
HETATM   18  N   UNL     1       7.126  31.216  62.632  1.00  0.00    -0.357 N 
HETATM   19  H   UNL     1       7.216  30.234  62.846  1.00  0.00     0.162 HD
HETATM   20  O   UNL     1       5.014  30.933  63.323  1.00  0.00    -0.274 OA
BRANCH  18  21
HETATM   21  C   UNL     1       8.279  31.952  62.150  1.00  0.00     0.162 C 
BRANCH  21  22
HETATM   22  C   UNL     1       8.708  31.668  60.738  1.00  0.00    -0.023 A 
HETATM   23  C   UNL     1       9.814  32.237  60.117  1.00  0.00     0.125 A 
HETATM   24  N   UNL     1      10.211  31.962  58.850  1.00  0.00    -0.273 NA
HETATM   25  C   UNL     1       9.477  31.060  58.166  1.00  0.00     0.116 A 
HETATM   26  C   UNL     1       8.362  30.428  58.685  1.00  0.00     0.020 A 
HETATM   27  C   UNL     1       7.975  30.741  59.985  1.00  0.00     0.012 A 
ENDBRANCH  21  22
ENDBRANCH  18  21
ENDBRANCH  16  17
ENDBRANCH   3  16
BRANCH  11  28
HETATM   28  C   UNL     1       5.908  36.844  61.918  1.00  0.00     0.176 C 
BRANCH  28  29
HETATM   29  O   UNL     1       6.753  37.985  61.795  1.00  0.00    -0.400 OA
HETATM   30  H   UNL     1       7.070  37.995  60.866  1.00  0.00     0.209 HD
ENDBRANCH  28  29
ENDBRANCH  11  28
BRANCH   7  31
HETATM   31  N   UNL     1       5.249  32.702  57.544  1.00  0.00    -0.366 N 
HETATM   32  H   UNL     1       6.143  32.958  57.147  1.00  0.00     0.162 HD
BRANCH  31  33
HETATM   33  C   UNL     1       4.314  32.103  56.622  1.00  0.00     0.148 C 
BRANCH  33  34
HETATM   34  C   UNL     1       4.052  30.659  56.958  1.00  0.00    -0.018 C 
HETATM   35  C   UNL     1       4.877  29.763  57.519  1.00  0.00     0.008 C 
ENDBRANCH  33  34
ENDBRANCH  31  33
ENDBRANCH   7  31
BRANCH  13  36
HETATM   36  O   UNL     1       5.953  37.870  64.605  1.00  0.00    -0.395 OA
HETATM   37  H   UNL     1       6.459  38.047  63.790  1.00  0.00     0.210 HD
ENDBRANCH  13  36
TORSDOF 10
ENDMDL
MODEL 6
REMARK VINA RESULT:      -7.9      3.148      6.967
REMARK  10 active torsions:
REMARK  status: ('A' for Active; 'I' for Inactive)
REMARK    1  A    between atoms: C_3  and  C_4 
REMARK    2  A    between atoms: C_4  and  C_5 
REMARK       I    between atoms: C_5  and  N_6 
REMARK    3  A    between atoms: N_6  and  C_7 
REMARK    4  A    between atoms: C_7  and  C_8 
REMARK    5  A    between atoms: C_18  and  N_19 
REMARK    6  A    between atoms: N_19  and  C_20 
REMARK    7  A    between atoms: C_20  and  C_21 
REMARK    8  A    between atoms: C_26  and  C_27 
REMARK    9  A    between atoms: C_27  and  O_28 
REMARK   10  A    between atoms: C_30  and  O_31 
ROOT
HETATM    1  C   UNL     1       4.243  26.787  56.807  1.00  0.00     0.016 C 
HETATM    2  C   UNL     1       5.060  27.720  55.846  1.00  0.00    -0.030 C 
HETATM    3  C   UNL     1       6.525  27.055  55.780  1.00  0.00     0.056 C 
HETATM    4  C   UNL     1       6.601  26.048  54.659  1.00  0.00     0.056 A 
HETATM    5  C   UNL     1       5.598  25.794  53.755  1.00  0.00     0.012 A 
HETATM    6  S   UNL     1       6.073  24.582  52.658  1.00  0.00    -0.055 SA
HETATM    7  C   UNL     1       7.564  24.412  53.506  1.00  0.00     0.167 A 
HETATM    8  N   UNL     1       7.711  25.237  54.517  1.00  0.00    -0.228 NA
HETATM    9  C   UNL     1       4.256  26.420  53.722  1.00  0.00     0.055 C 
HETATM   10  C   UNL     1       4.250  27.780  54.468  1.00  0.00     0.012 C 
HETATM   11  C   UNL     1       4.500  29.030  53.527  1.00  0.00     0.008 C 
HETATM   12  C   UNL     1       3.323  29.150  52.509  1.00  0.00     0.020 C 
HETATM   13  C   UNL     1       4.463  30.329  54.387  1.00  0.00     0.128 C 
HETATM   14  C   UNL     1       5.374  30.281  55.606  1.00  0.00     0.033 C 
HETATM   15  C   UNL     1       5.025  29.116  56.520  1.00  0.00     0.013 C 
ENDROOT
BRANCH   3  16
HETATM   16  C   UNL     1       7.725  28.021  55.798  1.00  0.00     0.114 C 
BRANCH  16  17
HETATM   17  C   UNL     1       8.614  27.885  57.022  1.00  0.00     0.218 C 
HETATM   18  N   UNL     1       8.893  28.984  57.782  1.00  0.00    -0.357 N 
HETATM   19  H   UNL     1       9.384  28.753  58.634  1.00  0.00     0.162 HD
HETATM   20  O   UNL     1       9.031  26.783  57.383  1.00  0.00    -0.274 OA
BRANCH  18  21
HETATM   21  C   UNL     1       8.500  30.357  57.532  1.00  0.00     0.162 C 
BRANCH  21  22
HETATM   22  C   UNL     1       8.219  31.201  58.744  1.00  0.00    -0.023 A 
HETATM   23  C   UNL     1       6.955  31.624  59.139  1.00  0.00     0.125 A 
HETATM   24  N   UNL     1       6.703  32.367  60.245  1.00  0.00    -0.273 NA
HETATM   25  C   UNL     1       7.764  32.696  61.009  1.00  0.00     0.116 A 
HETATM   26  C   UNL     1       9.064  32.327  60.717  1.00  0.00     0.020 A 
HETATM   27  C   UNL     1       9.290  31.573  59.568  1.00  0.00     0.012 A 
ENDBRANCH  21  22
ENDBRANCH  18  21
ENDBRANCH  16  17
ENDBRANCH   3  16
BRANCH  11  28
HETATM   28  C   UNL     1       5.797  28.917  52.686  1.00  0.00     0.176 C 
BRANCH  28  29
HETATM   29  O   UNL     1       5.825  29.807  51.574  1.00  0.00    -0.400 OA
HETATM   30  H   UNL     1       5.001  30.339  51.625  1.00  0.00     0.209 HD
ENDBRANCH  28  29
ENDBRANCH  11  28
BRANCH   7  31
HETATM   31  N   UNL     1       8.458  23.488  53.101  1.00  0.00    -0.366 N 
HETATM   32  H   UNL     1       8.464  23.215  52.128  1.00  0.00     0.162 HD
BRANCH  31  33
HETATM   33  C   UNL     1       8.968  22.500  54.022  1.00  0.00     0.148 C 
BRANCH  33  34
HETATM   34  C   UNL     1       8.305  21.163  53.823  1.00  0.00    -0.018 C 
HETATM   35  C   UNL     1       8.261  20.402  52.720  1.00  0.00     0.008 C 
ENDBRANCH  33  34
ENDBRANCH  31  33
ENDBRANCH   7  31
BRANCH  13  36
HETATM   36  O   UNL     1       4.831  31.466  53.603  1.00  0.00    -0.395 OA
HETATM   37  H   UNL     1       4.720  31.221  52.665  1.00  0.00     0.210 HD
ENDBRANCH  13  36
TORSDOF 10
ENDMDL
MODEL 7
REMARK VINA RESULT:      -7.7      4.146      9.224
REMARK  10 active torsions:
REMARK  status: ('A' for Active; 'I' for Inactive)
REMARK    1  A    between atoms: C_3  and  C_4 
REMARK    2  A    between atoms: C_4  and  C_5 
REMARK       I    between atoms: C_5  and  N_6 
REMARK    3  A    between atoms: N_6  and  C_7 
REMARK    4  A    between atoms: C_7  and  C_8 
REMARK    5  A    between atoms: C_18  and  N_19 
REMARK    6  A    between atoms: N_19  and  C_20 
REMARK    7  A    between atoms: C_20  and  C_21 
REMARK    8  A    between atoms: C_26  and  C_27 
REMARK    9  A    between atoms: C_27  and  O_28 
REMARK   10  A    between atoms: C_30  and  O_31 
ROOT
HETATM    1  C   UNL     1       6.218  29.622  49.050  1.00  0.00     0.016 C 
HETATM    2  C   UNL     1       4.783  29.265  49.574  1.00  0.00    -0.030 C 
HETATM    3  C   UNL     1       4.734  27.655  49.566  1.00  0.00     0.056 C 
HETATM    4  C   UNL     1       5.215  27.102  50.885  1.00  0.00     0.056 A 
HETATM    5  C   UNL     1       5.557  27.858  51.981  1.00  0.00     0.012 A 
HETATM    6  S   UNL     1       6.058  26.858  53.265  1.00  0.00    -0.055 SA
HETATM    7  C   UNL     1       5.862  25.476  52.253  1.00  0.00     0.167 A 
HETATM    8  N   UNL     1       5.413  25.745  51.049  1.00  0.00    -0.228 NA
HETATM    9  C   UNL     1       5.557  29.336  52.072  1.00  0.00     0.055 C 
HETATM   10  C   UNL     1       4.629  29.967  51.002  1.00  0.00     0.012 C 
HETATM   11  C   UNL     1       3.159  30.259  51.519  1.00  0.00     0.008 C 
HETATM   12  C   UNL     1       3.216  31.330  52.652  1.00  0.00     0.020 C 
HETATM   13  C   UNL     1       2.331  30.895  50.362  1.00  0.00     0.128 C 
HETATM   14  C   UNL     1       2.384  30.102  49.064  1.00  0.00     0.033 C 
HETATM   15  C   UNL     1       3.812  29.935  48.568  1.00  0.00     0.013 C 
ENDROOT
BRANCH   3  16
HETATM   16  C   UNL     1       3.422  27.004  49.087  1.00  0.00     0.114 C 
BRANCH  16  17
HETATM   17  C   UNL     1       3.441  26.567  47.633  1.00  0.00     0.218 C 
HETATM   18  N   UNL     1       2.323  26.721  46.865  1.00  0.00    -0.357 N 
HETATM   19  H   UNL     1       2.490  26.515  45.890  1.00  0.00     0.162 HD
HETATM   20  O   UNL     1       4.473  26.139  47.112  1.00  0.00    -0.274 OA
BRANCH  18  21
HETATM   21  C   UNL     1       1.021  27.203  47.283  1.00  0.00     0.162 C 
BRANCH  21  22
HETATM   22  C   UNL     1       0.225  27.951  46.250  1.00  0.00    -0.023 A 
HETATM   23  C   UNL     1      -0.426  27.361  45.172  1.00  0.00     0.125 A 
HETATM   24  N   UNL     1      -1.161  28.037  44.255  1.00  0.00    -0.273 NA
HETATM   25  C   UNL     1      -1.269  29.370  44.426  1.00  0.00     0.116 A 
HETATM   26  C   UNL     1      -0.670  30.061  45.463  1.00  0.00     0.020 A 
HETATM   27  C   UNL     1       0.088  29.340  46.381  1.00  0.00     0.012 A 
ENDBRANCH  21  22
ENDBRANCH  18  21
ENDBRANCH  16  17
ENDBRANCH   3  16
BRANCH  11  28
HETATM   28  C   UNL     1       2.463  29.015  52.127  1.00  0.00     0.176 C 
BRANCH  28  29
HETATM   29  O   UNL     1       1.404  28.512  51.316  1.00  0.00    -0.400 OA
HETATM   30  H   UNL     1       0.575  28.657  51.823  1.00  0.00     0.209 HD
ENDBRANCH  28  29
ENDBRANCH  11  28
BRANCH   7  31
HETATM   31  N   UNL     1       6.162  24.253  52.732  1.00  0.00    -0.366 N 
HETATM   32  H   UNL     1       5.553  23.480  52.499  1.00  0.00     0.162 HD
BRANCH  31  33
HETATM   33  C   UNL     1       6.907  24.102  53.959  1.00  0.00     0.148 C 
BRANCH  33  34
HETATM   34  C   UNL     1       7.586  22.759  54.033  1.00  0.00    -0.018 C 
HETATM   35  C   UNL     1       8.017  21.978  53.031  1.00  0.00     0.008 C 
ENDBRANCH  33  34
ENDBRANCH  31  33
ENDBRANCH   7  31
BRANCH  13  36
HETATM   36  O   UNL     1       0.960  31.037  50.740  1.00  0.00    -0.395 OA
HETATM   37  H   UNL     1       0.776  31.993  50.811  1.00  0.00     0.210 HD
ENDBRANCH  13  36
TORSDOF 10
ENDMDL
MODEL 8
REMARK VINA RESULT:      -7.7      4.555      8.621
REMARK  10 active torsions:
REMARK  status: ('A' for Active; 'I' for Inactive)
REMARK    1  A    between atoms: C_3  and  C_4 
REMARK    2  A    between atoms: C_4  and  C_5 
REMARK       I    between atoms: C_5  and  N_6 
REMARK    3  A    between atoms: N_6  and  C_7 
REMARK    4  A    between atoms: C_7  and  C_8 
REMARK    5  A    between atoms: C_18  and  N_19 
REMARK    6  A    between atoms: N_19  and  C_20 
REMARK    7  A    between atoms: C_20  and  C_21 
REMARK    8  A    between atoms: C_26  and  C_27 
REMARK    9  A    between atoms: C_27  and  O_28 
REMARK   10  A    between atoms: C_30  and  O_31 
ROOT
HETATM    1  C   UNL     1       8.877  29.025  54.675  1.00  0.00     0.016 C 
HETATM    2  C   UNL     1       8.027  28.359  55.813  1.00  0.00    -0.030 C 
HETATM    3  C   UNL     1       7.498  29.592  56.703  1.00  0.00     0.056 C 
HETATM    4  C   UNL     1       6.173  30.094  56.183  1.00  0.00     0.056 A 
HETATM    5  C   UNL     1       5.462  29.524  55.154  1.00  0.00     0.012 A 
HETATM    6  S   UNL     1       4.028  30.394  54.865  1.00  0.00    -0.055 SA
HETATM    7  C   UNL     1       4.481  31.528  56.082  1.00  0.00     0.167 A 
HETATM    8  N   UNL     1       5.611  31.249  56.690  1.00  0.00    -0.228 NA
HETATM    9  C   UNL     1       5.862  28.351  54.343  1.00  0.00     0.055 C 
HETATM   10  C   UNL     1       6.904  27.479  55.090  1.00  0.00     0.012 C 
HETATM   11  C   UNL     1       6.268  26.284  55.915  1.00  0.00     0.008 C 
HETATM   12  C   UNL     1       5.577  25.291  54.930  1.00  0.00     0.020 C 
HETATM   13  C   UNL     1       7.409  25.482  56.609  1.00  0.00     0.128 C 
HETATM   14  C   UNL     1       8.364  26.351  57.416  1.00  0.00     0.033 C 
HETATM   15  C   UNL     1       9.015  27.420  56.552  1.00  0.00     0.013 C 
ENDROOT
BRANCH   3  16
HETATM   16  C   UNL     1       7.505  29.396  58.231  1.00  0.00     0.114 C 
BRANCH  16  17
HETATM   17  C   UNL     1       8.629  30.125  58.946  1.00  0.00     0.218 C 
HETATM   18  N   UNL     1       8.334  31.096  59.859  1.00  0.00    -0.357 N 
HETATM   19  H   UNL     1       9.149  31.420  60.359  1.00  0.00     0.162 HD
HETATM   20  O   UNL     1       9.806  29.806  58.768  1.00  0.00    -0.274 OA
BRANCH  18  21
HETATM   21  C   UNL     1       7.026  31.613  60.210  1.00  0.00     0.162 C 
BRANCH  21  22
HETATM   22  C   UNL     1       6.946  32.420  61.476  1.00  0.00    -0.023 A 
HETATM   23  C   UNL     1       6.053  33.462  61.696  1.00  0.00     0.125 A 
HETATM   24  N   UNL     1       5.970  34.174  62.847  1.00  0.00    -0.273 NA
HETATM   25  C   UNL     1       6.811  33.821  63.841  1.00  0.00     0.116 A 
HETATM   26  C   UNL     1       7.736  32.800  63.736  1.00  0.00     0.020 A 
HETATM   27  C   UNL     1       7.803  32.095  62.537  1.00  0.00     0.012 A 
ENDBRANCH  21  22
ENDBRANCH  18  21
ENDBRANCH  16  17
ENDBRANCH   3  16
BRANCH  11  28
HETATM   28  C   UNL     1       5.176  26.741  56.916  1.00  0.00     0.176 C 
BRANCH  28  29
HETATM   29  O   UNL     1       4.285  25.695  57.291  1.00  0.00    -0.400 OA
HETATM   30  H   UNL     1       4.619  24.879  56.858  1.00  0.00     0.209 HD
ENDBRANCH  28  29
ENDBRANCH  11  28
BRANCH   7  31
HETATM   31  N   UNL     1       3.686  32.587  56.335  1.00  0.00    -0.366 N 
HETATM   32  H   UNL     1       3.556  33.278  55.609  1.00  0.00     0.162 HD
BRANCH  31  33
HETATM   33  C   UNL     1       3.503  33.068  57.683  1.00  0.00     0.148 C 
BRANCH  33  34
HETATM   34  C   UNL     1       4.208  34.380  57.904  1.00  0.00    -0.018 C 
HETATM   35  C   UNL     1       3.951  35.329  58.817  1.00  0.00     0.008 C 
ENDBRANCH  33  34
ENDBRANCH  31  33
ENDBRANCH   7  31
BRANCH  13  36
HETATM   36  O   UNL     1       6.870  24.487  57.483  1.00  0.00    -0.395 OA
HETATM   37  H   UNL     1       6.110  24.081  57.026  1.00  0.00     0.210 HD
ENDBRANCH  13  36
TORSDOF 10
ENDMDL
MODEL 9
REMARK VINA RESULT:      -7.5      7.266     11.161
REMARK  10 active torsions:
REMARK  status: ('A' for Active; 'I' for Inactive)
REMARK    1  A    between atoms: C_3  and  C_4 
REMARK    2  A    between atoms: C_4  and  C_5 
REMARK       I    between atoms: C_5  and  N_6 
REMARK    3  A    between atoms: N_6  and  C_7 
REMARK    4  A    between atoms: C_7  and  C_8 
REMARK    5  A    between atoms: C_18  and  N_19 
REMARK    6  A    between atoms: N_19  and  C_20 
REMARK    7  A    between atoms: C_20  and  C_21 
REMARK    8  A    between atoms: C_26  and  C_27 
REMARK    9  A    between atoms: C_27  and  O_28 
REMARK   10  A    between atoms: C_30  and  O_31 
ROOT
HETATM    1  C   UNL     1       1.324  29.622  50.199  1.00  0.00     0.016 C 
HETATM    2  C   UNL     1       2.109  29.042  48.969  1.00  0.00    -0.030 C 
HETATM    3  C   UNL     1       2.465  30.329  48.069  1.00  0.00     0.056 C 
HETATM    4  C   UNL     1       3.795  30.914  48.479  1.00  0.00     0.056 A 
HETATM    5  C   UNL     1       4.636  30.375  49.422  1.00  0.00     0.012 A 
HETATM    6  S   UNL     1       6.028  31.339  49.603  1.00  0.00    -0.055 SA
HETATM    7  C   UNL     1       5.386  32.463  48.464  1.00  0.00     0.167 A 
HETATM    8  N   UNL     1       4.226  32.116  47.954  1.00  0.00    -0.228 NA
HETATM    9  C   UNL     1       4.397  29.159  50.234  1.00  0.00     0.055 C 
HETATM   10  C   UNL     1       3.353  28.231  49.561  1.00  0.00     0.012 C 
HETATM   11  C   UNL     1       3.990  27.102  48.649  1.00  0.00     0.008 C 
HETATM   12  C   UNL     1       4.838  26.141  49.539  1.00  0.00     0.020 C 
HETATM   13  C   UNL     1       2.848  26.235  48.041  1.00  0.00     0.128 C 
HETATM   14  C   UNL     1       1.764  27.050  47.349  1.00  0.00     0.033 C 
HETATM   15  C   UNL     1       1.124  28.051  48.299  1.00  0.00     0.013 C 
ENDROOT
BRANCH   3  16
HETATM   16  C   UNL     1       2.329  30.165  46.543  1.00  0.00     0.114 C 
BRANCH  16  17
HETATM   17  C   UNL     1       1.480  31.234  45.877  1.00  0.00     0.218 C 
HETATM   18  N   UNL     1       0.158  30.996  45.637  1.00  0.00    -0.357 N 
HETATM   19  H   UNL     1      -0.332  31.816  45.309  1.00  0.00     0.162 HD
HETATM   20  O   UNL     1       1.948  32.342  45.612  1.00  0.00    -0.274 OA
BRANCH  18  21
HETATM   21  C   UNL     1      -0.578  29.769  45.873  1.00  0.00     0.162 C 
BRANCH  21  22
HETATM   22  C   UNL     1      -0.859  28.917  44.667  1.00  0.00    -0.023 A 
HETATM   23  C   UNL     1      -0.746  27.532  44.632  1.00  0.00     0.125 A 
HETATM   24  N   UNL     1      -1.020  26.765  43.548  1.00  0.00    -0.273 NA
HETATM   25  C   UNL     1      -1.444  27.408  42.441  1.00  0.00     0.116 A 
HETATM   26  C   UNL     1      -1.598  28.780  42.363  1.00  0.00     0.020 A 
HETATM   27  C   UNL     1      -1.297  29.540  43.490  1.00  0.00     0.012 A 
ENDBRANCH  21  22
ENDBRANCH  18  21
ENDBRANCH  16  17
ENDBRANCH   3  16
BRANCH  11  28
HETATM   28  C   UNL     1       4.950  27.657  47.566  1.00  0.00     0.176 C 
BRANCH  28  29
HETATM   29  O   UNL     1       5.859  26.680  47.066  1.00  0.00    -0.400 OA
HETATM   30  H   UNL     1       6.453  27.150  46.441  1.00  0.00     0.209 HD
ENDBRANCH  28  29
ENDBRANCH  11  28
BRANCH   7  31
HETATM   31  N   UNL     1       6.078  33.581  48.168  1.00  0.00    -0.366 N 
HETATM   32  H   UNL     1       5.828  34.442  48.636  1.00  0.00     0.162 HD
BRANCH  31  33
HETATM   33  C   UNL     1       6.709  33.741  46.880  1.00  0.00     0.148 C 
BRANCH  33  34
HETATM   34  C   UNL     1       7.876  34.690  46.948  1.00  0.00    -0.018 C 
HETATM   35  C   UNL     1       8.627  35.025  48.008  1.00  0.00     0.008 C 
ENDBRANCH  33  34
ENDBRANCH  31  33
ENDBRANCH   7  31
BRANCH  13  36
HETATM   36  O   UNL     1       3.371  25.300  47.094  1.00  0.00    -0.395 OA
HETATM   37  H   UNL     1       3.614  24.494  47.587  1.00  0.00     0.210 HD
ENDBRANCH  13  36
TORSDOF 10
ENDMDL
MODEL 10
REMARK VINA RESULT:      -7.4      4.145      8.267
REMARK  10 active torsions:
REMARK  status: ('A' for Active; 'I' for Inactive)
REMARK    1  A    between atoms: C_3  and  C_4 
REMARK    2  A    between atoms: C_4  and  C_5 
REMARK       I    between atoms: C_5  and  N_6 
REMARK    3  A    between atoms: N_6  and  C_7 
REMARK    4  A    between atoms: C_7  and  C_8 
REMARK    5  A    between atoms: C_18  and  N_19 
REMARK    6  A    between atoms: N_19  and  C_20 
REMARK    7  A    between atoms: C_20  and  C_21 
REMARK    8  A    between atoms: C_26  and  C_27 
REMARK    9  A    between atoms: C_27  and  O_28 
REMARK   10  A    between atoms: C_30  and  O_31 
ROOT
HETATM    1  C   UNL     1       5.988  28.041  47.129  1.00  0.00     0.016 C 
HETATM    2  C   UNL     1       4.697  27.969  48.020  1.00  0.00    -0.030 C 
HETATM    3  C   UNL     1       5.181  28.451  49.479  1.00  0.00     0.056 C 
HETATM    4  C   UNL     1       5.041  29.947  49.619  1.00  0.00     0.056 A 
HETATM    5  C   UNL     1       4.489  30.779  48.676  1.00  0.00     0.012 A 
HETATM    6  S   UNL     1       4.526  32.396  49.209  1.00  0.00    -0.055 SA
HETATM    7  C   UNL     1       5.350  31.895  50.638  1.00  0.00     0.167 A 
HETATM    8  N   UNL     1       5.547  30.600  50.726  1.00  0.00    -0.228 NA
HETATM    9  C   UNL     1       3.965  30.389  47.346  1.00  0.00     0.055 C 
HETATM   10  C   UNL     1       3.597  28.883  47.306  1.00  0.00     0.012 C 
HETATM   11  C   UNL     1       2.075  28.585  47.632  1.00  0.00     0.008 C 
HETATM   12  C   UNL     1       1.178  29.226  46.529  1.00  0.00     0.020 C 
HETATM   13  C   UNL     1       1.830  27.049  47.553  1.00  0.00     0.128 C 
HETATM   14  C   UNL     1       2.812  26.229  48.379  1.00  0.00     0.033 C 
HETATM   15  C   UNL     1       4.250  26.487  47.956  1.00  0.00     0.013 C 
ENDROOT
BRANCH   3  16
HETATM   16  C   UNL     1       4.612  27.681  50.686  1.00  0.00     0.114 C 
BRANCH  16  17
HETATM   17  C   UNL     1       5.632  26.819  51.410  1.00  0.00     0.218 C 
HETATM   18  N   UNL     1       5.998  27.133  52.687  1.00  0.00    -0.357 N 
HETATM   19  H   UNL     1       6.581  26.425  53.109  1.00  0.00     0.162 HD
HETATM   20  O   UNL     1       6.083  25.797  50.890  1.00  0.00    -0.274 OA
BRANCH  18  21
HETATM   21  C   UNL     1       5.585  28.281  53.470  1.00  0.00     0.162 C 
BRANCH  21  22
HETATM   22  C   UNL     1       6.062  28.322  54.895  1.00  0.00    -0.023 A 
HETATM   23  C   UNL     1       5.248  28.561  55.997  1.00  0.00     0.125 A 
HETATM   24  N   UNL     1       5.678  28.575  57.282  1.00  0.00    -0.273 NA
HETATM   25  C   UNL     1       6.987  28.324  57.488  1.00  0.00     0.116 A 
HETATM   26  C   UNL     1       7.887  28.069  56.470  1.00  0.00     0.020 A 
HETATM   27  C   UNL     1       7.416  28.072  55.160  1.00  0.00     0.012 A 
ENDBRANCH  21  22
ENDBRANCH  18  21
ENDBRANCH  16  17
ENDBRANCH   3  16
BRANCH  11  28
HETATM   28  C   UNL     1       1.607  29.187  48.982  1.00  0.00     0.176 C 
BRANCH  28  29
HETATM   29  O   UNL     1       1.450  28.211  50.008  1.00  0.00    -0.400 OA
HETATM   30  H   UNL     1       0.726  27.616  49.715  1.00  0.00     0.209 HD
ENDBRANCH  28  29
ENDBRANCH  11  28
BRANCH   7  31
HETATM   31  N   UNL     1       5.727  32.817  51.547  1.00  0.00    -0.366 N 
HETATM   32  H   UNL     1       5.404  32.716  52.499  1.00  0.00     0.162 HD
BRANCH  31  33
HETATM   33  C   UNL     1       6.046  34.165  51.143  1.00  0.00     0.148 C 
BRANCH  33  34
HETATM   34  C   UNL     1       6.160  35.087  52.329  1.00  0.00    -0.018 C 
HETATM   35  C   UNL     1       7.263  35.618  52.878  1.00  0.00     0.008 C 
ENDBRANCH  33  34
ENDBRANCH  31  33
ENDBRANCH   7  31
BRANCH  13  36
HETATM   36  O   UNL     1       0.507  26.724  47.986  1.00  0.00    -0.395 OA
HETATM   37  H   UNL     1      -0.105  26.987  47.273  1.00  0.00     0.210 HD
ENDBRANCH  13  36
TORSDOF 10
ENDMDL
