MODEL 1
REMARK VINA RESULT:      -8.1      0.000      0.000
REMARK  5 active torsions:
REMARK  status: ('A' for Active; 'I' for Inactive)
REMARK    1  A    between atoms: C_3  and  N_4 
REMARK       I    between atoms: N_4  and  C_5 
REMARK       I    between atoms: C_5  and  N_6 
REMARK    2  A    between atoms: N_6  and  C_7 
REMARK    3  A    between atoms: C_7  and  C_8 
REMARK    4  A    between atoms: C_8  and  O_9 
REMARK    5  A    between atoms: O_9  and  C_10 
ROOT
HETATM    1  N   UNL     1       7.945  28.482  57.436  1.00  0.00    -0.307 N 
HETATM    2  C   UNL     1       6.951  28.543  56.484  1.00  0.00     0.320 C 
HETATM    3  N   UNL     1       6.534  27.275  56.139  1.00  0.00    -0.340 N 
HETATM    4  O   UNL     1       6.436  29.553  56.028  1.00  0.00    -0.247 OA
HETATM    5  H   UNL     1       7.860  27.663  58.022  1.00  0.00     0.170 HD
HETATM    6  H   UNL     1       7.205  26.525  56.237  1.00  0.00     0.164 HD
ENDROOT
BRANCH   3   7
HETATM    7  C   UNL     1       5.469  27.066  55.170  1.00  0.00     0.156 C 
BRANCH   7   8
HETATM    8  C   UNL     1       5.575  25.728  54.412  1.00  0.00     0.142 C 
HETATM    9  C   UNL     1       4.828  25.750  53.080  1.00  0.00     0.042 C 
BRANCH   8  10
HETATM   10  O   UNL     1       6.951  25.437  54.116  1.00  0.00    -0.345 OA
BRANCH  10  11
HETATM   11  C   UNL     1       7.378  24.139  54.146  1.00  0.00     0.069 A 
HETATM   12  C   UNL     1       7.804  23.379  53.056  1.00  0.00     0.038 A 
HETATM   13  C   UNL     1       8.203  22.049  53.235  1.00  0.00     0.026 A 
HETATM   14  C   UNL     1       8.177  21.478  54.506  1.00  0.00     0.034 A 
HETATM   15 CL   UNL     1       8.667  19.844  54.720  1.00  0.00    -0.084 Cl
HETATM   16  C   UNL     1       7.751  22.226  55.599  1.00  0.00     0.026 A 
HETATM   17  C   UNL     1       7.352  23.551  55.416  1.00  0.00     0.038 A 
ENDBRANCH  10  11
ENDBRANCH   8  10
ENDBRANCH   7   8
ENDBRANCH   3   7
BRANCH   1  18
HETATM   18  C   UNL     1       8.609  29.589  58.016  1.00  0.00     0.059 A 
HETATM   19  C   UNL     1       9.823  30.144  57.586  1.00  0.00    -0.032 A 
HETATM   20  C   UNL     1      10.674  29.590  56.480  1.00  0.00     0.050 C 
HETATM   21  C   UNL     1      10.303  31.288  58.251  1.00  0.00     0.028 A 
HETATM   22  C   UNL     1       9.609  31.790  59.340  1.00  0.00     0.117 A 
HETATM   23  N   UNL     1       8.481  31.238  59.821  1.00  0.00    -0.271 NA
HETATM   24  C   UNL     1       8.016  30.158  59.150  1.00  0.00     0.146 A 
ENDBRANCH   1  18
TORSDOF 5
ENDMDL
MODEL 2
REMARK VINA RESULT:      -7.9      1.643      2.151
REMARK  5 active torsions:
REMARK  status: ('A' for Active; 'I' for Inactive)
REMARK    1  A    between atoms: C_3  and  N_4 
REMARK       I    between atoms: N_4  and  C_5 
REMARK       I    between atoms: C_5  and  N_6 
REMARK    2  A    between atoms: N_6  and  C_7 
REMARK    3  A    between atoms: C_7  and  C_8 
REMARK    4  A    between atoms: C_8  and  O_9 
REMARK    5  A    between atoms: O_9  and  C_10 
ROOT
HETATM    1  N   UNL     1       7.694  28.876  55.111  1.00  0.00    -0.307 N 
HETATM    2  C   UNL     1       7.034  27.669  55.188  1.00  0.00     0.320 C 
HETATM    3  N   UNL     1       6.251  27.474  54.070  1.00  0.00    -0.340 N 
HETATM    4  O   UNL     1       7.142  26.831  56.071  1.00  0.00    -0.247 OA
HETATM    5  H   UNL     1       7.879  29.147  54.155  1.00  0.00     0.170 HD
HETATM    6  H   UNL     1       5.910  28.299  53.595  1.00  0.00     0.164 HD
ENDROOT
BRANCH   3   7
HETATM    7  C   UNL     1       5.471  26.258  53.895  1.00  0.00     0.156 C 
BRANCH   7   8
HETATM    8  C   UNL     1       6.036  25.311  52.819  1.00  0.00     0.142 C 
HETATM    9  C   UNL     1       5.943  25.900  51.413  1.00  0.00     0.042 C 
BRANCH   8  10
HETATM   10  O   UNL     1       7.427  25.051  53.073  1.00  0.00    -0.345 OA
BRANCH  10  11
HETATM   11  C   UNL     1       7.794  23.844  53.600  1.00  0.00     0.069 A 
HETATM   12  C   UNL     1       7.791  22.614  52.942  1.00  0.00     0.038 A 
HETATM   13  C   UNL     1       8.182  21.451  53.617  1.00  0.00     0.026 A 
HETATM   14  C   UNL     1       8.576  21.519  54.951  1.00  0.00     0.034 A 
HETATM   15 CL   UNL     1       9.055  20.087  55.776  1.00  0.00    -0.084 Cl
HETATM   16  C   UNL     1       8.580  22.739  55.618  1.00  0.00     0.026 A 
HETATM   17  C   UNL     1       8.187  23.897  54.942  1.00  0.00     0.038 A 
ENDBRANCH  10  11
ENDBRANCH   8  10
ENDBRANCH   7   8
ENDBRANCH   3   7
BRANCH   1  18
HETATM   18  C   UNL     1       8.577  29.404  56.083  1.00  0.00     0.059 A 
HETATM   19  C   UNL     1       8.221  29.874  57.356  1.00  0.00    -0.032 A 
HETATM   20  C   UNL     1       6.813  29.980  57.867  1.00  0.00     0.050 C 
HETATM   21  C   UNL     1       9.248  30.308  58.215  1.00  0.00     0.028 A 
HETATM   22  C   UNL     1      10.558  30.322  57.765  1.00  0.00     0.117 A 
HETATM   23  N   UNL     1      10.923  29.945  56.527  1.00  0.00    -0.271 NA
HETATM   24  C   UNL     1       9.927  29.500  55.725  1.00  0.00     0.146 A 
ENDBRANCH   1  18
TORSDOF 5
ENDMDL
MODEL 3
REMARK VINA RESULT:      -7.8      4.066      8.905
REMARK  5 active torsions:
REMARK  status: ('A' for Active; 'I' for Inactive)
REMARK    1  A    between atoms: C_3  and  N_4 
REMARK       I    between atoms: N_4  and  C_5 
REMARK       I    between atoms: C_5  and  N_6 
REMARK    2  A    between atoms: N_6  and  C_7 
REMARK    3  A    between atoms: C_7  and  C_8 
REMARK    4  A    between atoms: C_8  and  O_9 
REMARK    5  A    between atoms: O_9  and  C_10 
ROOT
HETATM    1  N   UNL     1       8.674  24.555  56.309  1.00  0.00    -0.307 N 
HETATM    2  C   UNL     1       7.757  25.524  56.652  1.00  0.00     0.320 C 
HETATM    3  N   UNL     1       8.396  26.641  57.147  1.00  0.00    -0.340 N 
HETATM    4  O   UNL     1       6.546  25.471  56.501  1.00  0.00    -0.247 OA
HETATM    5  H   UNL     1       9.559  24.953  56.027  1.00  0.00     0.170 HD
HETATM    6  H   UNL     1       9.295  26.502  57.589  1.00  0.00     0.164 HD
ENDROOT
BRANCH   3   7
HETATM    7  C   UNL     1       7.650  27.821  57.556  1.00  0.00     0.156 C 
BRANCH   7   8
HETATM    8  C   UNL     1       8.540  29.045  57.849  1.00  0.00     0.142 C 
HETATM    9  C   UNL     1       9.338  29.493  56.627  1.00  0.00     0.042 C 
BRANCH   8  10
HETATM   10  O   UNL     1       7.726  30.160  58.249  1.00  0.00    -0.345 OA
BRANCH  10  11
HETATM   11  C   UNL     1       7.938  30.733  59.472  1.00  0.00     0.069 A 
HETATM   12  C   UNL     1       9.040  30.531  60.306  1.00  0.00     0.038 A 
HETATM   13  C   UNL     1       9.116  31.178  61.544  1.00  0.00     0.026 A 
HETATM   14  C   UNL     1       8.091  32.031  61.950  1.00  0.00     0.034 A 
HETATM   15 CL   UNL     1       8.190  32.824  63.473  1.00  0.00    -0.084 Cl
HETATM   16  C   UNL     1       6.988  32.238  61.129  1.00  0.00     0.026 A 
HETATM   17  C   UNL     1       6.914  31.588  59.895  1.00  0.00     0.038 A 
ENDBRANCH  10  11
ENDBRANCH   8  10
ENDBRANCH   7   8
ENDBRANCH   3   7
BRANCH   1  18
HETATM   18  C   UNL     1       8.375  23.278  55.776  1.00  0.00     0.059 A 
HETATM   19  C   UNL     1       8.061  22.993  54.439  1.00  0.00    -0.032 A 
HETATM   20  C   UNL     1       7.900  24.022  53.358  1.00  0.00     0.050 C 
HETATM   21  C   UNL     1       7.851  21.649  54.078  1.00  0.00     0.028 A 
HETATM   22  C   UNL     1       7.894  20.663  55.051  1.00  0.00     0.117 A 
HETATM   23  N   UNL     1       8.122  20.912  56.353  1.00  0.00    -0.271 NA
HETATM   24  C   UNL     1       8.353  22.206  56.677  1.00  0.00     0.146 A 
ENDBRANCH   1  18
TORSDOF 5
ENDMDL
MODEL 4
REMARK VINA RESULT:      -7.8      0.965      1.372
REMARK  5 active torsions:
REMARK  status: ('A' for Active; 'I' for Inactive)
REMARK    1  A    between atoms: C_3  and  N_4 
REMARK       I    between atoms: N_4  and  C_5 
REMARK       I    between atoms: C_5  and  N_6 
REMARK    2  A    between atoms: N_6  and  C_7 
REMARK    3  A    between atoms: C_7  and  C_8 
REMARK    4  A    between atoms: C_8  and  O_9 
REMARK    5  A    between atoms: O_9  and  C_10 
ROOT
HETATM    1  N   UNL     1       8.251  28.450  56.628  1.00  0.00    -0.307 N 
HETATM    2  C   UNL     1       7.337  28.568  55.604  1.00  0.00     0.320 C 
HETATM    3  N   UNL     1       7.252  27.388  54.895  1.00  0.00    -0.340 N 
HETATM    4  O   UNL     1       6.634  29.536  55.359  1.00  0.00    -0.247 OA
HETATM    5  H   UNL     1       8.319  27.502  56.970  1.00  0.00     0.170 HD
HETATM    6  H   UNL     1       8.070  26.795  54.884  1.00  0.00     0.164 HD
ENDROOT
BRANCH   3   7
HETATM    7  C   UNL     1       6.333  27.242  53.776  1.00  0.00     0.156 C 
BRANCH   7   8
HETATM    8  C   UNL     1       6.410  25.866  53.087  1.00  0.00     0.142 C 
HETATM    9  C   UNL     1       6.059  25.935  51.603  1.00  0.00     0.042 C 
BRANCH   8  10
HETATM   10  O   UNL     1       7.747  25.344  53.178  1.00  0.00    -0.345 OA
BRANCH  10  11
HETATM   11  C   UNL     1       7.949  24.133  53.779  1.00  0.00     0.069 A 
HETATM   12  C   UNL     1       8.230  23.911  55.128  1.00  0.00     0.038 A 
HETATM   13  C   UNL     1       8.428  22.608  55.602  1.00  0.00     0.026 A 
HETATM   14  C   UNL     1       8.343  21.527  54.727  1.00  0.00     0.034 A 
HETATM   15 CL   UNL     1       8.588  19.930  55.315  1.00  0.00    -0.084 Cl
HETATM   16  C   UNL     1       8.066  21.737  53.380  1.00  0.00     0.026 A 
HETATM   17  C   UNL     1       7.872  23.038  52.910  1.00  0.00     0.038 A 
ENDBRANCH  10  11
ENDBRANCH   8  10
ENDBRANCH   7   8
ENDBRANCH   3   7
BRANCH   1  18
HETATM   18  C   UNL     1       8.598  29.464  57.553  1.00  0.00     0.059 A 
HETATM   19  C   UNL     1       9.851  30.085  57.669  1.00  0.00    -0.032 A 
HETATM   20  C   UNL     1      11.071  29.705  56.881  1.00  0.00     0.050 C 
HETATM   21  C   UNL     1       9.994  31.121  58.610  1.00  0.00     0.028 A 
HETATM   22  C   UNL     1       8.929  31.454  59.432  1.00  0.00     0.117 A 
HETATM   23  N   UNL     1       7.738  30.830  59.394  1.00  0.00    -0.271 NA
HETATM   24  C   UNL     1       7.608  29.857  58.461  1.00  0.00     0.146 A 
ENDBRANCH   1  18
TORSDOF 5
ENDMDL
MODEL 5
REMARK VINA RESULT:      -7.7      3.976      6.082
REMARK  5 active torsions:
REMARK  status: ('A' for Active; 'I' for Inactive)
REMARK    1  A    between atoms: C_3  and  N_4 
REMARK       I    between atoms: N_4  and  C_5 
REMARK       I    between atoms: C_5  and  N_6 
REMARK    2  A    between atoms: N_6  and  C_7 
REMARK    3  A    between atoms: C_7  and  C_8 
REMARK    4  A    between atoms: C_8  and  O_9 
REMARK    5  A    between atoms: O_9  and  C_10 
ROOT
HETATM    1  N   UNL     1       6.660  31.218  61.837  1.00  0.00    -0.307 N 
HETATM    2  C   UNL     1       7.547  31.543  60.834  1.00  0.00     0.320 C 
HETATM    3  N   UNL     1       8.102  30.403  60.292  1.00  0.00    -0.340 N 
HETATM    4  O   UNL     1       7.792  32.661  60.409  1.00  0.00    -0.247 OA
HETATM    5  H   UNL     1       6.230  30.316  61.686  1.00  0.00     0.170 HD
HETATM    6  H   UNL     1       8.167  29.590  60.890  1.00  0.00     0.164 HD
ENDROOT
BRANCH   3   7
HETATM    7  C   UNL     1       9.052  30.473  59.192  1.00  0.00     0.156 C 
BRANCH   7   8
HETATM    8  C   UNL     1       8.661  29.607  57.980  1.00  0.00     0.142 C 
HETATM    9  C   UNL     1       9.858  29.262  57.097  1.00  0.00     0.042 C 
BRANCH   8  10
HETATM   10  O   UNL     1       8.096  28.363  58.425  1.00  0.00    -0.345 OA
BRANCH  10  11
HETATM   11  C   UNL     1       7.542  27.516  57.505  1.00  0.00     0.069 A 
HETATM   12  C   UNL     1       8.020  26.256  57.141  1.00  0.00     0.038 A 
HETATM   13  C   UNL     1       7.353  25.502  56.168  1.00  0.00     0.026 A 
HETATM   14  C   UNL     1       6.207  26.007  55.559  1.00  0.00     0.034 A 
HETATM   15 CL   UNL     1       5.392  25.077  54.364  1.00  0.00    -0.084 Cl
HETATM   16  C   UNL     1       5.723  27.263  55.912  1.00  0.00     0.026 A 
HETATM   17  C   UNL     1       6.393  28.014  56.881  1.00  0.00     0.038 A 
ENDBRANCH  10  11
ENDBRANCH   8  10
ENDBRANCH   7   8
ENDBRANCH   3   7
BRANCH   1  18
HETATM   18  C   UNL     1       5.913  32.134  62.615  1.00  0.00     0.059 A 
HETATM   19  C   UNL     1       6.419  32.975  63.616  1.00  0.00    -0.032 A 
HETATM   20  C   UNL     1       7.842  32.976  64.096  1.00  0.00     0.050 C 
HETATM   21  C   UNL     1       5.532  33.869  64.244  1.00  0.00     0.028 A 
HETATM   22  C   UNL     1       4.187  33.850  63.910  1.00  0.00     0.117 A 
HETATM   23  N   UNL     1       3.658  33.007  63.006  1.00  0.00    -0.271 NA
HETATM   24  C   UNL     1       4.531  32.176  62.388  1.00  0.00     0.146 A 
ENDBRANCH   1  18
TORSDOF 5
ENDMDL
MODEL 6
REMARK VINA RESULT:      -7.6      4.012      7.187
REMARK  5 active torsions:
REMARK  status: ('A' for Active; 'I' for Inactive)
REMARK    1  A    between atoms: C_3  and  N_4 
REMARK       I    between atoms: N_4  and  C_5 
REMARK       I    between atoms: C_5  and  N_6 
REMARK    2  A    between atoms: N_6  and  C_7 
REMARK    3  A    between atoms: C_7  and  C_8 
REMARK    4  A    between atoms: C_8  and  O_9 
REMARK    5  A    between atoms: O_9  and  C_10 
ROOT
HETATM    1  N   UNL     1       7.992  23.691  53.433  1.00  0.00    -0.307 N 
HETATM    2  C   UNL     1       6.844  24.383  53.116  1.00  0.00     0.320 C 
HETATM    3  N   UNL     1       7.072  25.240  52.061  1.00  0.00    -0.340 N 
HETATM    4  O   UNL     1       5.743  24.246  53.627  1.00  0.00    -0.247 OA
HETATM    5  H   UNL     1       8.589  23.558  52.629  1.00  0.00     0.170 HD
HETATM    6  H   UNL     1       8.015  25.584  51.939  1.00  0.00     0.164 HD
ENDROOT
BRANCH   3   7
HETATM    7  C   UNL     1       6.008  26.068  51.514  1.00  0.00     0.156 C 
BRANCH   7   8
HETATM    8  C   UNL     1       5.943  27.479  52.129  1.00  0.00     0.142 C 
HETATM    9  C   UNL     1       5.363  28.511  51.165  1.00  0.00     0.042 C 
BRANCH   8  10
HETATM   10  O   UNL     1       5.098  27.471  53.292  1.00  0.00    -0.345 OA
BRANCH  10  11
HETATM   11  C   UNL     1       5.633  27.802  54.506  1.00  0.00     0.069 A 
HETATM   12  C   UNL     1       4.955  27.866  55.724  1.00  0.00     0.038 A 
HETATM   13  C   UNL     1       5.633  28.235  56.892  1.00  0.00     0.026 A 
HETATM   14  C   UNL     1       6.992  28.538  56.842  1.00  0.00     0.034 A 
HETATM   15 CL   UNL     1       7.821  28.991  58.279  1.00  0.00    -0.084 Cl
HETATM   16  C   UNL     1       7.678  28.480  55.633  1.00  0.00     0.026 A 
HETATM   17  C   UNL     1       6.997  28.114  54.470  1.00  0.00     0.038 A 
ENDBRANCH  10  11
ENDBRANCH   8  10
ENDBRANCH   7   8
ENDBRANCH   3   7
BRANCH   1  18
HETATM   18  C   UNL     1       8.127  22.733  54.466  1.00  0.00     0.059 A 
HETATM   19  C   UNL     1       8.119  21.339  54.308  1.00  0.00    -0.032 A 
HETATM   20  C   UNL     1       7.871  20.626  53.010  1.00  0.00     0.050 C 
HETATM   21  C   UNL     1       8.329  20.540  55.447  1.00  0.00     0.028 A 
HETATM   22  C   UNL     1       8.471  21.139  56.688  1.00  0.00     0.117 A 
HETATM   23  N   UNL     1       8.412  22.468  56.884  1.00  0.00    -0.271 NA
HETATM   24  C   UNL     1       8.241  23.223  55.772  1.00  0.00     0.146 A 
ENDBRANCH   1  18
TORSDOF 5
ENDMDL
MODEL 7
REMARK VINA RESULT:      -7.6      4.275      9.013
REMARK  5 active torsions:
REMARK  status: ('A' for Active; 'I' for Inactive)
REMARK    1  A    between atoms: C_3  and  N_4 
REMARK       I    between atoms: N_4  and  C_5 
REMARK       I    between atoms: C_5  and  N_6 
REMARK    2  A    between atoms: N_6  and  C_7 
REMARK    3  A    between atoms: C_7  and  C_8 
REMARK    4  A    between atoms: C_8  and  O_9 
REMARK    5  A    between atoms: O_9  and  C_10 
ROOT
HETATM    1  N   UNL     1       7.619  26.704  57.759  1.00  0.00    -0.307 N 
HETATM    2  C   UNL     1       7.954  27.939  57.249  1.00  0.00     0.320 C 
HETATM    3  N   UNL     1       7.809  28.915  58.211  1.00  0.00    -0.340 N 
HETATM    4  O   UNL     1       8.384  28.175  56.130  1.00  0.00    -0.247 OA
HETATM    5  H   UNL     1       7.795  26.643  58.752  1.00  0.00     0.170 HD
HETATM    6  H   UNL     1       7.129  28.748  58.940  1.00  0.00     0.164 HD
ENDROOT
BRANCH   3   7
HETATM    7  C   UNL     1       8.128  30.307  57.932  1.00  0.00     0.156 C 
BRANCH   7   8
HETATM    8  C   UNL     1       9.448  30.780  58.571  1.00  0.00     0.142 C 
HETATM    9  C   UNL     1      10.605  30.799  57.575  1.00  0.00     0.042 C 
BRANCH   8  10
HETATM   10  O   UNL     1       9.301  32.120  59.069  1.00  0.00    -0.345 OA
BRANCH  10  11
HETATM   11  C   UNL     1       8.594  32.329  60.220  1.00  0.00     0.069 A 
HETATM   12  C   UNL     1       7.292  32.823  60.318  1.00  0.00     0.038 A 
HETATM   13  C   UNL     1       6.696  32.999  61.572  1.00  0.00     0.026 A 
HETATM   14  C   UNL     1       7.401  32.679  62.731  1.00  0.00     0.034 A 
HETATM   15 CL   UNL     1       6.664  32.897  64.269  1.00  0.00    -0.084 Cl
HETATM   16  C   UNL     1       8.700  32.188  62.645  1.00  0.00     0.026 A 
HETATM   17  C   UNL     1       9.292  32.016  61.392  1.00  0.00     0.038 A 
ENDBRANCH  10  11
ENDBRANCH   8  10
ENDBRANCH   7   8
ENDBRANCH   3   7
BRANCH   1  18
HETATM   18  C   UNL     1       7.645  25.478  57.053  1.00  0.00     0.059 A 
HETATM   19  C   UNL     1       6.704  25.049  56.105  1.00  0.00    -0.032 A 
HETATM   20  C   UNL     1       5.449  25.791  55.747  1.00  0.00     0.050 C 
HETATM   21  C   UNL     1       6.927  23.820  55.456  1.00  0.00     0.028 A 
HETATM   22  C   UNL     1       8.019  23.045  55.812  1.00  0.00     0.117 A 
HETATM   23  N   UNL     1       8.900  23.394  56.766  1.00  0.00    -0.271 NA
HETATM   24  C   UNL     1       8.688  24.594  57.358  1.00  0.00     0.146 A 
ENDBRANCH   1  18
TORSDOF 5
ENDMDL
MODEL 8
REMARK VINA RESULT:      -7.5      2.827      7.000
REMARK  5 active torsions:
REMARK  status: ('A' for Active; 'I' for Inactive)
REMARK    1  A    between atoms: C_3  and  N_4 
REMARK       I    between atoms: N_4  and  C_5 
REMARK       I    between atoms: C_5  and  N_6 
REMARK    2  A    between atoms: N_6  and  C_7 
REMARK    3  A    between atoms: C_7  and  C_8 
REMARK    4  A    between atoms: C_8  and  O_9 
REMARK    5  A    between atoms: O_9  and  C_10 
ROOT
HETATM    1  N   UNL     1       8.706  23.969  55.867  1.00  0.00    -0.307 N 
HETATM    2  C   UNL     1       7.667  24.703  56.397  1.00  0.00     0.320 C 
HETATM    3  N   UNL     1       8.146  25.822  57.044  1.00  0.00    -0.340 N 
HETATM    4  O   UNL     1       6.473  24.469  56.282  1.00  0.00    -0.247 OA
HETATM    5  H   UNL     1       9.495  24.551  55.623  1.00  0.00     0.170 HD
HETATM    6  H   UNL     1       9.081  25.770  57.426  1.00  0.00     0.164 HD
ENDROOT
BRANCH   3   7
HETATM    7  C   UNL     1       7.246  26.780  57.668  1.00  0.00     0.156 C 
BRANCH   7   8
HETATM    8  C   UNL     1       7.683  28.246  57.490  1.00  0.00     0.142 C 
HETATM    9  C   UNL     1       9.134  28.372  57.032  1.00  0.00     0.042 C 
BRANCH   8  10
HETATM   10  O   UNL     1       6.871  28.884  56.489  1.00  0.00    -0.345 OA
BRANCH  10  11
HETATM   11  C   UNL     1       6.605  28.219  55.325  1.00  0.00     0.069 A 
HETATM   12  C   UNL     1       7.491  28.008  54.267  1.00  0.00     0.038 A 
HETATM   13  C   UNL     1       7.073  27.317  53.124  1.00  0.00     0.026 A 
HETATM   14  C   UNL     1       5.768  26.836  53.038  1.00  0.00     0.034 A 
HETATM   15 CL   UNL     1       5.259  25.988  51.631  1.00  0.00    -0.084 Cl
HETATM   16  C   UNL     1       4.876  27.044  54.085  1.00  0.00     0.026 A 
HETATM   17  C   UNL     1       5.296  27.735  55.223  1.00  0.00     0.038 A 
ENDBRANCH  10  11
ENDBRANCH   8  10
ENDBRANCH   7   8
ENDBRANCH   3   7
BRANCH   1  18
HETATM   18  C   UNL     1       8.584  22.760  55.143  1.00  0.00     0.059 A 
HETATM   19  C   UNL     1       8.287  22.639  53.778  1.00  0.00    -0.032 A 
HETATM   20  C   UNL     1       7.953  23.786  52.868  1.00  0.00     0.050 C 
HETATM   21  C   UNL     1       8.268  21.349  53.213  1.00  0.00     0.028 A 
HETATM   22  C   UNL     1       8.476  20.244  54.022  1.00  0.00     0.117 A 
HETATM   23  N   UNL     1       8.692  20.322  55.347  1.00  0.00    -0.271 NA
HETATM   24  C   UNL     1       8.739  21.571  55.867  1.00  0.00     0.146 A 
ENDBRANCH   1  18
TORSDOF 5
ENDMDL
MODEL 9
REMARK VINA RESULT:      -7.4      3.335      5.706
REMARK  5 active torsions:
REMARK  status: ('A' for Active; 'I' for Inactive)
REMARK    1  A    between atoms: C_3  and  N_4 
REMARK       I    between atoms: N_4  and  C_5 
REMARK       I    between atoms: C_5  and  N_6 
REMARK    2  A    between atoms: N_6  and  C_7 
REMARK    3  A    between atoms: C_7  and  C_8 
REMARK    4  A    between atoms: C_8  and  O_9 
REMARK    5  A    between atoms: O_9  and  C_10 
ROOT
HETATM    1  N   UNL     1       4.128  27.379  53.607  1.00  0.00    -0.307 N 
HETATM    2  C   UNL     1       5.103  27.530  54.569  1.00  0.00     0.320 C 
HETATM    3  N   UNL     1       4.964  26.572  55.551  1.00  0.00    -0.340 N 
HETATM    4  O   UNL     1       6.016  28.341  54.563  1.00  0.00    -0.247 OA
HETATM    5  H   UNL     1       3.831  26.417  53.515  1.00  0.00     0.170 HD
HETATM    6  H   UNL     1       4.036  26.204  55.711  1.00  0.00     0.164 HD
ENDROOT
BRANCH   3   7
HETATM    7  C   UNL     1       5.891  26.498  56.671  1.00  0.00     0.156 C 
BRANCH   7   8
HETATM    8  C   UNL     1       7.154  25.667  56.374  1.00  0.00     0.142 C 
HETATM    9  C   UNL     1       8.367  26.142  57.172  1.00  0.00     0.042 C 
BRANCH   8  10
HETATM   10  O   UNL     1       6.934  24.291  56.728  1.00  0.00    -0.345 OA
BRANCH  10  11
HETATM   11  C   UNL     1       7.295  23.312  55.845  1.00  0.00     0.069 A 
HETATM   12  C   UNL     1       7.751  22.032  56.166  1.00  0.00     0.038 A 
HETATM   13  C   UNL     1       8.100  21.132  55.151  1.00  0.00     0.026 A 
HETATM   14  C   UNL     1       7.992  21.512  53.815  1.00  0.00     0.034 A 
HETATM   15 CL   UNL     1       8.423  20.404  52.573  1.00  0.00    -0.084 Cl
HETATM   16  C   UNL     1       7.542  22.787  53.484  1.00  0.00     0.026 A 
HETATM   17  C   UNL     1       7.197  23.682  54.499  1.00  0.00     0.038 A 
ENDBRANCH  10  11
ENDBRANCH   8  10
ENDBRANCH   7   8
ENDBRANCH   3   7
BRANCH   1  18
HETATM   18  C   UNL     1       3.962  28.188  52.458  1.00  0.00     0.059 A 
HETATM   19  C   UNL     1       4.449  27.909  51.173  1.00  0.00    -0.032 A 
HETATM   20  C   UNL     1       5.318  26.736  50.821  1.00  0.00     0.050 C 
HETATM   21  C   UNL     1       4.132  28.804  50.133  1.00  0.00     0.028 A 
HETATM   22  C   UNL     1       3.413  29.954  50.414  1.00  0.00     0.117 A 
HETATM   23  N   UNL     1       2.992  30.286  51.648  1.00  0.00    -0.271 NA
HETATM   24  C   UNL     1       3.279  29.398  52.630  1.00  0.00     0.146 A 
ENDBRANCH   1  18
TORSDOF 5
ENDMDL
MODEL 10
REMARK VINA RESULT:      -7.4      3.199      7.106
REMARK  5 active torsions:
REMARK  status: ('A' for Active; 'I' for Inactive)
REMARK    1  A    between atoms: C_3  and  N_4 
REMARK       I    between atoms: N_4  and  C_5 
REMARK       I    between atoms: C_5  and  N_6 
REMARK    2  A    between atoms: N_6  and  C_7 
REMARK    3  A    between atoms: C_7  and  C_8 
REMARK    4  A    between atoms: C_8  and  O_9 
REMARK    5  A    between atoms: O_9  and  C_10 
ROOT
HETATM    1  N   UNL     1       6.011  24.982  55.010  1.00  0.00    -0.307 N 
HETATM    2  C   UNL     1       5.841  26.208  54.405  1.00  0.00     0.320 C 
HETATM    3  N   UNL     1       4.771  26.877  54.961  1.00  0.00    -0.340 N 
HETATM    4  O   UNL     1       6.547  26.700  53.538  1.00  0.00    -0.247 OA
HETATM    5  H   UNL     1       5.700  24.988  55.972  1.00  0.00     0.170 HD
HETATM    6  H   UNL     1       4.033  26.316  55.364  1.00  0.00     0.164 HD
ENDROOT
BRANCH   3   7
HETATM    7  C   UNL     1       4.398  28.211  54.514  1.00  0.00     0.156 C 
BRANCH   7   8
HETATM    8  C   UNL     1       4.997  29.341  55.372  1.00  0.00     0.142 C 
HETATM    9  C   UNL     1       3.947  30.354  55.822  1.00  0.00     0.042 C 
BRANCH   8  10
HETATM   10  O   UNL     1       5.589  28.795  56.563  1.00  0.00    -0.345 OA
BRANCH  10  11
HETATM   11  C   UNL     1       6.897  29.075  56.846  1.00  0.00     0.069 A 
HETATM   12  C   UNL     1       7.423  29.419  58.092  1.00  0.00     0.038 A 
HETATM   13  C   UNL     1       8.789  29.694  58.230  1.00  0.00     0.026 A 
HETATM   14  C   UNL     1       9.630  29.624  57.121  1.00  0.00     0.034 A 
HETATM   15 CL   UNL     1      11.307  29.963  57.296  1.00  0.00    -0.084 Cl
HETATM   16  C   UNL     1       9.116  29.285  55.874  1.00  0.00     0.026 A 
HETATM   17  C   UNL     1       7.752  29.013  55.740  1.00  0.00     0.038 A 
ENDBRANCH  10  11
ENDBRANCH   8  10
ENDBRANCH   7   8
ENDBRANCH   3   7
BRANCH   1  18
HETATM   18  C   UNL     1       7.006  24.028  54.690  1.00  0.00     0.059 A 
HETATM   19  C   UNL     1       8.122  23.701  55.474  1.00  0.00    -0.032 A 
HETATM   20  C   UNL     1       8.498  24.385  56.757  1.00  0.00     0.050 C 
HETATM   21  C   UNL     1       8.976  22.678  55.021  1.00  0.00     0.028 A 
HETATM   22  C   UNL     1       8.733  22.074  53.798  1.00  0.00     0.117 A 
HETATM   23  N   UNL     1       7.713  22.414  52.990  1.00  0.00    -0.271 NA
HETATM   24  C   UNL     1       6.884  23.377  53.456  1.00  0.00     0.146 A 
ENDBRANCH   1  18
TORSDOF 5
ENDMDL
