MODEL 1
REMARK VINA RESULT:     -10.2      0.000      0.000
REMARK  4 active torsions:
REMARK  status: ('A' for Active; 'I' for Inactive)
REMARK    1  A    between atoms: C_2  and  C_3 
REMARK    2  A    between atoms: C_6  and  C_7 
REMARK       I    between atoms: C_7  and  N_8 
REMARK    3  A    between atoms: N_8  and  N_9 
REMARK       I    between atoms: N_9  and  C_10 
REMARK    4  A    between atoms: C_10  and  C_11 
ROOT
HETATM    1  N   UNL     1       7.998  27.467  55.649  1.00  0.00    -0.263 N 
HETATM    2  C   UNL     1       7.599  26.152  55.768  1.00  0.00     0.272 C 
HETATM    3  O   UNL     1       7.291  25.648  56.847  1.00  0.00    -0.266 OA
HETATM    4  H   UNL     1       8.450  27.851  54.821  1.00  0.00     0.190 HD
ENDROOT
BRANCH   1   5
HETATM    5  N   UNL     1       8.136  28.223  56.816  1.00  0.00    -0.263 N 
HETATM    6  C   UNL     1       9.004  29.295  56.791  1.00  0.00     0.270 C 
HETATM    7  O   UNL     1       9.692  29.562  55.807  1.00  0.00    -0.266 OA
HETATM    8  H   UNL     1       7.452  28.049  57.548  1.00  0.00     0.190 HD
BRANCH   6   9
HETATM    9  C   UNL     1       9.046  30.149  58.009  1.00  0.00     0.033 A 
HETATM   10  C   UNL     1      10.045  31.107  58.220  1.00  0.00     0.017 A 
HETATM   11  C   UNL     1      10.041  31.876  59.386  1.00  0.00     0.008 A 
HETATM   12  C   UNL     1       9.043  31.701  60.354  1.00  0.00    -0.059 A 
HETATM   13  C   UNL     1       8.033  30.758  60.127  1.00  0.00     0.008 A 
HETATM   14  C   UNL     1       8.033  29.990  58.962  1.00  0.00     0.017 A 
BRANCH  12  15
HETATM   15  C   UNL     1       9.034  32.542  61.606  1.00  0.00     0.034 C 
HETATM   16  C   UNL     1       8.264  31.870  62.733  1.00  0.00     0.010 C 
ENDBRANCH  12  15
ENDBRANCH   6   9
ENDBRANCH   1   5
BRANCH   2  17
HETATM   17  C   UNL     1       7.602  25.344  54.518  1.00  0.00     0.061 A 
HETATM   18  C   UNL     1       7.687  23.941  54.599  1.00  0.00     0.059 A 
HETATM   19  C   UNL     1       7.726  23.117  53.477  1.00  0.00    -0.001 A 
HETATM   20  N   UNL     1       7.751  23.121  55.702  1.00  0.00    -0.358 N 
HETATM   21  C   UNL     1       7.841  21.764  53.939  1.00  0.00    -0.027 A 
HETATM   22  C   UNL     1       7.656  23.717  52.203  1.00  0.00     0.014 A 
HETATM   23  C   UNL     1       7.933  20.540  53.097  1.00  0.00     0.051 C 
HETATM   24  C   UNL     1       7.858  21.807  55.325  1.00  0.00     0.012 A 
HETATM   25  C   UNL     1       7.963  20.730  56.342  1.00  0.00     0.068 C 
HETATM   26  C   UNL     1       7.541  25.108  52.095  1.00  0.00     0.002 A 
HETATM   27  C   UNL     1       7.514  25.909  53.236  1.00  0.00     0.019 A 
HETATM   28  H   UNL     1       7.714  23.470  56.654  1.00  0.00     0.166 HD
ENDBRANCH   2  17
TORSDOF 4
ENDMDL
MODEL 2
REMARK VINA RESULT:      -9.8      1.860      9.277
REMARK  4 active torsions:
REMARK  status: ('A' for Active; 'I' for Inactive)
REMARK    1  A    between atoms: C_2  and  C_3 
REMARK    2  A    between atoms: C_6  and  C_7 
REMARK       I    between atoms: C_7  and  N_8 
REMARK    3  A    between atoms: N_8  and  N_9 
REMARK       I    between atoms: N_9  and  C_10 
REMARK    4  A    between atoms: C_10  and  C_11 
ROOT
HETATM    1  N   UNL     1       7.236  28.341  55.875  1.00  0.00    -0.263 N 
HETATM    2  C   UNL     1       7.394  28.656  57.208  1.00  0.00     0.272 C 
HETATM    3  O   UNL     1       7.924  27.891  58.013  1.00  0.00    -0.266 OA
HETATM    4  H   UNL     1       6.628  28.854  55.238  1.00  0.00     0.190 HD
ENDROOT
BRANCH   1   5
HETATM    5  N   UNL     1       7.617  27.066  55.449  1.00  0.00    -0.263 N 
HETATM    6  C   UNL     1       6.625  26.128  55.253  1.00  0.00     0.270 C 
HETATM    7  O   UNL     1       5.442  26.360  55.498  1.00  0.00    -0.266 OA
HETATM    8  H   UNL     1       8.578  26.967  55.132  1.00  0.00     0.190 HD
BRANCH   6   9
HETATM    9  C   UNL     1       7.047  24.816  54.692  1.00  0.00     0.033 A 
HETATM   10  C   UNL     1       7.153  23.663  55.477  1.00  0.00     0.017 A 
HETATM   11  C   UNL     1       7.562  22.458  54.899  1.00  0.00     0.008 A 
HETATM   12  C   UNL     1       7.867  22.389  53.534  1.00  0.00    -0.059 A 
HETATM   13  C   UNL     1       7.737  23.541  52.747  1.00  0.00     0.008 A 
HETATM   14  C   UNL     1       7.327  24.745  53.321  1.00  0.00     0.017 A 
BRANCH  12  15
HETATM   15  C   UNL     1       8.296  21.085  52.909  1.00  0.00     0.034 C 
HETATM   16  C   UNL     1       8.732  20.072  53.956  1.00  0.00     0.010 C 
ENDBRANCH  12  15
ENDBRANCH   6   9
ENDBRANCH   1   5
BRANCH   2  17
HETATM   17  C   UNL     1       6.846  29.968  57.648  1.00  0.00     0.061 A 
HETATM   18  C   UNL     1       7.284  30.533  58.860  1.00  0.00     0.059 A 
HETATM   19  C   UNL     1       6.797  31.742  59.355  1.00  0.00    -0.001 A 
HETATM   20  N   UNL     1       8.210  30.072  59.767  1.00  0.00    -0.358 N 
HETATM   21  C   UNL     1       7.445  31.985  60.611  1.00  0.00    -0.027 A 
HETATM   22  C   UNL     1       5.836  32.438  58.594  1.00  0.00     0.014 A 
HETATM   23  C   UNL     1       7.229  33.149  61.513  1.00  0.00     0.051 C 
HETATM   24  C   UNL     1       8.311  30.925  60.836  1.00  0.00     0.012 A 
HETATM   25  C   UNL     1       9.235  30.630  61.961  1.00  0.00     0.068 C 
HETATM   26  C   UNL     1       5.405  31.912  57.371  1.00  0.00     0.002 A 
HETATM   27  C   UNL     1       5.903  30.696  56.904  1.00  0.00     0.019 A 
HETATM   28  H   UNL     1       8.737  29.216  59.633  1.00  0.00     0.166 HD
ENDBRANCH   2  17
TORSDOF 4
ENDMDL
MODEL 3
REMARK VINA RESULT:      -9.8      1.718      2.648
REMARK  4 active torsions:
REMARK  status: ('A' for Active; 'I' for Inactive)
REMARK    1  A    between atoms: C_2  and  C_3 
REMARK    2  A    between atoms: C_6  and  C_7 
REMARK       I    between atoms: C_7  and  N_8 
REMARK    3  A    between atoms: N_8  and  N_9 
REMARK       I    between atoms: N_9  and  C_10 
REMARK    4  A    between atoms: C_10  and  C_11 
ROOT
HETATM    1  N   UNL     1       7.340  28.908  57.502  1.00  0.00    -0.263 N 
HETATM    2  C   UNL     1       7.601  27.565  57.327  1.00  0.00     0.272 C 
HETATM    3  O   UNL     1       7.946  26.830  58.252  1.00  0.00    -0.266 OA
HETATM    4  H   UNL     1       7.256  29.575  56.737  1.00  0.00     0.190 HD
ENDROOT
BRANCH   1   5
HETATM    5  N   UNL     1       7.562  29.464  58.765  1.00  0.00    -0.263 N 
HETATM    6  C   UNL     1       7.428  30.830  58.900  1.00  0.00     0.270 C 
HETATM    7  O   UNL     1       7.183  31.566  57.946  1.00  0.00    -0.266 OA
HETATM    8  H   UNL     1       7.625  28.809  59.540  1.00  0.00     0.190 HD
BRANCH   6   9
HETATM    9  C   UNL     1       7.558  31.381  60.277  1.00  0.00     0.033 A 
HETATM   10  C   UNL     1       8.526  30.924  61.179  1.00  0.00     0.017 A 
HETATM   11  C   UNL     1       8.598  31.471  62.463  1.00  0.00     0.008 A 
HETATM   12  C   UNL     1       7.710  32.479  62.861  1.00  0.00    -0.059 A 
HETATM   13  C   UNL     1       6.759  32.949  61.946  1.00  0.00     0.008 A 
HETATM   14  C   UNL     1       6.686  32.406  60.662  1.00  0.00     0.017 A 
BRANCH  12  15
HETATM   15  C   UNL     1       7.799  33.077  64.243  1.00  0.00     0.034 C 
HETATM   16  C   UNL     1       6.692  34.090  64.493  1.00  0.00     0.010 C 
ENDBRANCH  12  15
ENDBRANCH   6   9
ENDBRANCH   1   5
BRANCH   2  17
HETATM   17  C   UNL     1       7.490  27.045  55.937  1.00  0.00     0.061 A 
HETATM   18  C   UNL     1       7.651  25.668  55.696  1.00  0.00     0.059 A 
HETATM   19  C   UNL     1       7.591  25.108  54.422  1.00  0.00    -0.001 A 
HETATM   20  N   UNL     1       7.889  24.637  56.577  1.00  0.00    -0.358 N 
HETATM   21  C   UNL     1       7.826  23.700  54.559  1.00  0.00    -0.027 A 
HETATM   22  C   UNL     1       7.336  25.959  53.328  1.00  0.00     0.014 A 
HETATM   23  C   UNL     1       7.872  22.694  53.462  1.00  0.00     0.051 C 
HETATM   24  C   UNL     1       8.011  23.446  55.910  1.00  0.00     0.012 A 
HETATM   25  C   UNL     1       8.291  22.187  56.645  1.00  0.00     0.068 C 
HETATM   26  C   UNL     1       7.142  27.329  53.543  1.00  0.00     0.002 A 
HETATM   27  C   UNL     1       7.217  27.863  54.829  1.00  0.00     0.019 A 
HETATM   28  H   UNL     1       7.952  24.771  57.580  1.00  0.00     0.166 HD
ENDBRANCH   2  17
TORSDOF 4
ENDMDL
MODEL 4
REMARK VINA RESULT:      -9.5      1.948      9.350
REMARK  4 active torsions:
REMARK  status: ('A' for Active; 'I' for Inactive)
REMARK    1  A    between atoms: C_2  and  C_3 
REMARK    2  A    between atoms: C_6  and  C_7 
REMARK       I    between atoms: C_7  and  N_8 
REMARK    3  A    between atoms: N_8  and  N_9 
REMARK       I    between atoms: N_9  and  C_10 
REMARK    4  A    between atoms: C_10  and  C_11 
ROOT
HETATM    1  N   UNL     1       7.840  28.177  57.516  1.00  0.00    -0.263 N 
HETATM    2  C   UNL     1       8.425  29.386  57.206  1.00  0.00     0.272 C 
HETATM    3  O   UNL     1       8.937  29.615  56.111  1.00  0.00    -0.266 OA
HETATM    4  H   UNL     1       7.597  27.888  58.462  1.00  0.00     0.190 HD
ENDROOT
BRANCH   1   5
HETATM    5  N   UNL     1       7.912  27.148  56.573  1.00  0.00    -0.263 N 
HETATM    6  C   UNL     1       8.097  25.861  57.035  1.00  0.00     0.270 C 
HETATM    7  O   UNL     1       8.258  25.606  58.228  1.00  0.00    -0.266 OA
HETATM    8  H   UNL     1       7.639  27.389  55.624  1.00  0.00     0.190 HD
BRANCH   6   9
HETATM    9  C   UNL     1       8.057  24.774  56.020  1.00  0.00     0.033 A 
HETATM   10  C   UNL     1       8.883  23.647  56.095  1.00  0.00     0.017 A 
HETATM   11  C   UNL     1       8.809  22.659  55.108  1.00  0.00     0.008 A 
HETATM   12  C   UNL     1       7.913  22.784  54.039  1.00  0.00    -0.059 A 
HETATM   13  C   UNL     1       7.072  23.903  53.981  1.00  0.00     0.008 A 
HETATM   14  C   UNL     1       7.141  24.889  54.966  1.00  0.00     0.017 A 
BRANCH  12  15
HETATM   15  C   UNL     1       7.826  21.711  52.983  1.00  0.00     0.034 C 
HETATM   16  C   UNL     1       8.588  20.457  53.385  1.00  0.00     0.010 C 
ENDBRANCH  12  15
ENDBRANCH   6   9
ENDBRANCH   1   5
BRANCH   2  17
HETATM   17  C   UNL     1       8.451  30.406  58.290  1.00  0.00     0.061 A 
HETATM   18  C   UNL     1       7.251  31.023  58.692  1.00  0.00     0.059 A 
HETATM   19  C   UNL     1       7.196  32.007  59.677  1.00  0.00    -0.001 A 
HETATM   20  N   UNL     1       5.964  30.826  58.249  1.00  0.00    -0.358 N 
HETATM   21  C   UNL     1       5.828  32.419  59.798  1.00  0.00    -0.027 A 
HETATM   22  C   UNL     1       8.396  32.385  60.313  1.00  0.00     0.014 A 
HETATM   23  C   UNL     1       5.290  33.461  60.716  1.00  0.00     0.051 C 
HETATM   24  C   UNL     1       5.094  31.667  58.893  1.00  0.00     0.012 A 
HETATM   25  C   UNL     1       3.644  31.656  58.571  1.00  0.00     0.068 C 
HETATM   26  C   UNL     1       9.599  31.766  59.953  1.00  0.00     0.002 A 
HETATM   27  C   UNL     1       9.626  30.790  58.957  1.00  0.00     0.019 A 
HETATM   28  H   UNL     1       5.720  30.138  57.545  1.00  0.00     0.166 HD
ENDBRANCH   2  17
TORSDOF 4
ENDMDL
MODEL 5
REMARK VINA RESULT:      -9.0      2.104      9.064
REMARK  4 active torsions:
REMARK  status: ('A' for Active; 'I' for Inactive)
REMARK    1  A    between atoms: C_2  and  C_3 
REMARK    2  A    between atoms: C_6  and  C_7 
REMARK       I    between atoms: C_7  and  N_8 
REMARK    3  A    between atoms: N_8  and  N_9 
REMARK       I    between atoms: N_9  and  C_10 
REMARK    4  A    between atoms: C_10  and  C_11 
ROOT
HETATM    1  N   UNL     1       5.942  28.235  56.754  1.00  0.00    -0.263 N 
HETATM    2  C   UNL     1       6.749  29.346  56.630  1.00  0.00     0.272 C 
HETATM    3  O   UNL     1       7.797  29.337  55.985  1.00  0.00    -0.266 OA
HETATM    4  H   UNL     1       5.191  28.151  57.437  1.00  0.00     0.190 HD
ENDROOT
BRANCH   1   5
HETATM    5  N   UNL     1       6.383  27.033  56.193  1.00  0.00    -0.263 N 
HETATM    6  C   UNL     1       7.114  26.179  56.991  1.00  0.00     0.270 C 
HETATM    7  O   UNL     1       7.436  26.467  58.143  1.00  0.00    -0.266 OA
HETATM    8  H   UNL     1       5.980  26.783  55.294  1.00  0.00     0.190 HD
BRANCH   6   9
HETATM    9  C   UNL     1       7.473  24.859  56.404  1.00  0.00     0.033 A 
HETATM   10  C   UNL     1       8.318  23.953  57.056  1.00  0.00     0.017 A 
HETATM   11  C   UNL     1       8.628  22.730  56.455  1.00  0.00     0.008 A 
HETATM   12  C   UNL     1       8.100  22.396  55.201  1.00  0.00    -0.059 A 
HETATM   13  C   UNL     1       7.237  23.297  54.563  1.00  0.00     0.008 A 
HETATM   14  C   UNL     1       6.923  24.518  55.163  1.00  0.00     0.017 A 
BRANCH  12  15
HETATM   15  C   UNL     1       8.426  21.071  54.560  1.00  0.00     0.034 C 
HETATM   16  C   UNL     1       7.985  21.021  53.106  1.00  0.00     0.010 C 
ENDBRANCH  12  15
ENDBRANCH   6   9
ENDBRANCH   1   5
BRANCH   2  17
HETATM   17  C   UNL     1       6.312  30.566  57.362  1.00  0.00     0.061 A 
HETATM   18  C   UNL     1       6.926  30.901  58.583  1.00  0.00     0.059 A 
HETATM   19  C   UNL     1       6.554  32.008  59.343  1.00  0.00    -0.001 A 
HETATM   20  N   UNL     1       7.944  30.272  59.263  1.00  0.00    -0.358 N 
HETATM   21  C   UNL     1       7.369  32.014  60.523  1.00  0.00    -0.027 A 
HETATM   22  C   UNL     1       5.528  32.842  58.852  1.00  0.00     0.014 A 
HETATM   23  C   UNL     1       7.316  33.002  61.636  1.00  0.00     0.051 C 
HETATM   24  C   UNL     1       8.216  30.920  60.440  1.00  0.00     0.012 A 
HETATM   25  C   UNL     1       9.267  30.417  61.361  1.00  0.00     0.068 C 
HETATM   26  C   UNL     1       4.921  32.548  57.626  1.00  0.00     0.002 A 
HETATM   27  C   UNL     1       5.308  31.428  56.891  1.00  0.00     0.019 A 
HETATM   28  H   UNL     1       8.417  29.447  58.911  1.00  0.00     0.166 HD
ENDBRANCH   2  17
TORSDOF 4
ENDMDL
MODEL 6
REMARK VINA RESULT:      -8.9      2.600      9.968
REMARK  4 active torsions:
REMARK  status: ('A' for Active; 'I' for Inactive)
REMARK    1  A    between atoms: C_2  and  C_3 
REMARK    2  A    between atoms: C_6  and  C_7 
REMARK       I    between atoms: C_7  and  N_8 
REMARK    3  A    between atoms: N_8  and  N_9 
REMARK       I    between atoms: N_9  and  C_10 
REMARK    4  A    between atoms: C_10  and  C_11 
ROOT
HETATM    1  N   UNL     1       7.619  29.107  58.584  1.00  0.00    -0.263 N 
HETATM    2  C   UNL     1       7.291  30.432  58.779  1.00  0.00     0.272 C 
HETATM    3  O   UNL     1       6.576  31.060  57.999  1.00  0.00    -0.266 OA
HETATM    4  H   UNL     1       8.361  28.624  59.088  1.00  0.00     0.190 HD
ENDROOT
BRANCH   1   5
HETATM    5  N   UNL     1       7.190  28.487  57.407  1.00  0.00    -0.263 N 
HETATM    6  C   UNL     1       7.317  27.117  57.316  1.00  0.00     0.270 C 
HETATM    7  O   UNL     1       7.845  26.444  58.201  1.00  0.00    -0.266 OA
HETATM    8  H   UNL     1       6.642  29.061  56.771  1.00  0.00     0.190 HD
BRANCH   6   9
HETATM    9  C   UNL     1       6.749  26.472  56.101  1.00  0.00     0.033 A 
HETATM   10  C   UNL     1       6.972  25.125  55.793  1.00  0.00     0.017 A 
HETATM   11  C   UNL     1       6.421  24.572  54.633  1.00  0.00     0.008 A 
HETATM   12  C   UNL     1       5.641  25.354  53.771  1.00  0.00    -0.059 A 
HETATM   13  C   UNL     1       5.402  26.696  54.096  1.00  0.00     0.008 A 
HETATM   14  C   UNL     1       5.950  27.249  55.255  1.00  0.00     0.017 A 
BRANCH  12  15
HETATM   15  C   UNL     1       5.037  24.753  52.527  1.00  0.00     0.034 C 
HETATM   16  C   UNL     1       5.275  25.624  51.303  1.00  0.00     0.010 C 
ENDBRANCH  12  15
ENDBRANCH   6   9
ENDBRANCH   1   5
BRANCH   2  17
HETATM   17  C   UNL     1       7.886  31.092  59.973  1.00  0.00     0.061 A 
HETATM   18  C   UNL     1       7.059  31.817  60.851  1.00  0.00     0.059 A 
HETATM   19  C   UNL     1       7.544  32.488  61.971  1.00  0.00    -0.001 A 
HETATM   20  N   UNL     1       5.699  32.024  60.816  1.00  0.00    -0.358 N 
HETATM   21  C   UNL     1       6.429  33.131  62.604  1.00  0.00    -0.027 A 
HETATM   22  C   UNL     1       8.925  32.418  62.247  1.00  0.00     0.014 A 
HETATM   23  C   UNL     1       6.467  33.977  63.829  1.00  0.00     0.051 C 
HETATM   24  C   UNL     1       5.303  32.824  61.856  1.00  0.00     0.012 A 
HETATM   25  C   UNL     1       3.877  33.207  62.022  1.00  0.00     0.068 C 
HETATM   26  C   UNL     1       9.765  31.679  61.407  1.00  0.00     0.002 A 
HETATM   27  C   UNL     1       9.253  31.025  60.286  1.00  0.00     0.019 A 
HETATM   28  H   UNL     1       5.096  31.618  60.109  1.00  0.00     0.166 HD
ENDBRANCH   2  17
TORSDOF 4
ENDMDL
MODEL 7
REMARK VINA RESULT:      -8.8      5.831      9.312
REMARK  4 active torsions:
REMARK  status: ('A' for Active; 'I' for Inactive)
REMARK    1  A    between atoms: C_2  and  C_3 
REMARK    2  A    between atoms: C_6  and  C_7 
REMARK       I    between atoms: C_7  and  N_8 
REMARK    3  A    between atoms: N_8  and  N_9 
REMARK       I    between atoms: N_9  and  C_10 
REMARK    4  A    between atoms: C_10  and  C_11 
ROOT
HETATM    1  N   UNL     1       6.050  27.241  52.004  1.00  0.00    -0.263 N 
HETATM    2  C   UNL     1       5.228  27.239  50.897  1.00  0.00     0.272 C 
HETATM    3  O   UNL     1       4.976  26.217  50.260  1.00  0.00    -0.266 OA
HETATM    4  H   UNL     1       6.438  28.086  52.422  1.00  0.00     0.190 HD
ENDROOT
BRANCH   1   5
HETATM    5  N   UNL     1       6.686  26.048  52.357  1.00  0.00    -0.263 N 
HETATM    6  C   UNL     1       6.253  25.398  53.494  1.00  0.00     0.270 C 
HETATM    7  O   UNL     1       5.381  25.862  54.226  1.00  0.00    -0.266 OA
HETATM    8  H   UNL     1       7.298  25.641  51.654  1.00  0.00     0.190 HD
BRANCH   6   9
HETATM    9  C   UNL     1       6.870  24.075  53.783  1.00  0.00     0.033 A 
HETATM   10  C   UNL     1       7.364  23.241  52.773  1.00  0.00     0.017 A 
HETATM   11  C   UNL     1       7.926  22.004  53.100  1.00  0.00     0.008 A 
HETATM   12  C   UNL     1       8.003  21.586  54.435  1.00  0.00    -0.059 A 
HETATM   13  C   UNL     1       7.528  22.434  55.443  1.00  0.00     0.008 A 
HETATM   14  C   UNL     1       6.969  23.671  55.120  1.00  0.00     0.017 A 
BRANCH  12  15
HETATM   15  C   UNL     1       8.622  20.256  54.787  1.00  0.00     0.034 C 
HETATM   16  C   UNL     1       8.956  20.161  56.267  1.00  0.00     0.010 C 
ENDBRANCH  12  15
ENDBRANCH   6   9
ENDBRANCH   1   5
BRANCH   2  17
HETATM   17  C   UNL     1       4.685  28.558  50.472  1.00  0.00     0.061 A 
HETATM   18  C   UNL     1       3.542  28.607  49.653  1.00  0.00     0.059 A 
HETATM   19  C   UNL     1       2.991  29.800  49.189  1.00  0.00    -0.001 A 
HETATM   20  N   UNL     1       2.766  27.586  49.155  1.00  0.00    -0.358 N 
HETATM   21  C   UNL     1       1.864  29.463  48.368  1.00  0.00    -0.027 A 
HETATM   22  C   UNL     1       3.597  31.012  49.576  1.00  0.00     0.014 A 
HETATM   23  C   UNL     1       0.974  30.412  47.645  1.00  0.00     0.051 C 
HETATM   24  C   UNL     1       1.759  28.080  48.367  1.00  0.00     0.012 A 
HETATM   25  C   UNL     1       0.797  27.167  47.699  1.00  0.00     0.068 C 
HETATM   26  C   UNL     1       4.718  30.992  50.414  1.00  0.00     0.002 A 
HETATM   27  C   UNL     1       5.253  29.783  50.857  1.00  0.00     0.019 A 
HETATM   28  H   UNL     1       2.936  26.609  49.366  1.00  0.00     0.166 HD
ENDBRANCH   2  17
TORSDOF 4
ENDMDL
MODEL 8
REMARK VINA RESULT:      -8.7      4.817      8.172
REMARK  4 active torsions:
REMARK  status: ('A' for Active; 'I' for Inactive)
REMARK    1  A    between atoms: C_2  and  C_3 
REMARK    2  A    between atoms: C_6  and  C_7 
REMARK       I    between atoms: C_7  and  N_8 
REMARK    3  A    between atoms: N_8  and  N_9 
REMARK       I    between atoms: N_9  and  C_10 
REMARK    4  A    between atoms: C_10  and  C_11 
ROOT
HETATM    1  N   UNL     1       4.921  26.126  53.623  1.00  0.00    -0.263 N 
HETATM    2  C   UNL     1       6.074  25.403  53.400  1.00  0.00     0.272 C 
HETATM    3  O   UNL     1       6.529  25.210  52.273  1.00  0.00    -0.266 OA
HETATM    4  H   UNL     1       4.413  26.129  54.506  1.00  0.00     0.190 HD
ENDROOT
BRANCH   1   5
HETATM    5  N   UNL     1       4.201  26.579  52.514  1.00  0.00    -0.263 N 
HETATM    6  C   UNL     1       4.395  27.883  52.109  1.00  0.00     0.270 C 
HETATM    7  O   UNL     1       5.124  28.662  52.721  1.00  0.00    -0.266 OA
HETATM    8  H   UNL     1       3.724  25.868  51.967  1.00  0.00     0.190 HD
BRANCH   6   9
HETATM    9  C   UNL     1       3.704  28.305  50.860  1.00  0.00     0.033 A 
HETATM   10  C   UNL     1       2.499  29.019  50.874  1.00  0.00     0.017 A 
HETATM   11  C   UNL     1       1.889  29.382  49.670  1.00  0.00     0.008 A 
HETATM   12  C   UNL     1       2.470  29.040  48.442  1.00  0.00    -0.059 A 
HETATM   13  C   UNL     1       3.687  28.346  48.435  1.00  0.00     0.008 A 
HETATM   14  C   UNL     1       4.301  27.984  49.635  1.00  0.00     0.017 A 
BRANCH  12  15
HETATM   15  C   UNL     1       1.816  29.445  47.145  1.00  0.00     0.034 C 
HETATM   16  C   UNL     1       0.867  28.373  46.632  1.00  0.00     0.010 C 
ENDBRANCH  12  15
ENDBRANCH   6   9
ENDBRANCH   1   5
BRANCH   2  17
HETATM   17  C   UNL     1       6.731  24.818  54.600  1.00  0.00     0.061 A 
HETATM   18  C   UNL     1       7.321  23.543  54.516  1.00  0.00     0.059 A 
HETATM   19  C   UNL     1       7.929  22.914  55.602  1.00  0.00    -0.001 A 
HETATM   20  N   UNL     1       7.428  22.686  53.445  1.00  0.00    -0.358 N 
HETATM   21  C   UNL     1       8.387  21.631  55.155  1.00  0.00    -0.027 A 
HETATM   22  C   UNL     1       7.970  23.599  56.834  1.00  0.00     0.014 A 
HETATM   23  C   UNL     1       9.083  20.600  55.973  1.00  0.00     0.051 C 
HETATM   24  C   UNL     1       8.054  21.524  53.813  1.00  0.00     0.012 A 
HETATM   25  C   UNL     1       8.270  20.431  52.830  1.00  0.00     0.068 C 
HETATM   26  C   UNL     1       7.417  24.880  56.936  1.00  0.00     0.002 A 
HETATM   27  C   UNL     1       6.807  25.481  55.835  1.00  0.00     0.019 A 
HETATM   28  H   UNL     1       7.087  22.915  52.518  1.00  0.00     0.166 HD
ENDBRANCH   2  17
TORSDOF 4
ENDMDL
MODEL 9
REMARK VINA RESULT:      -8.6      3.328      9.955
REMARK  4 active torsions:
REMARK  status: ('A' for Active; 'I' for Inactive)
REMARK    1  A    between atoms: C_2  and  C_3 
REMARK    2  A    between atoms: C_6  and  C_7 
REMARK       I    between atoms: C_7  and  N_8 
REMARK    3  A    between atoms: N_8  and  N_9 
REMARK       I    between atoms: N_9  and  C_10 
REMARK    4  A    between atoms: C_10  and  C_11 
ROOT
HETATM    1  N   UNL     1       4.749  29.570  57.981  1.00  0.00    -0.263 N 
HETATM    2  C   UNL     1       5.594  30.659  58.037  1.00  0.00     0.272 C 
HETATM    3  O   UNL     1       6.757  30.618  57.639  1.00  0.00    -0.266 OA
HETATM    4  H   UNL     1       3.864  29.510  58.483  1.00  0.00     0.190 HD
ENDROOT
BRANCH   1   5
HETATM    5  N   UNL     1       5.270  28.354  57.532  1.00  0.00    -0.263 N 
HETATM    6  C   UNL     1       4.835  27.877  56.313  1.00  0.00     0.270 C 
HETATM    7  O   UNL     1       3.973  28.451  55.651  1.00  0.00    -0.266 OA
HETATM    8  H   UNL     1       6.071  27.992  58.044  1.00  0.00     0.190 HD
BRANCH   6   9
HETATM    9  C   UNL     1       5.489  26.639  55.808  1.00  0.00     0.033 A 
HETATM   10  C   UNL     1       5.719  26.414  54.446  1.00  0.00     0.017 A 
HETATM   11  C   UNL     1       6.331  25.229  54.027  1.00  0.00     0.008 A 
HETATM   12  C   UNL     1       6.720  24.258  54.958  1.00  0.00    -0.059 A 
HETATM   13  C   UNL     1       6.509  24.499  56.322  1.00  0.00     0.008 A 
HETATM   14  C   UNL     1       5.901  25.682  56.744  1.00  0.00     0.017 A 
BRANCH  12  15
HETATM   15  C   UNL     1       7.392  22.986  54.504  1.00  0.00     0.034 C 
HETATM   16  C   UNL     1       7.634  22.979  53.002  1.00  0.00     0.010 C 
ENDBRANCH  12  15
ENDBRANCH   6   9
ENDBRANCH   1   5
BRANCH   2  17
HETATM   17  C   UNL     1       5.040  31.895  58.655  1.00  0.00     0.061 A 
HETATM   18  C   UNL     1       5.585  32.373  59.861  1.00  0.00     0.059 A 
HETATM   19  C   UNL     1       5.103  33.504  60.516  1.00  0.00    -0.001 A 
HETATM   20  N   UNL     1       6.623  31.882  60.619  1.00  0.00    -0.358 N 
HETATM   21  C   UNL     1       5.873  33.668  61.715  1.00  0.00    -0.027 A 
HETATM   22  C   UNL     1       4.035  34.213  59.930  1.00  0.00     0.014 A 
HETATM   23  C   UNL     1       5.707  34.734  62.741  1.00  0.00     0.051 C 
HETATM   24  C   UNL     1       6.804  32.640  61.746  1.00  0.00     0.012 A 
HETATM   25  C   UNL     1       7.857  32.296  62.734  1.00  0.00     0.068 C 
HETATM   26  C   UNL     1       3.495  33.776  58.715  1.00  0.00     0.002 A 
HETATM   27  C   UNL     1       3.991  32.635  58.086  1.00  0.00     0.019 A 
HETATM   28  H   UNL     1       7.169  31.071  60.349  1.00  0.00     0.166 HD
ENDBRANCH   2  17
TORSDOF 4
ENDMDL
MODEL 10
REMARK VINA RESULT:      -8.5      3.112      9.703
REMARK  4 active torsions:
REMARK  status: ('A' for Active; 'I' for Inactive)
REMARK    1  A    between atoms: C_2  and  C_3 
REMARK    2  A    between atoms: C_6  and  C_7 
REMARK       I    between atoms: C_7  and  N_8 
REMARK    3  A    between atoms: N_8  and  N_9 
REMARK       I    between atoms: N_9  and  C_10 
REMARK    4  A    between atoms: C_10  and  C_11 
ROOT
HETATM    1  N   UNL     1       5.055  30.295  58.279  1.00  0.00    -0.263 N 
HETATM    2  C   UNL     1       5.540  31.579  58.142  1.00  0.00     0.272 C 
HETATM    3  O   UNL     1       5.990  32.008  57.081  1.00  0.00    -0.266 OA
HETATM    4  H   UNL     1       4.872  29.849  59.177  1.00  0.00     0.190 HD
ENDROOT
BRANCH   1   5
HETATM    5  N   UNL     1       5.162  29.429  57.188  1.00  0.00    -0.263 N 
HETATM    6  C   UNL     1       6.230  28.557  57.159  1.00  0.00     0.270 C 
HETATM    7  O   UNL     1       7.108  28.562  58.021  1.00  0.00    -0.266 OA
HETATM    8  H   UNL     1       4.349  29.369  56.581  1.00  0.00     0.190 HD
BRANCH   6   9
HETATM    9  C   UNL     1       6.258  27.570  56.045  1.00  0.00     0.033 A 
HETATM   10  C   UNL     1       5.229  27.477  55.101  1.00  0.00     0.017 A 
HETATM   11  C   UNL     1       5.302  26.526  54.079  1.00  0.00     0.008 A 
HETATM   12  C   UNL     1       6.400  25.660  53.986  1.00  0.00    -0.059 A 
HETATM   13  C   UNL     1       7.438  25.774  54.920  1.00  0.00     0.008 A 
HETATM   14  C   UNL     1       7.369  26.725  55.940  1.00  0.00     0.017 A 
BRANCH  12  15
HETATM   15  C   UNL     1       6.483  24.644  52.875  1.00  0.00     0.034 C 
HETATM   16  C   UNL     1       7.755  24.803  52.057  1.00  0.00     0.010 C 
ENDBRANCH  12  15
ENDBRANCH   6   9
ENDBRANCH   1   5
BRANCH   2  17
HETATM   17  C   UNL     1       5.537  32.422  59.369  1.00  0.00     0.061 A 
HETATM   18  C   UNL     1       6.478  32.172  60.385  1.00  0.00     0.059 A 
HETATM   19  C   UNL     1       6.520  32.897  61.575  1.00  0.00    -0.001 A 
HETATM   20  N   UNL     1       7.485  31.238  60.448  1.00  0.00    -0.358 N 
HETATM   21  C   UNL     1       7.578  32.350  62.374  1.00  0.00    -0.027 A 
HETATM   22  C   UNL     1       5.591  33.941  61.757  1.00  0.00     0.014 A 
HETATM   23  C   UNL     1       7.986  32.794  63.735  1.00  0.00     0.051 C 
HETATM   24  C   UNL     1       8.151  31.319  61.644  1.00  0.00     0.012 A 
HETATM   25  C   UNL     1       9.272  30.397  61.956  1.00  0.00     0.068 C 
HETATM   26  C   UNL     1       4.664  34.229  60.749  1.00  0.00     0.002 A 
HETATM   27  C   UNL     1       4.638  33.481  59.571  1.00  0.00     0.019 A 
HETATM   28  H   UNL     1       7.690  30.594  59.692  1.00  0.00     0.166 HD
ENDBRANCH   2  17
TORSDOF 4
ENDMDL
