MODEL 1
REMARK VINA RESULT:      -9.5      0.000      0.000
REMARK  6 active torsions:
REMARK  status: ('A' for Active; 'I' for Inactive)
REMARK    1  A    between atoms: C_2  and  N_3 
REMARK    2  A    between atoms: C_7  and  N_8 
REMARK       I    between atoms: N_8  and  C_9 
REMARK       I    between atoms: C_9  and  N_10 
REMARK    3  A    between atoms: N_10  and  C_11 
REMARK    4  A    between atoms: C_11  and  C_12 
REMARK    5  A    between atoms: C_15  and  N_16 
REMARK       I    between atoms: N_16  and  C_17 
REMARK    6  A    between atoms: C_17  and  C_18 
ROOT
HETATM    1  N   UNL     1       7.939  30.153  59.785  1.00  0.00    -0.338 N 
HETATM    2  C   UNL     1       7.664  30.360  58.451  1.00  0.00     0.316 C 
HETATM    3  N   UNL     1       6.516  29.710  58.085  1.00  0.00    -0.339 N 
HETATM    4  O   UNL     1       8.394  30.964  57.683  1.00  0.00    -0.247 OA
HETATM    5  H   UNL     1       7.084  30.208  60.326  1.00  0.00     0.164 HD
HETATM    6  H   UNL     1       6.133  29.031  58.724  1.00  0.00     0.164 HD
ENDROOT
BRANCH   3   7
HETATM    7  C   UNL     1       6.188  29.531  56.683  1.00  0.00     0.162 C 
BRANCH   7   8
HETATM    8  C   UNL     1       6.362  28.105  56.202  1.00  0.00    -0.040 A 
HETATM    9  C   UNL     1       5.837  27.001  56.889  1.00  0.00     0.011 A 
HETATM   10  C   UNL     1       6.083  25.696  56.449  1.00  0.00     0.030 A 
HETATM   11  C   UNL     1       6.834  25.467  55.297  1.00  0.00     0.035 A 
HETATM   12  C   UNL     1       7.292  26.565  54.563  1.00  0.00     0.030 A 
HETATM   13  C   UNL     1       7.064  27.870  55.013  1.00  0.00     0.011 A 
BRANCH  11  14
HETATM   14  N   UNL     1       7.175  24.188  54.827  1.00  0.00    -0.321 N 
HETATM   15  C   UNL     1       8.284  23.424  55.152  1.00  0.00     0.279 C 
HETATM   16  O   UNL     1       9.166  23.754  55.940  1.00  0.00    -0.265 OA
HETATM   17  H   UNL     1       6.592  23.791  54.096  1.00  0.00     0.169 HD
BRANCH  15  18
HETATM   18  C   UNL     1       8.329  22.174  54.412  1.00  0.00     0.142 A 
HETATM   19  O   UNL     1       8.811  21.047  55.032  1.00  0.00    -0.317 OA
HETATM   20  C   UNL     1       8.729  20.031  54.134  1.00  0.00     0.143 A 
HETATM   21  C   UNL     1       8.201  20.477  52.947  1.00  0.00     0.027 A 
HETATM   22  C   UNL     1       7.945  21.858  53.124  1.00  0.00     0.045 A 
ENDBRANCH  15  18
ENDBRANCH  11  14
ENDBRANCH   7   8
ENDBRANCH   3   7
BRANCH   1  23
HETATM   23  C   UNL     1       9.130  30.690  60.450  1.00  0.00     0.089 C 
HETATM   24  C   UNL     1       9.313  30.298  61.918  1.00  0.00     0.053 C 
HETATM   25  C   UNL     1       8.165  30.788  62.781  1.00  0.00     0.237 C 
HETATM   26  N   UNL     1       8.066  32.311  62.705  1.00  0.00    -0.067 N 
HETATM   27  H   UNL     1       8.942  32.690  63.087  1.00  0.00     0.280 HD
HETATM   28  C   UNL     1       7.952  32.775  61.262  1.00  0.00     0.237 C 
HETATM   29  C   UNL     1       9.079  32.217  60.395  1.00  0.00     0.053 C 
BRANCH  26  30
HETATM   30  C   UNL     1       6.923  32.851  63.593  1.00  0.00     0.180 C 
HETATM   31  C   UNL     1       5.997  33.757  62.777  1.00  0.00     0.039 C 
HETATM   32  C   UNL     1       7.496  33.654  64.763  1.00  0.00     0.039 C 
ENDBRANCH  26  30
ENDBRANCH   1  23
TORSDOF 6
ENDMDL
MODEL 2
REMARK VINA RESULT:      -9.3      2.577     10.999
REMARK  6 active torsions:
REMARK  status: ('A' for Active; 'I' for Inactive)
REMARK    1  A    between atoms: C_2  and  N_3 
REMARK    2  A    between atoms: C_7  and  N_8 
REMARK       I    between atoms: N_8  and  C_9 
REMARK       I    between atoms: C_9  and  N_10 
REMARK    3  A    between atoms: N_10  and  C_11 
REMARK    4  A    between atoms: C_11  and  C_12 
REMARK    5  A    between atoms: C_15  and  N_16 
REMARK       I    between atoms: N_16  and  C_17 
REMARK    6  A    between atoms: C_17  and  C_18 
ROOT
HETATM    1  N   UNL     1       7.271  27.462  57.063  1.00  0.00    -0.338 N 
HETATM    2  C   UNL     1       7.620  28.792  57.002  1.00  0.00     0.316 C 
HETATM    3  N   UNL     1       8.786  29.021  57.682  1.00  0.00    -0.339 N 
HETATM    4  O   UNL     1       6.934  29.661  56.490  1.00  0.00    -0.247 OA
HETATM    5  H   UNL     1       8.095  26.883  56.944  1.00  0.00     0.164 HD
HETATM    6  H   UNL     1       9.133  28.291  58.285  1.00  0.00     0.164 HD
ENDROOT
BRANCH   3   7
HETATM    7  C   UNL     1       9.192  30.374  58.012  1.00  0.00     0.162 C 
BRANCH   7   8
HETATM    8  C   UNL     1       8.527  30.913  59.263  1.00  0.00    -0.040 A 
HETATM    9  C   UNL     1       7.385  31.724  59.227  1.00  0.00     0.011 A 
HETATM   10  C   UNL     1       6.845  32.261  60.402  1.00  0.00     0.030 A 
HETATM   11  C   UNL     1       7.419  31.973  61.640  1.00  0.00     0.035 A 
HETATM   12  C   UNL     1       8.508  31.099  61.689  1.00  0.00     0.030 A 
HETATM   13  C   UNL     1       9.062  30.578  60.514  1.00  0.00     0.011 A 
BRANCH  11  14
HETATM   14  N   UNL     1       6.974  32.520  62.854  1.00  0.00    -0.321 N 
HETATM   15  C   UNL     1       5.766  32.307  63.498  1.00  0.00     0.279 C 
HETATM   16  O   UNL     1       4.870  31.570  63.096  1.00  0.00    -0.265 OA
HETATM   17  H   UNL     1       7.562  33.225  63.289  1.00  0.00     0.169 HD
BRANCH  15  18
HETATM   18  C   UNL     1       5.637  33.101  64.707  1.00  0.00     0.142 A 
HETATM   19  O   UNL     1       4.396  33.264  65.272  1.00  0.00    -0.317 OA
HETATM   20  C   UNL     1       4.559  34.025  66.386  1.00  0.00     0.143 A 
HETATM   21  C   UNL     1       5.882  34.355  66.554  1.00  0.00     0.027 A 
HETATM   22  C   UNL     1       6.578  33.763  65.473  1.00  0.00     0.045 A 
ENDBRANCH  15  18
ENDBRANCH  11  14
ENDBRANCH   7   8
ENDBRANCH   3   7
BRANCH   1  23
HETATM   23  C   UNL     1       6.045  26.926  56.462  1.00  0.00     0.089 C 
HETATM   24  C   UNL     1       5.651  25.510  56.890  1.00  0.00     0.053 C 
HETATM   25  C   UNL     1       6.712  24.492  56.515  1.00  0.00     0.237 C 
HETATM   26  N   UNL     1       6.925  24.490  55.002  1.00  0.00    -0.067 N 
HETATM   27  H   UNL     1       6.036  24.203  54.573  1.00  0.00     0.280 HD
HETATM   28  C   UNL     1       7.252  25.886  54.499  1.00  0.00     0.237 C 
HETATM   29  C   UNL     1       6.208  26.908  54.943  1.00  0.00     0.053 C 
BRANCH  26  30
HETATM   30  C   UNL     1       7.981  23.445  54.578  1.00  0.00     0.180 C 
HETATM   31  C   UNL     1       7.994  23.288  53.055  1.00  0.00     0.039 C 
HETATM   32  C   UNL     1       7.666  22.088  55.212  1.00  0.00     0.039 C 
ENDBRANCH  26  30
ENDBRANCH   1  23
TORSDOF 6
ENDMDL
MODEL 3
REMARK VINA RESULT:      -8.8      3.000     10.966
REMARK  6 active torsions:
REMARK  status: ('A' for Active; 'I' for Inactive)
REMARK    1  A    between atoms: C_2  and  N_3 
REMARK    2  A    between atoms: C_7  and  N_8 
REMARK       I    between atoms: N_8  and  C_9 
REMARK       I    between atoms: C_9  and  N_10 
REMARK    3  A    between atoms: N_10  and  C_11 
REMARK    4  A    between atoms: C_11  and  C_12 
REMARK    5  A    between atoms: C_15  and  N_16 
REMARK       I    between atoms: N_16  and  C_17 
REMARK    6  A    between atoms: C_17  and  C_18 
ROOT
HETATM    1  N   UNL     1       7.424  27.988  56.003  1.00  0.00    -0.338 N 
HETATM    2  C   UNL     1       8.007  28.415  57.175  1.00  0.00     0.316 C 
HETATM    3  N   UNL     1       8.463  29.700  57.052  1.00  0.00    -0.339 N 
HETATM    4  O   UNL     1       8.176  27.710  58.157  1.00  0.00    -0.247 OA
HETATM    5  H   UNL     1       6.860  28.732  55.608  1.00  0.00     0.164 HD
HETATM    6  H   UNL     1       8.509  30.099  56.128  1.00  0.00     0.164 HD
ENDROOT
BRANCH   3   7
HETATM    7  C   UNL     1       9.370  30.256  58.038  1.00  0.00     0.162 C 
BRANCH   7   8
HETATM    8  C   UNL     1       8.666  30.815  59.257  1.00  0.00    -0.040 A 
HETATM    9  C   UNL     1       7.507  31.600  59.172  1.00  0.00     0.011 A 
HETATM   10  C   UNL     1       6.929  32.156  60.318  1.00  0.00     0.030 A 
HETATM   11  C   UNL     1       7.479  31.916  61.577  1.00  0.00     0.035 A 
HETATM   12  C   UNL     1       8.586  31.069  61.676  1.00  0.00     0.030 A 
HETATM   13  C   UNL     1       9.178  30.528  60.529  1.00  0.00     0.011 A 
BRANCH  11  14
HETATM   14  N   UNL     1       6.994  32.487  62.764  1.00  0.00    -0.321 N 
HETATM   15  C   UNL     1       5.774  32.271  63.383  1.00  0.00     0.279 C 
HETATM   16  O   UNL     1       4.901  31.508  62.979  1.00  0.00    -0.265 OA
HETATM   17  H   UNL     1       7.560  33.214  63.195  1.00  0.00     0.169 HD
BRANCH  15  18
HETATM   18  C   UNL     1       5.601  33.094  64.568  1.00  0.00     0.142 A 
HETATM   19  O   UNL     1       4.358  33.185  65.143  1.00  0.00    -0.317 OA
HETATM   20  C   UNL     1       4.477  33.993  66.229  1.00  0.00     0.143 A 
HETATM   21  C   UNL     1       5.774  34.424  66.369  1.00  0.00     0.027 A 
HETATM   22  C   UNL     1       6.500  33.847  65.298  1.00  0.00     0.045 A 
ENDBRANCH  15  18
ENDBRANCH  11  14
ENDBRANCH   7   8
ENDBRANCH   3   7
BRANCH   1  23
HETATM   23  C   UNL     1       6.884  26.637  55.823  1.00  0.00     0.089 C 
HETATM   24  C   UNL     1       7.337  25.896  54.562  1.00  0.00     0.053 C 
HETATM   25  C   UNL     1       6.919  26.625  53.298  1.00  0.00     0.237 C 
HETATM   26  N   UNL     1       5.397  26.759  53.250  1.00  0.00    -0.067 N 
HETATM   27  H   UNL     1       5.011  25.806  53.216  1.00  0.00     0.280 HD
HETATM   28  C   UNL     1       4.872  27.426  54.511  1.00  0.00     0.237 C 
HETATM   29  C   UNL     1       5.358  26.718  55.773  1.00  0.00     0.053 C 
BRANCH  26  30
HETATM   30  C   UNL     1       4.929  27.473  51.963  1.00  0.00     0.180 C 
HETATM   31  C   UNL     1       5.266  26.627  50.732  1.00  0.00     0.039 C 
HETATM   32  C   UNL     1       5.619  28.833  51.832  1.00  0.00     0.039 C 
ENDBRANCH  26  30
ENDBRANCH   1  23
TORSDOF 6
ENDMDL
MODEL 4
REMARK VINA RESULT:      -8.7      2.038      2.867
REMARK  6 active torsions:
REMARK  status: ('A' for Active; 'I' for Inactive)
REMARK    1  A    between atoms: C_2  and  N_3 
REMARK    2  A    between atoms: C_7  and  N_8 
REMARK       I    between atoms: N_8  and  C_9 
REMARK       I    between atoms: C_9  and  N_10 
REMARK    3  A    between atoms: N_10  and  C_11 
REMARK    4  A    between atoms: C_11  and  C_12 
REMARK    5  A    between atoms: C_15  and  N_16 
REMARK       I    between atoms: N_16  and  C_17 
REMARK    6  A    between atoms: C_17  and  C_18 
ROOT
HETATM    1  N   UNL     1       4.829  31.738  59.913  1.00  0.00    -0.338 N 
HETATM    2  C   UNL     1       4.390  31.192  58.727  1.00  0.00     0.316 C 
HETATM    3  N   UNL     1       5.388  30.476  58.122  1.00  0.00    -0.339 N 
HETATM    4  O   UNL     1       3.290  31.398  58.240  1.00  0.00    -0.247 OA
HETATM    5  H   UNL     1       5.397  31.064  60.413  1.00  0.00     0.164 HD
HETATM    6  H   UNL     1       6.327  30.585  58.473  1.00  0.00     0.164 HD
ENDROOT
BRANCH   3   7
HETATM    7  C   UNL     1       5.262  30.066  56.736  1.00  0.00     0.162 C 
BRANCH   7   8
HETATM    8  C   UNL     1       5.718  28.643  56.487  1.00  0.00    -0.040 A 
HETATM    9  C   UNL     1       6.918  28.128  56.996  1.00  0.00     0.011 A 
HETATM   10  C   UNL     1       7.337  26.831  56.681  1.00  0.00     0.030 A 
HETATM   11  C   UNL     1       6.550  26.009  55.875  1.00  0.00     0.035 A 
HETATM   12  C   UNL     1       5.314  26.487  55.431  1.00  0.00     0.030 A 
HETATM   13  C   UNL     1       4.903  27.792  55.728  1.00  0.00     0.011 A 
BRANCH  11  14
HETATM   14  N   UNL     1       6.929  24.721  55.465  1.00  0.00    -0.321 N 
HETATM   15  C   UNL     1       7.546  24.345  54.284  1.00  0.00     0.279 C 
HETATM   16  O   UNL     1       7.880  25.111  53.384  1.00  0.00    -0.265 OA
HETATM   17  H   UNL     1       6.651  23.944  56.059  1.00  0.00     0.169 HD
BRANCH  15  18
HETATM   18  C   UNL     1       7.723  22.906  54.186  1.00  0.00     0.142 A 
HETATM   19  O   UNL     1       7.586  22.136  55.315  1.00  0.00    -0.317 OA
HETATM   20  C   UNL     1       7.784  20.844  54.946  1.00  0.00     0.143 A 
HETATM   21  C   UNL     1       8.045  20.762  53.600  1.00  0.00     0.027 A 
HETATM   22  C   UNL     1       8.008  22.090  53.109  1.00  0.00     0.045 A 
ENDBRANCH  15  18
ENDBRANCH  11  14
ENDBRANCH   7   8
ENDBRANCH   3   7
BRANCH   1  23
HETATM   23  C   UNL     1       3.992  32.593  60.760  1.00  0.00     0.089 C 
HETATM   24  C   UNL     1       4.473  34.035  60.942  1.00  0.00     0.053 C 
HETATM   25  C   UNL     1       5.838  34.095  61.603  1.00  0.00     0.237 C 
HETATM   26  N   UNL     1       5.782  33.435  62.981  1.00  0.00    -0.067 N 
HETATM   27  H   UNL     1       5.122  33.981  63.550  1.00  0.00     0.280 HD
HETATM   28  C   UNL     1       5.243  32.018  62.880  1.00  0.00     0.237 C 
HETATM   29  C   UNL     1       3.901  31.970  62.153  1.00  0.00     0.053 C 
BRANCH  26  30
HETATM   30  C   UNL     1       7.148  33.500  63.698  1.00  0.00     0.180 C 
HETATM   31  C   UNL     1       8.012  32.299  63.308  1.00  0.00     0.039 C 
HETATM   32  C   UNL     1       6.950  33.496  65.216  1.00  0.00     0.039 C 
ENDBRANCH  26  30
ENDBRANCH   1  23
TORSDOF 6
ENDMDL
MODEL 5
REMARK VINA RESULT:      -8.7      2.264      3.915
REMARK  6 active torsions:
REMARK  status: ('A' for Active; 'I' for Inactive)
REMARK    1  A    between atoms: C_2  and  N_3 
REMARK    2  A    between atoms: C_7  and  N_8 
REMARK       I    between atoms: N_8  and  C_9 
REMARK       I    between atoms: C_9  and  N_10 
REMARK    3  A    between atoms: N_10  and  C_11 
REMARK    4  A    between atoms: C_11  and  C_12 
REMARK    5  A    between atoms: C_15  and  N_16 
REMARK       I    between atoms: N_16  and  C_17 
REMARK    6  A    between atoms: C_17  and  C_18 
ROOT
HETATM    1  N   UNL     1       7.315  32.579  61.914  1.00  0.00    -0.338 N 
HETATM    2  C   UNL     1       8.501  32.081  61.421  1.00  0.00     0.316 C 
HETATM    3  N   UNL     1       8.728  32.536  60.150  1.00  0.00    -0.339 N 
HETATM    4  O   UNL     1       9.204  31.273  62.005  1.00  0.00    -0.247 OA
HETATM    5  H   UNL     1       7.218  33.555  61.658  1.00  0.00     0.164 HD
HETATM    6  H   UNL     1       7.966  32.983  59.665  1.00  0.00     0.164 HD
ENDROOT
BRANCH   3   7
HETATM    7  C   UNL     1       9.744  31.918  59.319  1.00  0.00     0.162 C 
BRANCH   7   8
HETATM    8  C   UNL     1       9.242  30.713  58.550  1.00  0.00    -0.040 A 
HETATM    9  C   UNL     1       7.941  30.209  58.691  1.00  0.00     0.011 A 
HETATM   10  C   UNL     1       7.541  29.050  58.017  1.00  0.00     0.030 A 
HETATM   11  C   UNL     1       8.423  28.387  57.164  1.00  0.00     0.035 A 
HETATM   12  C   UNL     1       9.694  28.930  56.957  1.00  0.00     0.030 A 
HETATM   13  C   UNL     1      10.103  30.077  57.646  1.00  0.00     0.011 A 
BRANCH  11  14
HETATM   14  N   UNL     1       8.117  27.187  56.502  1.00  0.00    -0.321 N 
HETATM   15  C   UNL     1       8.016  25.914  57.038  1.00  0.00     0.279 C 
HETATM   16  O   UNL     1       8.173  25.630  58.223  1.00  0.00    -0.265 OA
HETATM   17  H   UNL     1       8.037  27.223  55.489  1.00  0.00     0.169 HD
BRANCH  15  18
HETATM   18  C   UNL     1       7.745  24.908  56.026  1.00  0.00     0.142 A 
HETATM   19  O   UNL     1       7.576  23.600  56.411  1.00  0.00    -0.317 OA
HETATM   20  C   UNL     1       7.322  22.882  55.287  1.00  0.00     0.143 A 
HETATM   21  C   UNL     1       7.322  23.699  54.182  1.00  0.00     0.027 A 
HETATM   22  C   UNL     1       7.596  25.004  54.656  1.00  0.00     0.045 A 
ENDBRANCH  15  18
ENDBRANCH  11  14
ENDBRANCH   7   8
ENDBRANCH   3   7
BRANCH   1  23
HETATM   23  C   UNL     1       6.788  32.229  63.237  1.00  0.00     0.089 C 
HETATM   24  C   UNL     1       5.268  32.081  63.336  1.00  0.00     0.053 C 
HETATM   25  C   UNL     1       4.550  33.373  62.990  1.00  0.00     0.237 C 
HETATM   26  N   UNL     1       4.983  34.484  63.947  1.00  0.00    -0.067 N 
HETATM   27  H   UNL     1       4.695  34.197  64.891  1.00  0.00     0.280 HD
HETATM   28  C   UNL     1       6.495  34.637  63.950  1.00  0.00     0.237 C 
HETATM   29  C   UNL     1       7.200  33.313  64.234  1.00  0.00     0.053 C 
BRANCH  26  30
HETATM   30  C   UNL     1       4.252  35.811  63.643  1.00  0.00     0.180 C 
HETATM   31  C   UNL     1       3.740  35.819  62.201  1.00  0.00     0.039 C 
HETATM   32  C   UNL     1       5.203  36.994  63.838  1.00  0.00     0.039 C 
ENDBRANCH  26  30
ENDBRANCH   1  23
TORSDOF 6
ENDMDL
MODEL 6
REMARK VINA RESULT:      -8.7      2.834     10.859
REMARK  6 active torsions:
REMARK  status: ('A' for Active; 'I' for Inactive)
REMARK    1  A    between atoms: C_2  and  N_3 
REMARK    2  A    between atoms: C_7  and  N_8 
REMARK       I    between atoms: N_8  and  C_9 
REMARK       I    between atoms: C_9  and  N_10 
REMARK    3  A    between atoms: N_10  and  C_11 
REMARK    4  A    between atoms: C_11  and  C_12 
REMARK    5  A    between atoms: C_15  and  N_16 
REMARK       I    between atoms: N_16  and  C_17 
REMARK    6  A    between atoms: C_17  and  C_18 
ROOT
HETATM    1  N   UNL     1       6.670  27.393  56.650  1.00  0.00    -0.338 N 
HETATM    2  C   UNL     1       5.841  28.492  56.640  1.00  0.00     0.316 C 
HETATM    3  N   UNL     1       6.540  29.626  56.321  1.00  0.00    -0.339 N 
HETATM    4  O   UNL     1       4.664  28.470  56.960  1.00  0.00    -0.247 OA
HETATM    5  H   UNL     1       7.311  27.437  55.867  1.00  0.00     0.164 HD
HETATM    6  H   UNL     1       7.546  29.579  56.331  1.00  0.00     0.164 HD
ENDROOT
BRANCH   3   7
HETATM    7  C   UNL     1       5.955  30.936  56.539  1.00  0.00     0.162 C 
BRANCH   7   8
HETATM    8  C   UNL     1       6.123  31.441  57.958  1.00  0.00    -0.040 A 
HETATM    9  C   UNL     1       7.265  31.178  58.728  1.00  0.00     0.011 A 
HETATM   10  C   UNL     1       7.348  31.601  60.059  1.00  0.00     0.030 A 
HETATM   11  C   UNL     1       6.306  32.322  60.639  1.00  0.00     0.035 A 
HETATM   12  C   UNL     1       5.201  32.658  59.852  1.00  0.00     0.030 A 
HETATM   13  C   UNL     1       5.106  32.218  58.528  1.00  0.00     0.011 A 
BRANCH  11  14
HETATM   14  N   UNL     1       6.289  32.728  61.984  1.00  0.00    -0.321 N 
HETATM   15  C   UNL     1       5.542  32.206  63.027  1.00  0.00     0.279 C 
HETATM   16  O   UNL     1       4.760  31.264  62.935  1.00  0.00    -0.265 OA
HETATM   17  H   UNL     1       6.822  33.560  62.225  1.00  0.00     0.169 HD
BRANCH  15  18
HETATM   18  C   UNL     1       5.744  32.932  64.269  1.00  0.00     0.142 A 
HETATM   19  O   UNL     1       4.664  33.184  65.080  1.00  0.00    -0.317 OA
HETATM   20  C   UNL     1       5.128  33.854  66.167  1.00  0.00     0.143 A 
HETATM   21  C   UNL     1       6.486  34.037  66.077  1.00  0.00     0.027 A 
HETATM   22  C   UNL     1       6.885  33.446  64.854  1.00  0.00     0.045 A 
ENDBRANCH  15  18
ENDBRANCH  11  14
ENDBRANCH   7   8
ENDBRANCH   3   7
BRANCH   1  23
HETATM   23  C   UNL     1       6.210  26.046  57.001  1.00  0.00     0.089 C 
HETATM   24  C   UNL     1       7.305  24.997  57.213  1.00  0.00     0.053 C 
HETATM   25  C   UNL     1       8.132  24.782  55.959  1.00  0.00     0.237 C 
HETATM   26  N   UNL     1       7.235  24.309  54.815  1.00  0.00    -0.067 N 
HETATM   27  H   UNL     1       6.837  23.404  55.099  1.00  0.00     0.280 HD
HETATM   28  C   UNL     1       6.082  25.274  54.597  1.00  0.00     0.237 C 
HETATM   29  C   UNL     1       5.302  25.529  55.885  1.00  0.00     0.053 C 
BRANCH  26  30
HETATM   30  C   UNL     1       8.046  24.053  53.526  1.00  0.00     0.180 C 
HETATM   31  C   UNL     1       7.435  24.821  52.351  1.00  0.00     0.039 C 
HETATM   32  C   UNL     1       8.052  22.560  53.192  1.00  0.00     0.039 C 
ENDBRANCH  26  30
ENDBRANCH   1  23
TORSDOF 6
ENDMDL
MODEL 7
REMARK VINA RESULT:      -8.6      4.067     11.992
REMARK  6 active torsions:
REMARK  status: ('A' for Active; 'I' for Inactive)
REMARK    1  A    between atoms: C_2  and  N_3 
REMARK    2  A    between atoms: C_7  and  N_8 
REMARK       I    between atoms: N_8  and  C_9 
REMARK       I    between atoms: C_9  and  N_10 
REMARK    3  A    between atoms: N_10  and  C_11 
REMARK    4  A    between atoms: C_11  and  C_12 
REMARK    5  A    between atoms: C_15  and  N_16 
REMARK       I    between atoms: N_16  and  C_17 
REMARK    6  A    between atoms: C_17  and  C_18 
ROOT
HETATM    1  N   UNL     1       7.783  29.423  58.476  1.00  0.00    -0.338 N 
HETATM    2  C   UNL     1       8.011  30.709  58.912  1.00  0.00     0.316 C 
HETATM    3  N   UNL     1       7.077  31.080  59.843  1.00  0.00    -0.339 N 
HETATM    4  O   UNL     1       8.871  31.447  58.461  1.00  0.00    -0.247 OA
HETATM    5  H   UNL     1       7.530  28.833  59.260  1.00  0.00     0.164 HD
HETATM    6  H   UNL     1       6.262  30.497  59.952  1.00  0.00     0.164 HD
ENDROOT
BRANCH   3   7
HETATM    7  C   UNL     1       6.928  32.472  60.221  1.00  0.00     0.162 C 
BRANCH   7   8
HETATM    8  C   UNL     1       6.793  32.679  61.716  1.00  0.00    -0.040 A 
HETATM    9  C   UNL     1       5.572  32.987  62.333  1.00  0.00     0.011 A 
HETATM   10  C   UNL     1       5.504  33.241  63.707  1.00  0.00     0.030 A 
HETATM   11  C   UNL     1       6.649  33.163  64.499  1.00  0.00     0.035 A 
HETATM   12  C   UNL     1       7.853  32.777  63.904  1.00  0.00     0.030 A 
HETATM   13  C   UNL     1       7.927  32.542  62.527  1.00  0.00     0.011 A 
BRANCH  11  14
HETATM   14  N   UNL     1       6.673  33.463  65.871  1.00  0.00    -0.321 N 
HETATM   15  C   UNL     1       5.878  34.360  66.565  1.00  0.00     0.279 C 
HETATM   16  O   UNL     1       4.988  35.048  66.072  1.00  0.00    -0.265 OA
HETATM   17  H   UNL     1       7.412  33.041  66.425  1.00  0.00     0.169 HD
BRANCH  15  18
HETATM   18  C   UNL     1       6.240  34.448  67.969  1.00  0.00     0.142 A 
HETATM   19  O   UNL     1       5.270  34.263  68.924  1.00  0.00    -0.317 OA
HETATM   20  C   UNL     1       5.872  34.380  70.135  1.00  0.00     0.143 A 
HETATM   21  C   UNL     1       7.214  34.634  69.984  1.00  0.00     0.027 A 
HETATM   22  C   UNL     1       7.453  34.679  68.589  1.00  0.00     0.045 A 
ENDBRANCH  15  18
ENDBRANCH  11  14
ENDBRANCH   7   8
ENDBRANCH   3   7
BRANCH   1  23
HETATM   23  C   UNL     1       8.596  28.771  57.444  1.00  0.00     0.089 C 
HETATM   24  C   UNL     1       8.395  29.274  56.013  1.00  0.00     0.053 C 
HETATM   25  C   UNL     1       6.970  29.065  55.536  1.00  0.00     0.237 C 
HETATM   26  N   UNL     1       6.619  27.577  55.570  1.00  0.00    -0.067 N 
HETATM   27  H   UNL     1       7.253  27.103  54.914  1.00  0.00     0.280 HD
HETATM   28  C   UNL     1       6.864  26.996  56.953  1.00  0.00     0.237 C 
HETATM   29  C   UNL     1       8.283  27.275  57.443  1.00  0.00     0.053 C 
BRANCH  26  30
HETATM   30  C   UNL     1       5.182  27.321  55.065  1.00  0.00     0.180 C 
HETATM   31  C   UNL     1       5.130  27.416  53.538  1.00  0.00     0.039 C 
HETATM   32  C   UNL     1       4.220  28.352  55.659  1.00  0.00     0.039 C 
ENDBRANCH  26  30
ENDBRANCH   1  23
TORSDOF 6
ENDMDL
MODEL 8
REMARK VINA RESULT:      -8.5      4.999     10.896
REMARK  6 active torsions:
REMARK  status: ('A' for Active; 'I' for Inactive)
REMARK    1  A    between atoms: C_2  and  N_3 
REMARK    2  A    between atoms: C_7  and  N_8 
REMARK       I    between atoms: N_8  and  C_9 
REMARK       I    between atoms: C_9  and  N_10 
REMARK    3  A    between atoms: N_10  and  C_11 
REMARK    4  A    between atoms: C_11  and  C_12 
REMARK    5  A    between atoms: C_15  and  N_16 
REMARK       I    between atoms: N_16  and  C_17 
REMARK    6  A    between atoms: C_17  and  C_18 
ROOT
HETATM    1  N   UNL     1       4.606  26.733  50.916  1.00  0.00    -0.338 N 
HETATM    2  C   UNL     1       5.319  25.870  51.717  1.00  0.00     0.316 C 
HETATM    3  N   UNL     1       4.623  25.580  52.861  1.00  0.00    -0.339 N 
HETATM    4  O   UNL     1       6.454  25.490  51.481  1.00  0.00    -0.247 OA
HETATM    5  H   UNL     1       3.628  26.467  50.907  1.00  0.00     0.164 HD
HETATM    6  H   UNL     1       3.818  26.145  53.079  1.00  0.00     0.164 HD
ENDROOT
BRANCH   3   7
HETATM    7  C   UNL     1       5.286  24.943  53.983  1.00  0.00     0.162 C 
BRANCH   7   8
HETATM    8  C   UNL     1       5.990  25.921  54.901  1.00  0.00    -0.040 A 
HETATM    9  C   UNL     1       7.160  25.598  55.602  1.00  0.00     0.011 A 
HETATM   10  C   UNL     1       7.738  26.507  56.495  1.00  0.00     0.030 A 
HETATM   11  C   UNL     1       7.175  27.769  56.685  1.00  0.00     0.035 A 
HETATM   12  C   UNL     1       6.056  28.126  55.929  1.00  0.00     0.030 A 
HETATM   13  C   UNL     1       5.465  27.212  55.050  1.00  0.00     0.011 A 
BRANCH  11  14
HETATM   14  N   UNL     1       7.660  28.711  57.607  1.00  0.00    -0.321 N 
HETATM   15  C   UNL     1       8.698  29.613  57.444  1.00  0.00     0.279 C 
HETATM   16  O   UNL     1       9.372  29.740  56.426  1.00  0.00    -0.265 OA
HETATM   17  H   UNL     1       7.267  28.688  58.544  1.00  0.00     0.169 HD
BRANCH  15  18
HETATM   18  C   UNL     1       8.953  30.385  58.648  1.00  0.00     0.142 A 
HETATM   19  O   UNL     1       8.524  29.900  59.858  1.00  0.00    -0.317 OA
HETATM   20  C   UNL     1       8.900  30.797  60.806  1.00  0.00     0.143 A 
HETATM   21  C   UNL     1       9.567  31.853  60.233  1.00  0.00     0.027 A 
HETATM   22  C   UNL     1       9.600  31.591  58.842  1.00  0.00     0.045 A 
ENDBRANCH  15  18
ENDBRANCH  11  14
ENDBRANCH   7   8
ENDBRANCH   3   7
BRANCH   1  23
HETATM   23  C   UNL     1       5.119  27.255  49.645  1.00  0.00     0.089 C 
HETATM   24  C   UNL     1       4.757  28.706  49.321  1.00  0.00     0.053 C 
HETATM   25  C   UNL     1       3.257  28.904  49.214  1.00  0.00     0.237 C 
HETATM   26  N   UNL     1       2.688  28.015  48.109  1.00  0.00    -0.067 N 
HETATM   27  H   UNL     1       3.118  28.319  47.226  1.00  0.00     0.280 HD
HETATM   28  C   UNL     1       3.072  26.561  48.333  1.00  0.00     0.237 C 
HETATM   29  C   UNL     1       4.580  26.392  48.505  1.00  0.00     0.053 C 
BRANCH  26  30
HETATM   30  C   UNL     1       1.164  28.208  47.951  1.00  0.00     0.180 C 
HETATM   31  C   UNL     1       0.637  27.363  46.788  1.00  0.00     0.039 C 
HETATM   32  C   UNL     1       0.842  29.679  47.680  1.00  0.00     0.039 C 
ENDBRANCH  26  30
ENDBRANCH   1  23
TORSDOF 6
ENDMDL
MODEL 9
REMARK VINA RESULT:      -8.4      2.101      3.376
REMARK  6 active torsions:
REMARK  status: ('A' for Active; 'I' for Inactive)
REMARK    1  A    between atoms: C_2  and  N_3 
REMARK    2  A    between atoms: C_7  and  N_8 
REMARK       I    between atoms: N_8  and  C_9 
REMARK       I    between atoms: C_9  and  N_10 
REMARK    3  A    between atoms: N_10  and  C_11 
REMARK    4  A    between atoms: C_11  and  C_12 
REMARK    5  A    between atoms: C_15  and  N_16 
REMARK       I    between atoms: N_16  and  C_17 
REMARK    6  A    between atoms: C_17  and  C_18 
ROOT
HETATM    1  N   UNL     1       5.365  32.431  60.841  1.00  0.00    -0.338 N 
HETATM    2  C   UNL     1       5.952  32.311  59.602  1.00  0.00     0.316 C 
HETATM    3  N   UNL     1       6.866  31.291  59.593  1.00  0.00    -0.339 N 
HETATM    4  O   UNL     1       5.752  33.071  58.669  1.00  0.00    -0.247 OA
HETATM    5  H   UNL     1       5.160  31.511  61.216  1.00  0.00     0.164 HD
HETATM    6  H   UNL     1       7.144  30.898  60.478  1.00  0.00     0.164 HD
ENDROOT
BRANCH   3   7
HETATM    7  C   UNL     1       7.819  31.167  58.506  1.00  0.00     0.162 C 
BRANCH   7   8
HETATM    8  C   UNL     1       7.872  29.776  57.909  1.00  0.00    -0.040 A 
HETATM    9  C   UNL     1       9.072  29.153  57.539  1.00  0.00     0.011 A 
HETATM   10  C   UNL     1       9.071  27.896  56.923  1.00  0.00     0.030 A 
HETATM   11  C   UNL     1       7.873  27.223  56.691  1.00  0.00     0.035 A 
HETATM   12  C   UNL     1       6.679  27.802  57.131  1.00  0.00     0.030 A 
HETATM   13  C   UNL     1       6.677  29.067  57.728  1.00  0.00     0.011 A 
BRANCH  11  14
HETATM   14  N   UNL     1       7.785  25.989  56.025  1.00  0.00    -0.321 N 
HETATM   15  C   UNL     1       8.157  24.738  56.487  1.00  0.00     0.279 C 
HETATM   16  O   UNL     1       8.627  24.504  57.597  1.00  0.00    -0.265 OA
HETATM   17  H   UNL     1       7.491  26.007  55.052  1.00  0.00     0.169 HD
BRANCH  15  18
HETATM   18  C   UNL     1       7.976  23.702  55.484  1.00  0.00     0.142 A 
HETATM   19  O   UNL     1       8.227  22.394  55.820  1.00  0.00    -0.317 OA
HETATM   20  C   UNL     1       7.968  21.641  54.720  1.00  0.00     0.143 A 
HETATM   21  C   UNL     1       7.551  22.435  53.680  1.00  0.00     0.027 A 
HETATM   22  C   UNL     1       7.557  23.764  54.169  1.00  0.00     0.045 A 
ENDBRANCH  15  18
ENDBRANCH  11  14
ENDBRANCH   7   8
ENDBRANCH   3   7
BRANCH   1  23
HETATM   23  C   UNL     1       4.377  33.466  61.163  1.00  0.00     0.089 C 
HETATM   24  C   UNL     1       4.935  34.867  61.427  1.00  0.00     0.053 C 
HETATM   25  C   UNL     1       5.879  34.885  62.614  1.00  0.00     0.237 C 
HETATM   26  N   UNL     1       5.146  34.421  63.873  1.00  0.00    -0.067 N 
HETATM   27  H   UNL     1       4.392  35.097  64.049  1.00  0.00     0.280 HD
HETATM   28  C   UNL     1       4.505  33.060  63.656  1.00  0.00     0.237 C 
HETATM   29  C   UNL     1       3.612  33.044  62.417  1.00  0.00     0.053 C 
BRANCH  26  30
HETATM   30  C   UNL     1       6.068  34.451  65.112  1.00  0.00     0.180 C 
HETATM   31  C   UNL     1       7.219  33.456  64.943  1.00  0.00     0.039 C 
HETATM   32  C   UNL     1       5.277  34.084  66.370  1.00  0.00     0.039 C 
ENDBRANCH  26  30
ENDBRANCH   1  23
TORSDOF 6
ENDMDL
MODEL 10
REMARK VINA RESULT:      -8.2      2.914     10.180
REMARK  6 active torsions:
REMARK  status: ('A' for Active; 'I' for Inactive)
REMARK    1  A    between atoms: C_2  and  N_3 
REMARK    2  A    between atoms: C_7  and  N_8 
REMARK       I    between atoms: N_8  and  C_9 
REMARK       I    between atoms: C_9  and  N_10 
REMARK    3  A    between atoms: N_10  and  C_11 
REMARK    4  A    between atoms: C_11  and  C_12 
REMARK    5  A    between atoms: C_15  and  N_16 
REMARK       I    between atoms: N_16  and  C_17 
REMARK    6  A    between atoms: C_17  and  C_18 
ROOT
HETATM    1  N   UNL     1       6.290  27.193  52.792  1.00  0.00    -0.338 N 
HETATM    2  C   UNL     1       5.271  28.106  52.947  1.00  0.00     0.316 C 
HETATM    3  N   UNL     1       5.687  29.177  53.692  1.00  0.00    -0.339 N 
HETATM    4  O   UNL     1       4.130  27.937  52.552  1.00  0.00    -0.247 OA
HETATM    5  H   UNL     1       7.163  27.676  52.613  1.00  0.00     0.164 HD
HETATM    6  H   UNL     1       6.561  29.097  54.187  1.00  0.00     0.164 HD
ENDROOT
BRANCH   3   7
HETATM    7  C   UNL     1       4.722  30.112  54.238  1.00  0.00     0.162 C 
BRANCH   7   8
HETATM    8  C   UNL     1       5.026  30.527  55.663  1.00  0.00    -0.040 A 
HETATM    9  C   UNL     1       4.394  31.610  56.290  1.00  0.00     0.011 A 
HETATM   10  C   UNL     1       4.757  32.005  57.583  1.00  0.00     0.030 A 
HETATM   11  C   UNL     1       5.738  31.308  58.287  1.00  0.00     0.035 A 
HETATM   12  C   UNL     1       6.313  30.178  57.699  1.00  0.00     0.030 A 
HETATM   13  C   UNL     1       5.967  29.794  56.399  1.00  0.00     0.011 A 
BRANCH  11  14
HETATM   14  N   UNL     1       6.199  31.678  59.561  1.00  0.00    -0.321 N 
HETATM   15  C   UNL     1       7.424  32.229  59.901  1.00  0.00     0.279 C 
HETATM   16  O   UNL     1       8.323  32.499  59.110  1.00  0.00    -0.265 OA
HETATM   17  H   UNL     1       5.608  31.447  60.354  1.00  0.00     0.169 HD
BRANCH  15  18
HETATM   18  C   UNL     1       7.565  32.419  61.335  1.00  0.00     0.142 A 
HETATM   19  O   UNL     1       6.846  33.413  61.952  1.00  0.00    -0.317 OA
HETATM   20  C   UNL     1       7.148  33.363  63.275  1.00  0.00     0.143 A 
HETATM   21  C   UNL     1       8.046  32.354  63.527  1.00  0.00     0.027 A 
HETATM   22  C   UNL     1       8.318  31.746  62.277  1.00  0.00     0.045 A 
ENDBRANCH  15  18
ENDBRANCH  11  14
ENDBRANCH   7   8
ENDBRANCH   3   7
BRANCH   1  23
HETATM   23  C   UNL     1       6.127  25.923  52.077  1.00  0.00     0.089 C 
HETATM   24  C   UNL     1       5.138  24.929  52.691  1.00  0.00     0.053 C 
HETATM   25  C   UNL     1       5.556  24.506  54.087  1.00  0.00     0.237 C 
HETATM   26  N   UNL     1       6.932  23.842  54.043  1.00  0.00    -0.067 N 
HETATM   27  H   UNL     1       6.841  22.998  53.464  1.00  0.00     0.280 HD
HETATM   28  C   UNL     1       7.951  24.753  53.378  1.00  0.00     0.237 C 
HETATM   29  C   UNL     1       7.482  25.221  52.002  1.00  0.00     0.053 C 
BRANCH  26  30
HETATM   30  C   UNL     1       7.382  23.373  55.445  1.00  0.00     0.180 C 
HETATM   31  C   UNL     1       7.430  24.558  56.413  1.00  0.00     0.039 C 
HETATM   32  C   UNL     1       8.772  22.738  55.369  1.00  0.00     0.039 C 
ENDBRANCH  26  30
ENDBRANCH   1  23
TORSDOF 6
ENDMDL
