MODEL 1
REMARK VINA RESULT:      -9.7      0.000      0.000
REMARK  2 active torsions:
REMARK  status: ('A' for Active; 'I' for Inactive)
REMARK    1  A    between atoms: C_9  and  C_10 
REMARK       I    between atoms: C_10  and  N_11 
REMARK    2  A    between atoms: N_11  and  C_12 
ROOT
HETATM    1  C   UNL     1       7.305  26.479  56.136  1.00  0.00     0.277 C 
HETATM    2  N   UNL     1       7.605  27.807  55.890  1.00  0.00    -0.322 N 
HETATM    3  O   UNL     1       6.929  26.004  57.201  1.00  0.00    -0.266 OA
HETATM    4  H   UNL     1       7.911  27.974  54.934  1.00  0.00     0.169 HD
ENDROOT
BRANCH   1   5
HETATM    5  C   UNL     1       7.498  25.650  54.931  1.00  0.00     0.157 A 
HETATM    6  C   UNL     1       7.638  24.231  54.864  1.00  0.00     0.029 A 
HETATM    7  C   UNL     1       7.657  23.168  55.788  1.00  0.00     0.023 A 
HETATM    8  C   UNL     1       7.792  23.946  53.513  1.00  0.00     0.063 A 
HETATM    9  C   UNL     1       7.836  21.852  55.328  1.00  0.00    -0.061 A 
HETATM   10  C   UNL     1       7.870  20.706  56.296  1.00  0.00     0.048 C 
HETATM   11  C   UNL     1       7.980  21.608  53.957  1.00  0.00     0.009 A 
HETATM   12  C   UNL     1       7.961  22.649  53.021  1.00  0.00     0.032 A 
HETATM   13  N   UNL     1       7.738  25.156  52.880  1.00  0.00    -0.277 N 
HETATM   14  H   UNL     1       7.813  25.328  51.884  1.00  0.00     0.189 HD
HETATM   15  N   UNL     1       7.575  26.210  53.700  1.00  0.00    -0.168 NA
ENDBRANCH   1   5
BRANCH   2  16
HETATM   16  C   UNL     1       7.553  28.898  56.771  1.00  0.00     0.037 A 
HETATM   17  C   UNL     1       8.557  29.206  57.692  1.00  0.00     0.069 A 
HETATM   18  C   UNL     1       8.415  30.302  58.551  1.00  0.00     0.104 A 
HETATM   19  C   UNL     1       7.285  31.117  58.470  1.00  0.00     0.102 A 
HETATM   20  O   UNL     1       9.471  30.576  59.378  1.00  0.00    -0.348 OA
HETATM   21  O   UNL     1       7.131  32.262  59.202  1.00  0.00    -0.348 OA
HETATM   22  C   UNL     1       6.296  30.836  57.532  1.00  0.00     0.042 A 
HETATM   23  C   UNL     1       7.075  32.002  60.604  1.00  0.00     0.178 C 
HETATM   24  C   UNL     1       8.458  31.828  61.212  1.00  0.00     0.053 C 
HETATM   25  C   UNL     1       9.099  30.527  60.755  1.00  0.00     0.178 C 
HETATM   26  C   UNL     1       6.421  29.720  56.699  1.00  0.00     0.032 A 
ENDBRANCH   2  16
TORSDOF 2
ENDMDL
MODEL 2
REMARK VINA RESULT:      -9.6      5.162      8.304
REMARK  2 active torsions:
REMARK  status: ('A' for Active; 'I' for Inactive)
REMARK    1  A    between atoms: C_9  and  C_10 
REMARK       I    between atoms: C_10  and  N_11 
REMARK    2  A    between atoms: N_11  and  C_12 
ROOT
HETATM    1  C   UNL     1       5.501  26.373  52.353  1.00  0.00     0.277 C 
HETATM    2  N   UNL     1       6.803  25.913  52.439  1.00  0.00    -0.322 N 
HETATM    3  O   UNL     1       4.556  26.011  53.044  1.00  0.00    -0.266 OA
HETATM    4  H   UNL     1       7.422  26.345  51.756  1.00  0.00     0.169 HD
ENDROOT
BRANCH   1   5
HETATM    5  C   UNL     1       5.355  27.386  51.290  1.00  0.00     0.157 A 
HETATM    6  C   UNL     1       4.761  27.218  50.003  1.00  0.00     0.029 A 
HETATM    7  C   UNL     1       4.155  26.161  49.295  1.00  0.00     0.023 A 
HETATM    8  C   UNL     1       4.870  28.459  49.390  1.00  0.00     0.063 A 
HETATM    9  C   UNL     1       3.682  26.382  47.990  1.00  0.00    -0.061 A 
HETATM   10  C   UNL     1       3.043  25.269  47.214  1.00  0.00     0.048 C 
HETATM   11  C   UNL     1       3.806  27.652  47.412  1.00  0.00     0.009 A 
HETATM   12  C   UNL     1       4.402  28.716  48.099  1.00  0.00     0.032 A 
HETATM   13  N   UNL     1       5.495  29.261  50.304  1.00  0.00    -0.277 N 
HETATM   14  H   UNL     1       5.737  30.238  50.194  1.00  0.00     0.189 HD
HETATM   15  N   UNL     1       5.816  28.648  51.458  1.00  0.00    -0.168 NA
ENDBRANCH   1   5
BRANCH   2  16
HETATM   16  C   UNL     1       7.342  24.953  53.310  1.00  0.00     0.037 A 
HETATM   17  C   UNL     1       7.779  23.690  52.906  1.00  0.00     0.069 A 
HETATM   18  C   UNL     1       8.283  22.784  53.845  1.00  0.00     0.104 A 
HETATM   19  C   UNL     1       8.386  23.147  55.189  1.00  0.00     0.102 A 
HETATM   20  O   UNL     1       8.751  21.592  53.360  1.00  0.00    -0.348 OA
HETATM   21  O   UNL     1       8.966  22.353  56.139  1.00  0.00    -0.348 OA
HETATM   22  C   UNL     1       7.983  24.417  55.594  1.00  0.00     0.042 A 
HETATM   23  C   UNL     1       8.253  21.131  56.329  1.00  0.00     0.178 C 
HETATM   24  C   UNL     1       8.606  20.090  55.279  1.00  0.00     0.053 C 
HETATM   25  C   UNL     1       8.055  20.477  53.915  1.00  0.00     0.178 C 
HETATM   26  C   UNL     1       7.446  25.309  54.661  1.00  0.00     0.032 A 
ENDBRANCH   2  16
TORSDOF 2
ENDMDL
MODEL 3
REMARK VINA RESULT:      -9.5      4.912      7.319
REMARK  2 active torsions:
REMARK  status: ('A' for Active; 'I' for Inactive)
REMARK    1  A    between atoms: C_9  and  C_10 
REMARK       I    between atoms: C_10  and  N_11 
REMARK    2  A    between atoms: N_11  and  C_12 
ROOT
HETATM    1  C   UNL     1       7.089  25.913  53.942  1.00  0.00     0.277 C 
HETATM    2  N   UNL     1       5.842  25.746  53.367  1.00  0.00    -0.322 N 
HETATM    3  O   UNL     1       7.907  26.782  53.663  1.00  0.00    -0.266 OA
HETATM    4  H   UNL     1       5.335  24.948  53.745  1.00  0.00     0.169 HD
ENDROOT
BRANCH   1   5
HETATM    5  C   UNL     1       7.353  24.887  54.969  1.00  0.00     0.157 A 
HETATM    6  C   UNL     1       7.665  23.510  54.763  1.00  0.00     0.029 A 
HETATM    7  C   UNL     1       7.823  22.660  53.650  1.00  0.00     0.023 A 
HETATM    8  C   UNL     1       7.823  22.980  56.037  1.00  0.00     0.063 A 
HETATM    9  C   UNL     1       8.130  21.304  53.852  1.00  0.00    -0.061 A 
HETATM   10  C   UNL     1       8.293  20.378  52.681  1.00  0.00     0.048 C 
HETATM   11  C   UNL     1       8.288  20.812  55.154  1.00  0.00     0.009 A 
HETATM   12  C   UNL     1       8.139  21.640  56.273  1.00  0.00     0.032 A 
HETATM   13  N   UNL     1       7.606  24.025  56.892  1.00  0.00    -0.277 N 
HETATM   14  H   UNL     1       7.642  24.003  57.904  1.00  0.00     0.189 HD
HETATM   15  N   UNL     1       7.307  25.189  56.288  1.00  0.00    -0.168 NA
ENDBRANCH   1   5
BRANCH   2  16
HETATM   16  C   UNL     1       5.229  26.506  52.359  1.00  0.00     0.037 A 
HETATM   17  C   UNL     1       5.191  26.133  51.014  1.00  0.00     0.069 A 
HETATM   18  C   UNL     1       4.576  26.961  50.068  1.00  0.00     0.104 A 
HETATM   19  C   UNL     1       3.965  28.151  50.468  1.00  0.00     0.102 A 
HETATM   20  O   UNL     1       4.523  26.494  48.783  1.00  0.00    -0.348 OA
HETATM   21  O   UNL     1       3.256  28.953  49.616  1.00  0.00    -0.348 OA
HETATM   22  C   UNL     1       3.970  28.513  51.811  1.00  0.00     0.042 A 
HETATM   23  C   UNL     1       4.076  29.500  48.583  1.00  0.00     0.178 C 
HETATM   24  C   UNL     1       4.291  28.520  47.441  1.00  0.00     0.053 C 
HETATM   25  C   UNL     1       5.186  27.367  47.868  1.00  0.00     0.178 C 
HETATM   26  C   UNL     1       4.615  27.703  52.750  1.00  0.00     0.032 A 
ENDBRANCH   2  16
TORSDOF 2
ENDMDL
MODEL 4
REMARK VINA RESULT:      -9.5      2.039      8.638
REMARK  2 active torsions:
REMARK  status: ('A' for Active; 'I' for Inactive)
REMARK    1  A    between atoms: C_9  and  C_10 
REMARK       I    between atoms: C_10  and  N_11 
REMARK    2  A    between atoms: N_11  and  C_12 
ROOT
HETATM    1  C   UNL     1       8.120  28.313  57.306  1.00  0.00     0.277 C 
HETATM    2  N   UNL     1       7.357  27.186  57.056  1.00  0.00    -0.322 N 
HETATM    3  O   UNL     1       9.328  28.426  57.132  1.00  0.00    -0.266 OA
HETATM    4  H   UNL     1       6.374  27.314  57.287  1.00  0.00     0.169 HD
ENDROOT
BRANCH   1   5
HETATM    5  C   UNL     1       7.296  29.416  57.837  1.00  0.00     0.157 A 
HETATM    6  C   UNL     1       7.651  30.361  58.846  1.00  0.00     0.029 A 
HETATM    7  C   UNL     1       8.777  30.603  59.658  1.00  0.00     0.023 A 
HETATM    8  C   UNL     1       6.541  31.183  58.979  1.00  0.00     0.063 A 
HETATM    9  C   UNL     1       8.751  31.662  60.582  1.00  0.00    -0.061 A 
HETATM   10  C   UNL     1       9.935  31.932  61.463  1.00  0.00     0.048 C 
HETATM   11  C   UNL     1       7.612  32.472  60.678  1.00  0.00     0.009 A 
HETATM   12  C   UNL     1       6.484  32.251  59.879  1.00  0.00     0.032 A 
HETATM   13  N   UNL     1       5.627  30.705  58.082  1.00  0.00    -0.277 N 
HETATM   14  H   UNL     1       4.697  31.067  57.906  1.00  0.00     0.189 HD
HETATM   15  N   UNL     1       6.039  29.632  57.383  1.00  0.00    -0.168 NA
ENDBRANCH   1   5
BRANCH   2  16
HETATM   16  C   UNL     1       7.766  25.940  56.557  1.00  0.00     0.037 A 
HETATM   17  C   UNL     1       7.719  25.586  55.207  1.00  0.00     0.069 A 
HETATM   18  C   UNL     1       8.126  24.312  54.796  1.00  0.00     0.104 A 
HETATM   19  C   UNL     1       8.617  23.396  55.729  1.00  0.00     0.102 A 
HETATM   20  O   UNL     1       8.112  24.065  53.450  1.00  0.00    -0.348 OA
HETATM   21  O   UNL     1       9.130  22.176  55.385  1.00  0.00    -0.348 OA
HETATM   22  C   UNL     1       8.697  23.753  57.072  1.00  0.00     0.042 A 
HETATM   23  C   UNL     1       8.150  21.328  54.786  1.00  0.00     0.178 C 
HETATM   24  C   UNL     1       7.950  21.633  53.310  1.00  0.00     0.053 C 
HETATM   25  C   UNL     1       7.257  22.972  53.114  1.00  0.00     0.178 C 
HETATM   26  C   UNL     1       8.257  25.013  57.486  1.00  0.00     0.032 A 
ENDBRANCH   2  16
TORSDOF 2
ENDMDL
MODEL 5
REMARK VINA RESULT:      -9.4      5.679      7.759
REMARK  2 active torsions:
REMARK  status: ('A' for Active; 'I' for Inactive)
REMARK    1  A    between atoms: C_9  and  C_10 
REMARK       I    between atoms: C_10  and  N_11 
REMARK    2  A    between atoms: N_11  and  C_12 
ROOT
HETATM    1  C   UNL     1       5.351  25.326  53.016  1.00  0.00     0.277 C 
HETATM    2  N   UNL     1       5.710  26.357  52.167  1.00  0.00    -0.322 N 
HETATM    3  O   UNL     1       4.284  24.722  53.016  1.00  0.00    -0.266 OA
HETATM    4  H   UNL     1       6.642  26.720  52.356  1.00  0.00     0.169 HD
ENDROOT
BRANCH   1   5
HETATM    5  C   UNL     1       6.429  25.014  53.974  1.00  0.00     0.157 A 
HETATM    6  C   UNL     1       7.259  23.853  54.001  1.00  0.00     0.029 A 
HETATM    7  C   UNL     1       7.380  22.673  53.241  1.00  0.00     0.023 A 
HETATM    8  C   UNL     1       8.108  24.041  55.084  1.00  0.00     0.063 A 
HETATM    9  C   UNL     1       8.346  21.716  53.595  1.00  0.00    -0.061 A 
HETATM   10  C   UNL     1       8.485  20.448  52.805  1.00  0.00     0.048 C 
HETATM   11  C   UNL     1       9.187  21.949  54.691  1.00  0.00     0.009 A 
HETATM   12  C   UNL     1       9.086  23.116  55.458  1.00  0.00     0.032 A 
HETATM   13  N   UNL     1       7.752  25.249  55.617  1.00  0.00    -0.277 N 
HETATM   14  H   UNL     1       8.165  25.707  56.421  1.00  0.00     0.189 HD
HETATM   15  N   UNL     1       6.735  25.861  54.984  1.00  0.00    -0.168 NA
ENDBRANCH   1   5
BRANCH   2  16
HETATM   16  C   UNL     1       4.966  26.945  51.132  1.00  0.00     0.037 A 
HETATM   17  C   UNL     1       4.334  28.185  51.232  1.00  0.00     0.069 A 
HETATM   18  C   UNL     1       3.592  28.689  50.158  1.00  0.00     0.104 A 
HETATM   19  C   UNL     1       3.507  27.970  48.964  1.00  0.00     0.102 A 
HETATM   20  O   UNL     1       3.058  29.940  50.311  1.00  0.00    -0.348 OA
HETATM   21  O   UNL     1       2.890  28.449  47.841  1.00  0.00    -0.348 OA
HETATM   22  C   UNL     1       4.161  26.747  48.846  1.00  0.00     0.042 A 
HETATM   23  C   UNL     1       1.491  28.651  48.040  1.00  0.00     0.178 C 
HETATM   24  C   UNL     1       1.193  29.969  48.736  1.00  0.00     0.053 C 
HETATM   25  C   UNL     1       1.636  29.934  50.191  1.00  0.00     0.178 C 
HETATM   26  C   UNL     1       4.873  26.229  49.931  1.00  0.00     0.032 A 
ENDBRANCH   2  16
TORSDOF 2
ENDMDL
MODEL 6
REMARK VINA RESULT:      -9.2      4.855      6.572
REMARK  2 active torsions:
REMARK  status: ('A' for Active; 'I' for Inactive)
REMARK    1  A    between atoms: C_9  and  C_10 
REMARK       I    between atoms: C_10  and  N_11 
REMARK    2  A    between atoms: N_11  and  C_12 
ROOT
HETATM    1  C   UNL     1       6.171  25.419  54.910  1.00  0.00     0.277 C 
HETATM    2  N   UNL     1       6.576  25.445  53.588  1.00  0.00    -0.322 N 
HETATM    3  O   UNL     1       5.276  26.092  55.409  1.00  0.00    -0.266 OA
HETATM    4  H   UNL     1       7.348  24.810  53.397  1.00  0.00     0.169 HD
ENDROOT
BRANCH   1   5
HETATM    5  C   UNL     1       6.965  24.459  55.700  1.00  0.00     0.157 A 
HETATM    6  C   UNL     1       7.513  23.216  55.262  1.00  0.00     0.029 A 
HETATM    7  C   UNL     1       7.521  22.476  54.063  1.00  0.00     0.023 A 
HETATM    8  C   UNL     1       8.169  22.699  56.372  1.00  0.00     0.063 A 
HETATM    9  C   UNL     1       8.183  21.237  54.018  1.00  0.00    -0.061 A 
HETATM   10  C   UNL     1       8.196  20.427  52.755  1.00  0.00     0.048 C 
HETATM   11  C   UNL     1       8.838  20.756  55.159  1.00  0.00     0.009 A 
HETATM   12  C   UNL     1       8.845  21.476  56.359  1.00  0.00     0.032 A 
HETATM   13  N   UNL     1       7.983  23.621  57.364  1.00  0.00    -0.277 N 
HETATM   14  H   UNL     1       8.328  23.573  58.315  1.00  0.00     0.189 HD
HETATM   15  N   UNL     1       7.251  24.691  57.002  1.00  0.00    -0.168 NA
ENDBRANCH   1   5
BRANCH   2  16
HETATM   16  C   UNL     1       6.079  26.223  52.530  1.00  0.00     0.037 A 
HETATM   17  C   UNL     1       6.183  27.614  52.467  1.00  0.00     0.069 A 
HETATM   18  C   UNL     1       5.639  28.314  51.385  1.00  0.00     0.104 A 
HETATM   19  C   UNL     1       5.018  27.625  50.342  1.00  0.00     0.102 A 
HETATM   20  O   UNL     1       5.840  29.668  51.365  1.00  0.00    -0.348 OA
HETATM   21  O   UNL     1       4.561  28.236  49.206  1.00  0.00    -0.348 OA
HETATM   22  C   UNL     1       4.940  26.236  50.382  1.00  0.00     0.042 A 
HETATM   23  C   UNL     1       3.505  29.157  49.478  1.00  0.00     0.178 C 
HETATM   24  C   UNL     1       4.025  30.501  49.961  1.00  0.00     0.053 C 
HETATM   25  C   UNL     1       4.610  30.393  51.361  1.00  0.00     0.178 C 
HETATM   26  C   UNL     1       5.452  25.540  51.480  1.00  0.00     0.032 A 
ENDBRANCH   2  16
TORSDOF 2
ENDMDL
MODEL 7
REMARK VINA RESULT:      -9.1      1.949      8.419
REMARK  2 active torsions:
REMARK  status: ('A' for Active; 'I' for Inactive)
REMARK    1  A    between atoms: C_9  and  C_10 
REMARK       I    between atoms: C_10  and  N_11 
REMARK    2  A    between atoms: N_11  and  C_12 
ROOT
HETATM    1  C   UNL     1       7.630  27.565  56.539  1.00  0.00     0.277 C 
HETATM    2  N   UNL     1       6.898  26.881  55.585  1.00  0.00    -0.322 N 
HETATM    3  O   UNL     1       8.660  27.178  57.080  1.00  0.00    -0.266 OA
HETATM    4  H   UNL     1       6.069  27.388  55.283  1.00  0.00     0.169 HD
ENDROOT
BRANCH   1   5
HETATM    5  C   UNL     1       7.015  28.867  56.860  1.00  0.00     0.157 A 
HETATM    6  C   UNL     1       7.336  29.737  57.945  1.00  0.00     0.029 A 
HETATM    7  C   UNL     1       8.241  29.722  59.025  1.00  0.00     0.023 A 
HETATM    8  C   UNL     1       6.482  30.823  57.803  1.00  0.00     0.063 A 
HETATM    9  C   UNL     1       8.257  30.796  59.931  1.00  0.00    -0.061 A 
HETATM   10  C   UNL     1       9.206  30.796  61.094  1.00  0.00     0.048 C 
HETATM   11  C   UNL     1       7.383  31.875  59.746  1.00  0.00     0.009 A 
HETATM   12  C   UNL     1       6.479  31.912  58.678  1.00  0.00     0.032 A 
HETATM   13  N   UNL     1       5.734  30.552  56.691  1.00  0.00    -0.277 N 
HETATM   14  H   UNL     1       5.008  31.131  56.287  1.00  0.00     0.189 HD
HETATM   15  N   UNL     1       6.016  29.376  56.101  1.00  0.00    -0.168 NA
ENDBRANCH   1   5
BRANCH   2  16
HETATM   16  C   UNL     1       7.146  25.619  55.023  1.00  0.00     0.037 A 
HETATM   17  C   UNL     1       7.085  24.420  55.737  1.00  0.00     0.069 A 
HETATM   18  C   UNL     1       7.369  23.206  55.104  1.00  0.00     0.104 A 
HETATM   19  C   UNL     1       7.683  23.178  53.743  1.00  0.00     0.102 A 
HETATM   20  O   UNL     1       7.222  22.071  55.855  1.00  0.00    -0.348 OA
HETATM   21  O   UNL     1       7.867  22.021  53.039  1.00  0.00    -0.348 OA
HETATM   22  C   UNL     1       7.715  24.366  53.018  1.00  0.00     0.042 A 
HETATM   23  C   UNL     1       8.993  21.278  53.507  1.00  0.00     0.178 C 
HETATM   24  C   UNL     1       8.662  20.447  54.737  1.00  0.00     0.053 C 
HETATM   25  C   UNL     1       8.440  21.332  55.953  1.00  0.00     0.178 C 
HETATM   26  C   UNL     1       7.465  25.582  53.660  1.00  0.00     0.032 A 
ENDBRANCH   2  16
TORSDOF 2
ENDMDL
MODEL 8
REMARK VINA RESULT:      -9.0      4.183      6.893
REMARK  2 active torsions:
REMARK  status: ('A' for Active; 'I' for Inactive)
REMARK    1  A    between atoms: C_9  and  C_10 
REMARK       I    between atoms: C_10  and  N_11 
REMARK    2  A    between atoms: N_11  and  C_12 
ROOT
HETATM    1  C   UNL     1       7.440  31.807  59.823  1.00  0.00     0.277 C 
HETATM    2  N   UNL     1       7.639  31.500  61.157  1.00  0.00    -0.322 N 
HETATM    3  O   UNL     1       6.724  32.698  59.381  1.00  0.00    -0.266 OA
HETATM    4  H   UNL     1       8.267  30.710  61.293  1.00  0.00     0.169 HD
ENDROOT
BRANCH   1   5
HETATM    5  C   UNL     1       8.208  30.906  58.942  1.00  0.00     0.157 A 
HETATM    6  C   UNL     1       7.698  29.904  58.064  1.00  0.00     0.029 A 
HETATM    7  C   UNL     1       6.424  29.409  57.720  1.00  0.00     0.023 A 
HETATM    8  C   UNL     1       8.817  29.344  57.463  1.00  0.00     0.063 A 
HETATM    9  C   UNL     1       6.315  28.363  56.787  1.00  0.00    -0.061 A 
HETATM   10  C   UNL     1       4.969  27.814  56.414  1.00  0.00     0.048 C 
HETATM   11  C   UNL     1       7.470  27.832  56.200  1.00  0.00     0.009 A 
HETATM   12  C   UNL     1       8.745  28.311  56.524  1.00  0.00     0.032 A 
HETATM   13  N   UNL     1       9.885  30.014  57.993  1.00  0.00    -0.277 N 
HETATM   14  H   UNL     1      10.865  29.868  57.779  1.00  0.00     0.189 HD
HETATM   15  N   UNL     1       9.561  30.955  58.898  1.00  0.00    -0.168 NA
ENDBRANCH   1   5
BRANCH   2  16
HETATM   16  C   UNL     1       7.088  32.113  62.293  1.00  0.00     0.037 A 
HETATM   17  C   UNL     1       5.720  32.310  62.488  1.00  0.00     0.069 A 
HETATM   18  C   UNL     1       5.256  32.952  63.641  1.00  0.00     0.104 A 
HETATM   19  C   UNL     1       6.156  33.370  64.624  1.00  0.00     0.102 A 
HETATM   20  O   UNL     1       3.898  33.047  63.789  1.00  0.00    -0.348 OA
HETATM   21  O   UNL     1       5.765  33.905  65.820  1.00  0.00    -0.348 OA
HETATM   22  C   UNL     1       7.519  33.148  64.451  1.00  0.00     0.042 A 
HETATM   23  C   UNL     1       5.076  35.145  65.656  1.00  0.00     0.178 C 
HETATM   24  C   UNL     1       3.612  34.946  65.296  1.00  0.00     0.053 C 
HETATM   25  C   UNL     1       3.463  34.403  63.883  1.00  0.00     0.178 C 
HETATM   26  C   UNL     1       7.984  32.539  63.283  1.00  0.00     0.032 A 
ENDBRANCH   2  16
TORSDOF 2
ENDMDL
MODEL 9
REMARK VINA RESULT:      -9.0      1.474      2.319
REMARK  2 active torsions:
REMARK  status: ('A' for Active; 'I' for Inactive)
REMARK    1  A    between atoms: C_9  and  C_10 
REMARK       I    between atoms: C_10  and  N_11 
REMARK    2  A    between atoms: N_11  and  C_12 
ROOT
HETATM    1  C   UNL     1       6.644  25.404  55.531  1.00  0.00     0.277 C 
HETATM    2  N   UNL     1       7.294  26.625  55.495  1.00  0.00    -0.322 N 
HETATM    3  O   UNL     1       5.851  25.027  56.386  1.00  0.00    -0.266 OA
HETATM    4  H   UNL     1       7.918  26.718  54.697  1.00  0.00     0.169 HD
ENDROOT
BRANCH   1   5
HETATM    5  C   UNL     1       7.023  24.556  54.384  1.00  0.00     0.157 A 
HETATM    6  C   UNL     1       7.433  23.190  54.410  1.00  0.00     0.029 A 
HETATM    7  C   UNL     1       7.632  22.208  55.401  1.00  0.00     0.023 A 
HETATM    8  C   UNL     1       7.673  22.859  53.083  1.00  0.00     0.063 A 
HETATM    9  C   UNL     1       8.070  20.926  55.029  1.00  0.00    -0.061 A 
HETATM   10  C   UNL     1       8.298  19.868  56.068  1.00  0.00     0.048 C 
HETATM   11  C   UNL     1       8.294  20.632  53.677  1.00  0.00     0.009 A 
HETATM   12  C   UNL     1       8.099  21.591  52.676  1.00  0.00     0.032 A 
HETATM   13  N   UNL     1       7.405  23.996  52.372  1.00  0.00    -0.277 N 
HETATM   14  H   UNL     1       7.472  24.119  51.369  1.00  0.00     0.189 HD
HETATM   15  N   UNL     1       7.023  25.046  53.121  1.00  0.00    -0.168 NA
ENDBRANCH   1   5
BRANCH   2  16
HETATM   16  C   UNL     1       7.207  27.695  56.399  1.00  0.00     0.037 A 
HETATM   17  C   UNL     1       6.035  28.410  56.652  1.00  0.00     0.069 A 
HETATM   18  C   UNL     1       6.041  29.479  57.555  1.00  0.00     0.104 A 
HETATM   19  C   UNL     1       7.211  29.817  58.237  1.00  0.00     0.102 A 
HETATM   20  O   UNL     1       4.838  30.087  57.796  1.00  0.00    -0.348 OA
HETATM   21  O   UNL     1       7.263  30.778  59.208  1.00  0.00    -0.348 OA
HETATM   22  C   UNL     1       8.375  29.087  58.014  1.00  0.00     0.042 A 
HETATM   23  C   UNL     1       6.961  32.077  58.698  1.00  0.00     0.178 C 
HETATM   24  C   UNL     1       5.464  32.314  58.579  1.00  0.00     0.053 C 
HETATM   25  C   UNL     1       4.862  31.475  57.462  1.00  0.00     0.178 C 
HETATM   26  C   UNL     1       8.377  28.043  57.086  1.00  0.00     0.032 A 
ENDBRANCH   2  16
TORSDOF 2
ENDMDL
MODEL 10
REMARK VINA RESULT:      -8.9      2.601      9.019
REMARK  2 active torsions:
REMARK  status: ('A' for Active; 'I' for Inactive)
REMARK    1  A    between atoms: C_9  and  C_10 
REMARK       I    between atoms: C_10  and  N_11 
REMARK    2  A    between atoms: N_11  and  C_12 
ROOT
HETATM    1  C   UNL     1       7.587  30.414  58.754  1.00  0.00     0.277 C 
HETATM    2  N   UNL     1       8.048  29.177  58.340  1.00  0.00    -0.322 N 
HETATM    3  O   UNL     1       6.862  31.170  58.118  1.00  0.00    -0.266 OA
HETATM    4  H   UNL     1       8.649  28.728  59.027  1.00  0.00     0.169 HD
ENDROOT
BRANCH   1   5
HETATM    5  C   UNL     1       8.086  30.753  60.101  1.00  0.00     0.157 A 
HETATM    6  C   UNL     1       7.547  31.707  61.015  1.00  0.00     0.029 A 
HETATM    7  C   UNL     1       6.467  32.612  61.017  1.00  0.00     0.023 A 
HETATM    8  C   UNL     1       8.370  31.645  62.131  1.00  0.00     0.063 A 
HETATM    9  C   UNL     1       6.251  33.430  62.139  1.00  0.00    -0.061 A 
HETATM   10  C   UNL     1       5.112  34.408  62.159  1.00  0.00     0.048 C 
HETATM   11  C   UNL     1       7.102  33.331  63.247  1.00  0.00     0.009 A 
HETATM   12  C   UNL     1       8.178  32.436  63.267  1.00  0.00     0.032 A 
HETATM   13  N   UNL     1       9.313  30.700  61.833  1.00  0.00    -0.277 N 
HETATM   14  H   UNL     1      10.076  30.392  62.423  1.00  0.00     0.189 HD
HETATM   15  N   UNL     1       9.184  30.147  60.613  1.00  0.00    -0.168 NA
ENDBRANCH   1   5
BRANCH   2  16
HETATM   16  C   UNL     1       7.804  28.508  57.130  1.00  0.00     0.037 A 
HETATM   17  C   UNL     1       6.977  27.390  57.009  1.00  0.00     0.069 A 
HETATM   18  C   UNL     1       6.806  26.769  55.767  1.00  0.00     0.104 A 
HETATM   19  C   UNL     1       7.434  27.283  54.631  1.00  0.00     0.102 A 
HETATM   20  O   UNL     1       5.928  25.719  55.720  1.00  0.00    -0.348 OA
HETATM   21  O   UNL     1       7.226  26.792  53.372  1.00  0.00    -0.348 OA
HETATM   22  C   UNL     1       8.233  28.417  54.738  1.00  0.00     0.042 A 
HETATM   23  C   UNL     1       7.674  25.443  53.239  1.00  0.00     0.178 C 
HETATM   24  C   UNL     1       6.657  24.445  53.769  1.00  0.00     0.053 C 
HETATM   25  C   UNL     1       6.557  24.514  55.285  1.00  0.00     0.178 C 
HETATM   26  C   UNL     1       8.432  29.016  55.985  1.00  0.00     0.032 A 
ENDBRANCH   2  16
TORSDOF 2
ENDMDL
