MODEL 1
REMARK VINA RESULT:      -9.2      0.000      0.000
REMARK  6 active torsions:
REMARK  status: ('A' for Active; 'I' for Inactive)
REMARK    1  A    between atoms: C_4  and  C_5 
REMARK    2  A    between atoms: C_5  and  N_6 
REMARK    3  A    between atoms: C_5  and  C_10 
REMARK    4  A    between atoms: C_10  and  N_11 
REMARK       I    between atoms: N_11  and  C_12 
REMARK       I    between atoms: C_12  and  N_13 
REMARK    5  A    between atoms: N_13  and  C_14 
REMARK    6  A    between atoms: C_17  and  N_18 
ROOT
HETATM    1  N   UNL     1       7.075  28.435  56.312  1.00  0.00    -0.340 N 
HETATM    2  C   UNL     1       5.914  28.012  56.866  1.00  0.00     0.320 C 
HETATM    3  N   UNL     1       5.445  26.787  56.527  1.00  0.00    -0.309 N 
HETATM    4  O   UNL     1       5.248  28.755  57.588  1.00  0.00    -0.247 OA
HETATM    5  H   UNL     1       7.384  27.932  55.488  1.00  0.00     0.164 HD
HETATM    6  H   UNL     1       4.470  26.665  56.778  1.00  0.00     0.170 HD
ENDROOT
BRANCH   1   7
HETATM    7  C   UNL     1       7.775  29.672  56.670  1.00  0.00     0.164 C 
BRANCH   7   8
HETATM    8  C   UNL     1       8.629  29.632  57.980  1.00  0.00     0.261 C 
BRANCH   8   9
HETATM    9  C   UNL     1       8.044  30.517  59.036  1.00  0.00     0.085 A 
HETATM   10  O   UNL     1       8.541  30.384  60.300  1.00  0.00    -0.318 OA
HETATM   11  C   UNL     1       7.851  31.248  61.097  1.00  0.00     0.049 A 
HETATM   12  C   UNL     1       8.205  31.260  62.532  1.00  0.00     0.076 C 
HETATM   13  C   UNL     1       6.932  31.950  60.348  1.00  0.00     0.035 A 
HETATM   14  C   UNL     1       7.056  31.480  59.019  1.00  0.00     0.037 A 
ENDBRANCH   8   9
BRANCH   8  15
HETATM   15  N   UNL     1      10.113  29.902  57.717  1.00  0.00    -0.067 N 
HETATM   16  H   UNL     1      10.605  29.350  58.448  1.00  0.00     0.280 HD
HETATM   17  C   UNL     1      10.664  29.392  56.420  1.00  0.00     0.270 C 
HETATM   18  C   UNL     1      10.497  31.329  57.952  1.00  0.00     0.270 C 
ENDBRANCH   8  15
ENDBRANCH   7   8
ENDBRANCH   1   7
BRANCH   3  19
HETATM   19  C   UNL     1       6.084  25.629  56.040  1.00  0.00     0.036 A 
HETATM   20  C   UNL     1       6.895  24.792  56.803  1.00  0.00     0.032 A 
HETATM   21  C   UNL     1       7.445  23.624  56.248  1.00  0.00     0.032 A 
HETATM   22  C   UNL     1       7.176  23.265  54.923  1.00  0.00     0.040 A 
HETATM   23  C   UNL     1       6.360  24.108  54.158  1.00  0.00     0.032 A 
HETATM   24  C   UNL     1       5.812  25.270  54.717  1.00  0.00     0.032 A 
BRANCH  22  25
HETATM   25  N   UNL     1       7.715  22.076  54.338  1.00  0.00    -0.309 N 
HETATM   26  C   UNL     1       8.101  20.874  54.936  1.00  0.00     0.106 A 
HETATM   27  C   UNL     1       7.868  20.482  56.350  1.00  0.00     0.091 C 
HETATM   28  N   UNL     1       8.624  20.045  54.051  1.00  0.00    -0.246 NA
HETATM   29  C   UNL     1       8.530  20.665  52.845  1.00  0.00     0.136 A 
HETATM   30  C   UNL     1       7.954  21.901  52.986  1.00  0.00     0.118 A 
ENDBRANCH  22  25
ENDBRANCH   3  19
TORSDOF 6
ENDMDL
MODEL 2
REMARK VINA RESULT:      -8.9      2.757      5.079
REMARK  6 active torsions:
REMARK  status: ('A' for Active; 'I' for Inactive)
REMARK    1  A    between atoms: C_4  and  C_5 
REMARK    2  A    between atoms: C_5  and  N_6 
REMARK    3  A    between atoms: C_5  and  C_10 
REMARK    4  A    between atoms: C_10  and  N_11 
REMARK       I    between atoms: N_11  and  C_12 
REMARK       I    between atoms: C_12  and  N_13 
REMARK    5  A    between atoms: N_13  and  C_14 
REMARK    6  A    between atoms: C_17  and  N_18 
ROOT
HETATM    1  N   UNL     1       6.488  27.961  56.634  1.00  0.00    -0.340 N 
HETATM    2  C   UNL     1       7.371  27.721  57.632  1.00  0.00     0.320 C 
HETATM    3  N   UNL     1       7.738  26.440  57.875  1.00  0.00    -0.309 N 
HETATM    4  O   UNL     1       7.762  28.631  58.365  1.00  0.00    -0.247 OA
HETATM    5  H   UNL     1       5.959  27.161  56.306  1.00  0.00     0.164 HD
HETATM    6  H   UNL     1       8.185  26.334  58.780  1.00  0.00     0.170 HD
ENDROOT
BRANCH   1   7
HETATM    7  C   UNL     1       6.091  29.292  56.165  1.00  0.00     0.164 C 
BRANCH   7   8
HETATM    8  C   UNL     1       5.009  29.337  55.036  1.00  0.00     0.261 C 
BRANCH   8   9
HETATM    9  C   UNL     1       5.310  28.342  53.959  1.00  0.00     0.085 A 
HETATM   10  O   UNL     1       4.726  27.114  54.070  1.00  0.00    -0.318 OA
HETATM   11  C   UNL     1       5.158  26.365  53.016  1.00  0.00     0.049 A 
HETATM   12  C   UNL     1       4.670  24.971  52.942  1.00  0.00     0.076 C 
HETATM   13  C   UNL     1       5.994  27.113  52.217  1.00  0.00     0.035 A 
HETATM   14  C   UNL     1       6.093  28.389  52.823  1.00  0.00     0.037 A 
ENDBRANCH   8   9
BRANCH   8  15
HETATM   15  N   UNL     1       4.778  30.754  54.505  1.00  0.00    -0.067 N 
HETATM   16  H   UNL     1       5.578  30.918  53.860  1.00  0.00     0.280 HD
HETATM   17  C   UNL     1       3.559  30.958  53.657  1.00  0.00     0.270 C 
HETATM   18  C   UNL     1       4.887  31.800  55.569  1.00  0.00     0.270 C 
ENDBRANCH   8  15
ENDBRANCH   7   8
ENDBRANCH   1   7
BRANCH   3  19
HETATM   19  C   UNL     1       7.750  25.287  57.065  1.00  0.00     0.036 A 
HETATM   20  C   UNL     1       6.663  24.831  56.322  1.00  0.00     0.032 A 
HETATM   21  C   UNL     1       6.784  23.701  55.495  1.00  0.00     0.032 A 
HETATM   22  C   UNL     1       8.001  23.021  55.383  1.00  0.00     0.040 A 
HETATM   23  C   UNL     1       9.092  23.482  56.131  1.00  0.00     0.032 A 
HETATM   24  C   UNL     1       8.967  24.611  56.952  1.00  0.00     0.032 A 
BRANCH  22  25
HETATM   25  N   UNL     1       8.152  21.875  54.539  1.00  0.00    -0.309 N 
HETATM   26  C   UNL     1       8.450  20.551  54.868  1.00  0.00     0.106 A 
HETATM   27  C   UNL     1       8.507  19.975  56.236  1.00  0.00     0.091 C 
HETATM   28  N   UNL     1       8.578  19.806  53.784  1.00  0.00    -0.246 NA
HETATM   29  C   UNL     1       8.302  20.618  52.729  1.00  0.00     0.136 A 
HETATM   30  C   UNL     1       8.013  21.886  53.163  1.00  0.00     0.118 A 
ENDBRANCH  22  25
ENDBRANCH   3  19
TORSDOF 6
ENDMDL
MODEL 3
REMARK VINA RESULT:      -8.9      2.493      3.981
REMARK  6 active torsions:
REMARK  status: ('A' for Active; 'I' for Inactive)
REMARK    1  A    between atoms: C_4  and  C_5 
REMARK    2  A    between atoms: C_5  and  N_6 
REMARK    3  A    between atoms: C_5  and  C_10 
REMARK    4  A    between atoms: C_10  and  N_11 
REMARK       I    between atoms: N_11  and  C_12 
REMARK       I    between atoms: C_12  and  N_13 
REMARK    5  A    between atoms: N_13  and  C_14 
REMARK    6  A    between atoms: C_17  and  N_18 
ROOT
HETATM    1  N   UNL     1       5.602  29.420  54.790  1.00  0.00    -0.340 N 
HETATM    2  C   UNL     1       4.675  29.110  53.852  1.00  0.00     0.320 C 
HETATM    3  N   UNL     1       4.909  28.052  53.039  1.00  0.00    -0.309 N 
HETATM    4  O   UNL     1       3.688  29.825  53.675  1.00  0.00    -0.247 OA
HETATM    5  H   UNL     1       6.522  29.015  54.658  1.00  0.00     0.164 HD
HETATM    6  H   UNL     1       4.306  28.054  52.223  1.00  0.00     0.170 HD
ENDROOT
BRANCH   1   7
HETATM    7  C   UNL     1       5.441  30.449  55.821  1.00  0.00     0.164 C 
BRANCH   7   8
HETATM    8  C   UNL     1       6.177  30.193  57.178  1.00  0.00     0.261 C 
BRANCH   8   9
HETATM    9  C   UNL     1       6.626  28.770  57.291  1.00  0.00     0.085 A 
HETATM   10  O   UNL     1       5.688  27.805  57.064  1.00  0.00    -0.318 OA
HETATM   11  C   UNL     1       6.296  26.600  57.252  1.00  0.00     0.049 A 
HETATM   12  C   UNL     1       5.457  25.394  57.083  1.00  0.00     0.076 C 
HETATM   13  C   UNL     1       7.623  26.785  57.574  1.00  0.00     0.035 A 
HETATM   14  C   UNL     1       7.837  28.184  57.599  1.00  0.00     0.037 A 
ENDBRANCH   8   9
BRANCH   8  15
HETATM   15  N   UNL     1       5.361  30.669  58.383  1.00  0.00    -0.067 N 
HETATM   16  H   UNL     1       5.533  29.944  59.109  1.00  0.00     0.280 HD
HETATM   17  C   UNL     1       5.799  31.954  59.019  1.00  0.00     0.270 C 
HETATM   18  C   UNL     1       3.887  30.657  58.131  1.00  0.00     0.270 C 
ENDBRANCH   8  15
ENDBRANCH   7   8
ENDBRANCH   1   7
BRANCH   3  19
HETATM   19  C   UNL     1       5.707  26.900  53.187  1.00  0.00     0.036 A 
HETATM   20  C   UNL     1       7.099  26.906  53.265  1.00  0.00     0.032 A 
HETATM   21  C   UNL     1       7.810  25.712  53.472  1.00  0.00     0.032 A 
HETATM   22  C   UNL     1       7.139  24.494  53.623  1.00  0.00     0.040 A 
HETATM   23  C   UNL     1       5.740  24.492  53.544  1.00  0.00     0.032 A 
HETATM   24  C   UNL     1       5.035  25.685  53.342  1.00  0.00     0.032 A 
BRANCH  22  25
HETATM   25  N   UNL     1       7.840  23.267  53.846  1.00  0.00    -0.309 N 
HETATM   26  C   UNL     1       8.648  22.874  54.914  1.00  0.00     0.106 A 
HETATM   27  C   UNL     1       8.831  23.606  56.194  1.00  0.00     0.091 C 
HETATM   28  N   UNL     1       9.176  21.682  54.703  1.00  0.00    -0.246 NA
HETATM   29  C   UNL     1       8.669  21.245  53.519  1.00  0.00     0.136 A 
HETATM   30  C   UNL     1       7.827  22.185  52.983  1.00  0.00     0.118 A 
ENDBRANCH  22  25
ENDBRANCH   3  19
TORSDOF 6
ENDMDL
MODEL 4
REMARK VINA RESULT:      -8.8      3.582      7.957
REMARK  6 active torsions:
REMARK  status: ('A' for Active; 'I' for Inactive)
REMARK    1  A    between atoms: C_4  and  C_5 
REMARK    2  A    between atoms: C_5  and  N_6 
REMARK    3  A    between atoms: C_5  and  C_10 
REMARK    4  A    between atoms: C_10  and  N_11 
REMARK       I    between atoms: N_11  and  C_12 
REMARK       I    between atoms: C_12  and  N_13 
REMARK    5  A    between atoms: N_13  and  C_14 
REMARK    6  A    between atoms: C_17  and  N_18 
ROOT
HETATM    1  N   UNL     1       8.120  25.248  56.292  1.00  0.00    -0.340 N 
HETATM    2  C   UNL     1       7.768  26.145  57.243  1.00  0.00     0.320 C 
HETATM    3  N   UNL     1       7.246  27.332  56.849  1.00  0.00    -0.309 N 
HETATM    4  O   UNL     1       8.000  25.931  58.433  1.00  0.00    -0.247 OA
HETATM    5  H   UNL     1       8.220  25.612  55.351  1.00  0.00     0.164 HD
HETATM    6  H   UNL     1       7.255  28.021  57.594  1.00  0.00     0.170 HD
ENDROOT
BRANCH   1   7
HETATM    7  C   UNL     1       8.576  23.880  56.555  1.00  0.00     0.164 C 
BRANCH   7   8
HETATM    8  C   UNL     1       8.522  22.886  55.348  1.00  0.00     0.261 C 
BRANCH   8   9
HETATM    9  C   UNL     1       7.851  23.507  54.164  1.00  0.00     0.085 A 
HETATM   10  O   UNL     1       6.550  23.886  54.317  1.00  0.00    -0.318 OA
HETATM   11  C   UNL     1       6.132  24.388  53.121  1.00  0.00     0.049 A 
HETATM   12  C   UNL     1       4.728  24.844  53.041  1.00  0.00     0.076 C 
HETATM   13  C   UNL     1       7.164  24.356  52.209  1.00  0.00     0.035 A 
HETATM   14  C   UNL     1       8.274  23.788  52.880  1.00  0.00     0.037 A 
ENDBRANCH   8   9
BRANCH   8  15
HETATM   15  N   UNL     1       7.931  21.528  55.738  1.00  0.00    -0.067 N 
HETATM   16  H   UNL     1       6.909  21.708  55.812  1.00  0.00     0.280 HD
HETATM   17  C   UNL     1       8.050  20.432  54.721  1.00  0.00     0.270 C 
HETATM   18  C   UNL     1       8.367  21.068  57.092  1.00  0.00     0.270 C 
ENDBRANCH   8  15
ENDBRANCH   7   8
ENDBRANCH   1   7
BRANCH   3  19
HETATM   19  C   UNL     1       6.574  27.730  55.677  1.00  0.00     0.036 A 
HETATM   20  C   UNL     1       7.184  27.908  54.437  1.00  0.00     0.032 A 
HETATM   21  C   UNL     1       6.424  28.252  53.306  1.00  0.00     0.032 A 
HETATM   22  C   UNL     1       5.036  28.403  53.394  1.00  0.00     0.040 A 
HETATM   23  C   UNL     1       4.425  28.222  54.642  1.00  0.00     0.032 A 
HETATM   24  C   UNL     1       5.187  27.877  55.766  1.00  0.00     0.032 A 
BRANCH  22  25
HETATM   25  N   UNL     1       4.238  28.741  52.255  1.00  0.00    -0.309 N 
HETATM   26  C   UNL     1       4.348  28.327  50.926  1.00  0.00     0.106 A 
HETATM   27  C   UNL     1       5.247  27.264  50.407  1.00  0.00     0.091 C 
HETATM   28  N   UNL     1       3.455  28.931  50.162  1.00  0.00    -0.246 NA
HETATM   29  C   UNL     1       2.704  29.703  50.990  1.00  0.00     0.136 A 
HETATM   30  C   UNL     1       3.144  29.588  52.283  1.00  0.00     0.118 A 
ENDBRANCH  22  25
ENDBRANCH   3  19
TORSDOF 6
ENDMDL
MODEL 5
REMARK VINA RESULT:      -8.8      2.508      4.098
REMARK  6 active torsions:
REMARK  status: ('A' for Active; 'I' for Inactive)
REMARK    1  A    between atoms: C_4  and  C_5 
REMARK    2  A    between atoms: C_5  and  N_6 
REMARK    3  A    between atoms: C_5  and  C_10 
REMARK    4  A    between atoms: C_10  and  N_11 
REMARK       I    between atoms: N_11  and  C_12 
REMARK       I    between atoms: C_12  and  N_13 
REMARK    5  A    between atoms: N_13  and  C_14 
REMARK    6  A    between atoms: C_17  and  N_18 
ROOT
HETATM    1  N   UNL     1       5.734  28.371  54.100  1.00  0.00    -0.340 N 
HETATM    2  C   UNL     1       5.561  28.113  52.782  1.00  0.00     0.320 C 
HETATM    3  N   UNL     1       6.173  27.027  52.251  1.00  0.00    -0.309 N 
HETATM    4  O   UNL     1       4.942  28.894  52.059  1.00  0.00    -0.247 OA
HETATM    5  H   UNL     1       6.511  27.898  54.548  1.00  0.00     0.164 HD
HETATM    6  H   UNL     1       6.200  27.058  51.237  1.00  0.00     0.170 HD
ENDROOT
BRANCH   1   7
HETATM    7  C   UNL     1       5.044  29.426  54.847  1.00  0.00     0.164 C 
BRANCH   7   8
HETATM    8  C   UNL     1       5.789  29.990  56.101  1.00  0.00     0.261 C 
BRANCH   8   9
HETATM    9  C   UNL     1       6.929  29.105  56.498  1.00  0.00     0.085 A 
HETATM   10  O   UNL     1       6.625  27.823  56.848  1.00  0.00    -0.318 OA
HETATM   11  C   UNL     1       7.792  27.213  57.202  1.00  0.00     0.049 A 
HETATM   12  C   UNL     1       7.703  25.807  57.649  1.00  0.00     0.076 C 
HETATM   13  C   UNL     1       8.844  28.090  57.057  1.00  0.00     0.035 A 
HETATM   14  C   UNL     1       8.290  29.311  56.602  1.00  0.00     0.037 A 
ENDBRANCH   8   9
BRANCH   8  15
HETATM   15  N   UNL     1       4.833  30.302  57.256  1.00  0.00    -0.067 N 
HETATM   16  H   UNL     1       4.896  29.465  57.871  1.00  0.00     0.280 HD
HETATM   17  C   UNL     1       5.210  31.452  58.142  1.00  0.00     0.270 C 
HETATM   18  C   UNL     1       3.404  30.388  56.824  1.00  0.00     0.270 C 
ENDBRANCH   8  15
ENDBRANCH   7   8
ENDBRANCH   1   7
BRANCH   3  19
HETATM   19  C   UNL     1       6.631  25.823  52.822  1.00  0.00     0.036 A 
HETATM   20  C   UNL     1       7.741  25.107  52.376  1.00  0.00     0.032 A 
HETATM   21  C   UNL     1       8.159  23.944  53.044  1.00  0.00     0.032 A 
HETATM   22  C   UNL     1       7.485  23.488  54.182  1.00  0.00     0.040 A 
HETATM   23  C   UNL     1       6.370  24.210  54.627  1.00  0.00     0.032 A 
HETATM   24  C   UNL     1       5.958  25.370  53.960  1.00  0.00     0.032 A 
BRANCH  22  25
HETATM   25  N   UNL     1       7.899  22.313  54.886  1.00  0.00    -0.309 N 
HETATM   26  C   UNL     1       8.024  20.996  54.440  1.00  0.00     0.106 A 
HETATM   27  C   UNL     1       7.920  20.530  53.034  1.00  0.00     0.091 C 
HETATM   28  N   UNL     1       8.364  20.187  55.428  1.00  0.00    -0.246 NA
HETATM   29  C   UNL     1       8.530  20.973  56.524  1.00  0.00     0.136 A 
HETATM   30  C   UNL     1       8.276  22.284  56.217  1.00  0.00     0.118 A 
ENDBRANCH  22  25
ENDBRANCH   3  19
TORSDOF 6
ENDMDL
MODEL 6
REMARK VINA RESULT:      -8.7      2.872      5.242
REMARK  6 active torsions:
REMARK  status: ('A' for Active; 'I' for Inactive)
REMARK    1  A    between atoms: C_4  and  C_5 
REMARK    2  A    between atoms: C_5  and  N_6 
REMARK    3  A    between atoms: C_5  and  C_10 
REMARK    4  A    between atoms: C_10  and  N_11 
REMARK       I    between atoms: N_11  and  C_12 
REMARK       I    between atoms: C_12  and  N_13 
REMARK    5  A    between atoms: N_13  and  C_14 
REMARK    6  A    between atoms: C_17  and  N_18 
ROOT
HETATM    1  N   UNL     1       5.129  28.018  56.735  1.00  0.00    -0.340 N 
HETATM    2  C   UNL     1       6.285  28.307  57.378  1.00  0.00     0.320 C 
HETATM    3  N   UNL     1       7.114  27.286  57.704  1.00  0.00    -0.309 N 
HETATM    4  O   UNL     1       6.538  29.455  57.743  1.00  0.00    -0.247 OA
HETATM    5  H   UNL     1       4.829  27.050  56.771  1.00  0.00     0.164 HD
HETATM    6  H   UNL     1       7.808  27.559  58.392  1.00  0.00     0.170 HD
ENDROOT
BRANCH   1   7
HETATM    7  C   UNL     1       4.192  29.013  56.205  1.00  0.00     0.164 C 
BRANCH   7   8
HETATM    8  C   UNL     1       4.261  29.280  54.665  1.00  0.00     0.261 C 
BRANCH   8   9
HETATM    9  C   UNL     1       5.072  28.233  53.969  1.00  0.00     0.085 A 
HETATM   10  O   UNL     1       4.435  27.071  53.643  1.00  0.00    -0.318 OA
HETATM   11  C   UNL     1       5.357  26.256  53.057  1.00  0.00     0.049 A 
HETATM   12  C   UNL     1       4.895  24.916  52.638  1.00  0.00     0.076 C 
HETATM   13  C   UNL     1       6.574  26.897  52.983  1.00  0.00     0.035 A 
HETATM   14  C   UNL     1       6.392  28.172  53.570  1.00  0.00     0.037 A 
ENDBRANCH   8   9
BRANCH   8  15
HETATM   15  N   UNL     1       4.707  30.708  54.340  1.00  0.00    -0.067 N 
HETATM   16  H   UNL     1       5.676  30.596  53.979  1.00  0.00     0.280 HD
HETATM   17  C   UNL     1       3.968  31.402  53.236  1.00  0.00     0.270 C 
HETATM   18  C   UNL     1       4.818  31.575  55.554  1.00  0.00     0.270 C 
ENDBRANCH   8  15
ENDBRANCH   7   8
ENDBRANCH   1   7
BRANCH   3  19
HETATM   19  C   UNL     1       7.283  25.993  57.169  1.00  0.00     0.036 A 
HETATM   20  C   UNL     1       6.318  25.309  56.433  1.00  0.00     0.032 A 
HETATM   21  C   UNL     1       6.595  24.044  55.888  1.00  0.00     0.032 A 
HETATM   22  C   UNL     1       7.851  23.451  56.054  1.00  0.00     0.040 A 
HETATM   23  C   UNL     1       8.820  24.142  56.794  1.00  0.00     0.032 A 
HETATM   24  C   UNL     1       8.540  25.404  57.333  1.00  0.00     0.032 A 
BRANCH  22  25
HETATM   25  N   UNL     1       8.162  22.169  55.499  1.00  0.00    -0.309 N 
HETATM   26  C   UNL     1       8.115  21.728  54.175  1.00  0.00     0.106 A 
HETATM   27  C   UNL     1       7.890  22.573  52.973  1.00  0.00     0.091 C 
HETATM   28  N   UNL     1       8.408  20.443  54.088  1.00  0.00    -0.246 NA
HETATM   29  C   UNL     1       8.716  20.036  55.349  1.00  0.00     0.136 A 
HETATM   30  C   UNL     1       8.597  21.079  56.230  1.00  0.00     0.118 A 
ENDBRANCH  22  25
ENDBRANCH   3  19
TORSDOF 6
ENDMDL
MODEL 7
REMARK VINA RESULT:      -8.7      5.357      8.524
REMARK  6 active torsions:
REMARK  status: ('A' for Active; 'I' for Inactive)
REMARK    1  A    between atoms: C_4  and  C_5 
REMARK    2  A    between atoms: C_5  and  N_6 
REMARK    3  A    between atoms: C_5  and  C_10 
REMARK    4  A    between atoms: C_10  and  N_11 
REMARK       I    between atoms: N_11  and  C_12 
REMARK       I    between atoms: C_12  and  N_13 
REMARK    5  A    between atoms: N_13  and  C_14 
REMARK    6  A    between atoms: C_17  and  N_18 
ROOT
HETATM    1  N   UNL     1       5.500  26.991  51.335  1.00  0.00    -0.340 N 
HETATM    2  C   UNL     1       5.933  27.734  52.381  1.00  0.00     0.320 C 
HETATM    3  N   UNL     1       6.321  27.095  53.510  1.00  0.00    -0.309 N 
HETATM    4  O   UNL     1       5.889  28.964  52.345  1.00  0.00    -0.247 OA
HETATM    5  H   UNL     1       5.243  26.033  51.546  1.00  0.00     0.164 HD
HETATM    6  H   UNL     1       6.380  27.722  54.306  1.00  0.00     0.170 HD
ENDROOT
BRANCH   1   7
HETATM    7  C   UNL     1       5.168  27.519  50.009  1.00  0.00     0.164 C 
BRANCH   7   8
HETATM    8  C   UNL     1       3.677  27.935  49.781  1.00  0.00     0.261 C 
BRANCH   8   9
HETATM    9  C   UNL     1       3.087  27.217  48.608  1.00  0.00     0.085 A 
HETATM   10  O   UNL     1       1.985  27.776  48.030  1.00  0.00    -0.318 OA
HETATM   11  C   UNL     1       1.598  26.950  47.017  1.00  0.00     0.049 A 
HETATM   12  C   UNL     1       0.394  27.344  46.256  1.00  0.00     0.076 C 
HETATM   13  C   UNL     1       2.460  25.879  46.926  1.00  0.00     0.035 A 
HETATM   14  C   UNL     1       3.421  26.050  47.950  1.00  0.00     0.037 A 
ENDBRANCH   8   9
BRANCH   8  15
HETATM   15  N   UNL     1       3.499  29.454  49.714  1.00  0.00    -0.067 N 
HETATM   16  H   UNL     1       2.736  29.590  49.020  1.00  0.00     0.280 HD
HETATM   17  C   UNL     1       3.004  30.124  50.960  1.00  0.00     0.270 C 
HETATM   18  C   UNL     1       4.694  30.157  49.152  1.00  0.00     0.270 C 
ENDBRANCH   8  15
ENDBRANCH   7   8
ENDBRANCH   1   7
BRANCH   3  19
HETATM   19  C   UNL     1       6.792  25.787  53.746  1.00  0.00     0.036 A 
HETATM   20  C   UNL     1       7.637  25.084  52.890  1.00  0.00     0.032 A 
HETATM   21  C   UNL     1       8.103  23.804  53.235  1.00  0.00     0.032 A 
HETATM   22  C   UNL     1       7.746  23.215  54.452  1.00  0.00     0.040 A 
HETATM   23  C   UNL     1       6.896  23.924  55.310  1.00  0.00     0.032 A 
HETATM   24  C   UNL     1       6.437  25.201  54.964  1.00  0.00     0.032 A 
BRANCH  22  25
HETATM   25  N   UNL     1       8.216  21.917  54.831  1.00  0.00    -0.309 N 
HETATM   26  C   UNL     1       8.279  20.733  54.093  1.00  0.00     0.106 A 
HETATM   27  C   UNL     1       8.024  20.590  52.637  1.00  0.00     0.091 C 
HETATM   28  N   UNL     1       8.710  19.729  54.836  1.00  0.00    -0.246 NA
HETATM   29  C   UNL     1       8.998  20.254  56.056  1.00  0.00     0.136 A 
HETATM   30  C   UNL     1       8.729  21.598  56.076  1.00  0.00     0.118 A 
ENDBRANCH  22  25
ENDBRANCH   3  19
TORSDOF 6
ENDMDL
MODEL 8
REMARK VINA RESULT:      -8.6      3.622      8.365
REMARK  6 active torsions:
REMARK  status: ('A' for Active; 'I' for Inactive)
REMARK    1  A    between atoms: C_4  and  C_5 
REMARK    2  A    between atoms: C_5  and  N_6 
REMARK    3  A    between atoms: C_5  and  C_10 
REMARK    4  A    between atoms: C_10  and  N_11 
REMARK       I    between atoms: N_11  and  C_12 
REMARK       I    between atoms: C_12  and  N_13 
REMARK    5  A    between atoms: N_13  and  C_14 
REMARK    6  A    between atoms: C_17  and  N_18 
ROOT
HETATM    1  N   UNL     1       8.520  24.447  55.806  1.00  0.00    -0.340 N 
HETATM    2  C   UNL     1       8.436  24.884  57.086  1.00  0.00     0.320 C 
HETATM    3  N   UNL     1       7.896  26.104  57.317  1.00  0.00    -0.309 N 
HETATM    4  O   UNL     1       8.924  24.233  58.011  1.00  0.00    -0.247 OA
HETATM    5  H   UNL     1       8.419  25.155  55.087  1.00  0.00     0.164 HD
HETATM    6  H   UNL     1       8.107  26.448  58.249  1.00  0.00     0.170 HD
ENDROOT
BRANCH   1   7
HETATM    7  C   UNL     1       8.959  23.109  55.402  1.00  0.00     0.164 C 
BRANCH   7   8
HETATM    8  C   UNL     1       8.572  22.658  53.955  1.00  0.00     0.261 C 
BRANCH   8   9
HETATM    9  C   UNL     1       7.801  23.725  53.243  1.00  0.00     0.085 A 
HETATM   10  O   UNL     1       6.560  24.021  53.728  1.00  0.00    -0.318 OA
HETATM   11  C   UNL     1       6.030  24.982  52.919  1.00  0.00     0.049 A 
HETATM   12  C   UNL     1       4.663  25.445  53.240  1.00  0.00     0.076 C 
HETATM   13  C   UNL     1       6.932  25.321  51.935  1.00  0.00     0.035 A 
HETATM   14  C   UNL     1       8.075  24.513  52.143  1.00  0.00     0.037 A 
ENDBRANCH   8   9
BRANCH   8  15
HETATM   15  N   UNL     1       7.878  21.293  53.935  1.00  0.00    -0.067 N 
HETATM   16  H   UNL     1       6.894  21.512  53.680  1.00  0.00     0.280 HD
HETATM   17  C   UNL     1       8.336  20.328  52.883  1.00  0.00     0.270 C 
HETATM   18  C   UNL     1       7.821  20.648  55.283  1.00  0.00     0.270 C 
ENDBRANCH   8  15
ENDBRANCH   7   8
ENDBRANCH   1   7
BRANCH   3  19
HETATM   19  C   UNL     1       6.993  26.897  56.580  1.00  0.00     0.036 A 
HETATM   20  C   UNL     1       5.632  27.012  56.857  1.00  0.00     0.032 A 
HETATM   21  C   UNL     1       4.818  27.874  56.103  1.00  0.00     0.032 A 
HETATM   22  C   UNL     1       5.356  28.649  55.071  1.00  0.00     0.040 A 
HETATM   23  C   UNL     1       6.725  28.531  54.795  1.00  0.00     0.032 A 
HETATM   24  C   UNL     1       7.533  27.674  55.552  1.00  0.00     0.032 A 
BRANCH  22  25
HETATM   25  N   UNL     1       4.550  29.542  54.296  1.00  0.00    -0.309 N 
HETATM   26  C   UNL     1       4.156  30.855  54.559  1.00  0.00     0.106 A 
HETATM   27  C   UNL     1       4.648  31.716  55.665  1.00  0.00     0.091 C 
HETATM   28  N   UNL     1       3.344  31.309  53.621  1.00  0.00    -0.246 NA
HETATM   29  C   UNL     1       3.245  30.320  52.693  1.00  0.00     0.136 A 
HETATM   30  C   UNL     1       3.993  29.235  53.067  1.00  0.00     0.118 A 
ENDBRANCH  22  25
ENDBRANCH   3  19
TORSDOF 6
ENDMDL
MODEL 9
REMARK VINA RESULT:      -8.5      3.984      5.458
REMARK  6 active torsions:
REMARK  status: ('A' for Active; 'I' for Inactive)
REMARK    1  A    between atoms: C_4  and  C_5 
REMARK    2  A    between atoms: C_5  and  N_6 
REMARK    3  A    between atoms: C_5  and  C_10 
REMARK    4  A    between atoms: C_10  and  N_11 
REMARK       I    between atoms: N_11  and  C_12 
REMARK       I    between atoms: C_12  and  N_13 
REMARK    5  A    between atoms: N_13  and  C_14 
REMARK    6  A    between atoms: C_17  and  N_18 
ROOT
HETATM    1  N   UNL     1       5.133  28.203  51.879  1.00  0.00    -0.340 N 
HETATM    2  C   UNL     1       5.061  27.419  50.777  1.00  0.00     0.320 C 
HETATM    3  N   UNL     1       5.794  26.281  50.745  1.00  0.00    -0.309 N 
HETATM    4  O   UNL     1       4.420  27.775  49.787  1.00  0.00    -0.247 OA
HETATM    5  H   UNL     1       5.919  28.032  52.495  1.00  0.00     0.164 HD
HETATM    6  H   UNL     1       5.879  25.904  49.806  1.00  0.00     0.170 HD
ENDROOT
BRANCH   1   7
HETATM    7  C   UNL     1       4.311  29.392  52.119  1.00  0.00     0.164 C 
BRANCH   7   8
HETATM    8  C   UNL     1       4.430  30.043  53.537  1.00  0.00     0.261 C 
BRANCH   8   9
HETATM    9  C   UNL     1       4.821  29.031  54.567  1.00  0.00     0.085 A 
HETATM   10  O   UNL     1       6.151  28.746  54.681  1.00  0.00    -0.318 OA
HETATM   11  C   UNL     1       6.276  27.787  55.641  1.00  0.00     0.049 A 
HETATM   12  C   UNL     1       7.642  27.297  55.922  1.00  0.00     0.076 C 
HETATM   13  C   UNL     1       5.039  27.474  56.160  1.00  0.00     0.035 A 
HETATM   14  C   UNL     1       4.100  28.276  55.469  1.00  0.00     0.037 A 
ENDBRANCH   8   9
BRANCH   8  15
HETATM   15  N   UNL     1       3.182  30.845  53.917  1.00  0.00    -0.067 N 
HETATM   16  H   UNL     1       2.454  30.120  54.080  1.00  0.00     0.280 HD
HETATM   17  C   UNL     1       3.248  31.612  55.203  1.00  0.00     0.270 C 
HETATM   18  C   UNL     1       2.671  31.695  52.797  1.00  0.00     0.270 C 
ENDBRANCH   8  15
ENDBRANCH   7   8
ENDBRANCH   1   7
BRANCH   3  19
HETATM   19  C   UNL     1       6.320  25.463  51.765  1.00  0.00     0.036 A 
HETATM   20  C   UNL     1       7.620  24.960  51.786  1.00  0.00     0.032 A 
HETATM   21  C   UNL     1       8.077  24.199  52.874  1.00  0.00     0.032 A 
HETATM   22  C   UNL     1       7.246  23.943  53.970  1.00  0.00     0.040 A 
HETATM   23  C   UNL     1       5.940  24.449  53.946  1.00  0.00     0.032 A 
HETATM   24  C   UNL     1       5.489  25.211  52.860  1.00  0.00     0.032 A 
BRANCH  22  25
HETATM   25  N   UNL     1       7.691  23.180  55.095  1.00  0.00    -0.309 N 
HETATM   26  C   UNL     1       7.870  21.802  55.232  1.00  0.00     0.106 A 
HETATM   27  C   UNL     1       7.802  20.793  54.143  1.00  0.00     0.091 C 
HETATM   28  N   UNL     1       8.225  21.485  56.465  1.00  0.00    -0.246 NA
HETATM   29  C   UNL     1       8.347  22.659  57.140  1.00  0.00     0.136 A 
HETATM   30  C   UNL     1       8.050  23.716  56.319  1.00  0.00     0.118 A 
ENDBRANCH  22  25
ENDBRANCH   3  19
TORSDOF 6
ENDMDL
MODEL 10
REMARK VINA RESULT:      -8.5      3.053      9.824
REMARK  6 active torsions:
REMARK  status: ('A' for Active; 'I' for Inactive)
REMARK    1  A    between atoms: C_4  and  C_5 
REMARK    2  A    between atoms: C_5  and  N_6 
REMARK    3  A    between atoms: C_5  and  C_10 
REMARK    4  A    between atoms: C_10  and  N_11 
REMARK       I    between atoms: N_11  and  C_12 
REMARK       I    between atoms: C_12  and  N_13 
REMARK    5  A    between atoms: N_13  and  C_14 
REMARK    6  A    between atoms: C_17  and  N_18 
ROOT
HETATM    1  N   UNL     1       7.971  28.552  57.952  1.00  0.00    -0.340 N 
HETATM    2  C   UNL     1       9.042  29.341  57.697  1.00  0.00     0.320 C 
HETATM    3  N   UNL     1       9.157  30.510  58.371  1.00  0.00    -0.309 N 
HETATM    4  O   UNL     1       9.844  29.053  56.808  1.00  0.00    -0.247 OA
HETATM    5  H   UNL     1       7.194  28.996  58.428  1.00  0.00     0.164 HD
HETATM    6  H   UNL     1       9.828  31.138  57.941  1.00  0.00     0.170 HD
ENDROOT
BRANCH   1   7
HETATM    7  C   UNL     1       7.769  27.208  57.403  1.00  0.00     0.164 C 
BRANCH   7   8
HETATM    8  C   UNL     1       6.801  27.096  56.179  1.00  0.00     0.261 C 
BRANCH   8   9
HETATM    9  C   UNL     1       6.919  25.760  55.515  1.00  0.00     0.085 A 
HETATM   10  O   UNL     1       8.012  25.007  55.829  1.00  0.00    -0.318 OA
HETATM   11  C   UNL     1       7.937  23.861  55.095  1.00  0.00     0.049 A 
HETATM   12  C   UNL     1       9.042  22.892  55.253  1.00  0.00     0.076 C 
HETATM   13  C   UNL     1       6.790  23.864  54.332  1.00  0.00     0.035 A 
HETATM   14  C   UNL     1       6.132  25.088  54.602  1.00  0.00     0.037 A 
ENDBRANCH   8   9
BRANCH   8  15
HETATM   15  N   UNL     1       6.951  28.271  55.209  1.00  0.00    -0.067 N 
HETATM   16  H   UNL     1       7.386  29.021  55.783  1.00  0.00     0.280 HD
HETATM   17  C   UNL     1       7.896  28.073  54.063  1.00  0.00     0.270 C 
HETATM   18  C   UNL     1       5.637  28.817  54.747  1.00  0.00     0.270 C 
ENDBRANCH   8  15
ENDBRANCH   7   8
ENDBRANCH   1   7
BRANCH   3  19
HETATM   19  C   UNL     1       8.644  30.945  59.610  1.00  0.00     0.036 A 
HETATM   20  C   UNL     1       9.123  30.534  60.853  1.00  0.00     0.032 A 
HETATM   21  C   UNL     1       8.588  31.065  62.038  1.00  0.00     0.032 A 
HETATM   22  C   UNL     1       7.578  32.032  62.000  1.00  0.00     0.040 A 
HETATM   23  C   UNL     1       7.099  32.443  60.749  1.00  0.00     0.032 A 
HETATM   24  C   UNL     1       7.637  31.913  59.569  1.00  0.00     0.032 A 
BRANCH  22  25
HETATM   25  N   UNL     1       7.025  32.597  63.192  1.00  0.00    -0.309 N 
HETATM   26  C   UNL     1       5.692  32.742  63.583  1.00  0.00     0.106 A 
HETATM   27  C   UNL     1       4.507  32.163  62.900  1.00  0.00     0.091 C 
HETATM   28  N   UNL     1       5.598  33.388  64.732  1.00  0.00    -0.246 NA
HETATM   29  C   UNL     1       6.872  33.619  65.145  1.00  0.00     0.136 A 
HETATM   30  C   UNL     1       7.768  33.123  64.233  1.00  0.00     0.118 A 
ENDBRANCH  22  25
ENDBRANCH   3  19
TORSDOF 6
ENDMDL
