MODEL 1
REMARK VINA RESULT:      -9.7      0.000      0.000
REMARK  10 active torsions:
REMARK  status: ('A' for Active; 'I' for Inactive)
REMARK    1  A    between atoms: C_2  and  C_3 
REMARK    2  A    between atoms: C_3  and  C_4 
REMARK    3  A    between atoms: C_4  and  O_5 
REMARK    4  A    between atoms: O_5  and  C_6 
REMARK    5  A    between atoms: C_9  and  C_10 
REMARK       I    between atoms: C_10  and  N_11 
REMARK    6  A    between atoms: N_11  and  C_12 
REMARK    7  A    between atoms: C_12  and  N_13 
REMARK    8  A    between atoms: N_13  and  C_14 
REMARK    9  A    between atoms: C_16  and  O_17 
REMARK   10  A    between atoms: C_18  and  C_19 
ROOT
HETATM    1  N   UNL     1       4.417  27.488  53.942  1.00  0.00    -0.333 N 
HETATM    2  H   UNL     1       3.938  26.593  53.965  1.00  0.00     0.168 HD
ENDROOT
BRANCH   1   3
HETATM    3  C   UNL     1       4.267  28.212  52.764  1.00  0.00     0.179 C 
HETATM    4  S   UNL     1       3.847  29.819  52.851  1.00  0.00    -0.040 SA
BRANCH   3   5
HETATM    5  N   UNL     1       4.408  27.441  51.605  1.00  0.00    -0.299 N 
HETATM    6  C   UNL     1       4.895  26.207  51.204  1.00  0.00     0.257 C 
HETATM    7  O   UNL     1       4.538  25.766  50.109  1.00  0.00    -0.267 OA
HETATM    8  H   UNL     1       3.930  27.830  50.804  1.00  0.00     0.171 HD
BRANCH   6   9
HETATM    9  C   UNL     1       5.784  25.379  52.019  1.00  0.00     0.032 A 
HETATM   10  C   UNL     1       7.164  25.565  51.857  1.00  0.00     0.020 A 
HETATM   11  C   UNL     1       8.043  25.085  52.823  1.00  0.00     0.038 A 
HETATM   12  C   UNL     1       7.532  24.465  53.964  1.00  0.00     0.068 A 
HETATM   13  C   UNL     1       6.167  24.204  54.089  1.00  0.00     0.038 A 
HETATM   14  C   UNL     1       5.281  24.679  53.121  1.00  0.00     0.020 A 
BRANCH  12  15
HETATM   15  O   UNL     1       8.346  24.136  55.016  1.00  0.00    -0.351 OA
BRANCH  15  16
HETATM   16  C   UNL     1       8.039  22.824  55.519  1.00  0.00     0.175 C 
BRANCH  16  17
HETATM   17  C   UNL     1       9.090  21.836  55.015  1.00  0.00     0.026 C 
BRANCH  17  18
HETATM   18  C   UNL     1       8.438  20.591  54.416  1.00  0.00    -0.002 C 
HETATM   19  C   UNL     1       7.944  20.840  53.002  1.00  0.00     0.005 C 
ENDBRANCH  17  18
ENDBRANCH  16  17
ENDBRANCH  15  16
ENDBRANCH  12  15
ENDBRANCH   6   9
ENDBRANCH   3   5
ENDBRANCH   1   3
BRANCH   1  20
HETATM   20  C   UNL     1       5.232  27.838  55.041  1.00  0.00     0.036 C 
HETATM   21  C   UNL     1       6.597  28.049  54.847  1.00  0.00     0.067 C 
HETATM   22  C   UNL     1       7.348  28.659  55.863  1.00  0.00     0.082 C 
HETATM   23  C   UNL     1       6.758  29.017  57.087  1.00  0.00     0.050 C 
HETATM   24  C   UNL     1       5.430  28.633  57.316  1.00  0.00     0.021 C 
HETATM   25  C   UNL     1       4.675  28.045  56.306  1.00  0.00     0.030 C 
BRANCH  22  26
HETATM   26  O   UNL     1       8.670  28.936  55.638  1.00  0.00    -0.360 OA
HETATM   27  H   UNL     1       8.996  29.564  56.304  1.00  0.00     0.217 HD
ENDBRANCH  22  26
BRANCH  23  28
HETATM   28  C   UNL     1       7.390  29.860  58.100  1.00  0.00     0.183 A 
HETATM   29  O   UNL     1       6.672  30.950  58.527  1.00  0.00    -0.289 OA
HETATM   30  C   UNL     1       7.325  31.357  59.653  1.00  0.00     0.106 A 
HETATM   31  C   UNL     1       8.405  30.512  59.845  1.00  0.00     0.093 A 
HETATM   32  C   UNL     1       6.974  32.398  60.503  1.00  0.00     0.040 A 
HETATM   33  N   UNL     1       8.447  29.575  58.846  1.00  0.00    -0.221 NA
HETATM   34  C   UNL     1       9.219  30.695  60.971  1.00  0.00     0.034 A 
HETATM   35  C   UNL     1       8.892  31.730  61.861  1.00  0.00     0.002 A 
HETATM   36  C   UNL     1       7.790  32.564  61.629  1.00  0.00     0.003 A 
ENDBRANCH  23  28
ENDBRANCH   1  20
TORSDOF 10
ENDMDL
MODEL 2
REMARK VINA RESULT:      -9.6      2.787     10.235
REMARK  10 active torsions:
REMARK  status: ('A' for Active; 'I' for Inactive)
REMARK    1  A    between atoms: C_2  and  C_3 
REMARK    2  A    between atoms: C_3  and  C_4 
REMARK    3  A    between atoms: C_4  and  O_5 
REMARK    4  A    between atoms: O_5  and  C_6 
REMARK    5  A    between atoms: C_9  and  C_10 
REMARK       I    between atoms: C_10  and  N_11 
REMARK    6  A    between atoms: N_11  and  C_12 
REMARK    7  A    between atoms: C_12  and  N_13 
REMARK    8  A    between atoms: N_13  and  C_14 
REMARK    9  A    between atoms: C_16  and  O_17 
REMARK   10  A    between atoms: C_18  and  C_19 
ROOT
HETATM    1  N   UNL     1       6.172  29.008  57.806  1.00  0.00    -0.333 N 
HETATM    2  H   UNL     1       5.331  28.906  58.365  1.00  0.00     0.168 HD
ENDROOT
BRANCH   1   3
HETATM    3  C   UNL     1       6.623  30.314  57.643  1.00  0.00     0.179 C 
HETATM    4  S   UNL     1       5.522  31.513  57.307  1.00  0.00    -0.040 SA
BRANCH   3   5
HETATM    5  N   UNL     1       8.016  30.440  57.698  1.00  0.00    -0.299 N 
HETATM    6  C   UNL     1       9.024  30.695  58.615  1.00  0.00     0.257 C 
HETATM    7  O   UNL     1      10.181  30.403  58.305  1.00  0.00    -0.267 OA
HETATM    8  H   UNL     1       8.476  30.174  56.838  1.00  0.00     0.171 HD
BRANCH   6   9
HETATM    9  C   UNL     1       8.791  31.259  59.944  1.00  0.00     0.032 A 
HETATM   10  C   UNL     1       8.004  32.416  60.022  1.00  0.00     0.020 A 
HETATM   11  C   UNL     1       7.457  32.798  61.243  1.00  0.00     0.038 A 
HETATM   12  C   UNL     1       7.663  31.994  62.365  1.00  0.00     0.068 A 
HETATM   13  C   UNL     1       8.513  30.888  62.310  1.00  0.00     0.038 A 
HETATM   14  C   UNL     1       9.067  30.504  61.088  1.00  0.00     0.020 A 
BRANCH  12  15
HETATM   15  O   UNL     1       7.003  32.236  63.540  1.00  0.00    -0.351 OA
BRANCH  15  16
HETATM   16  C   UNL     1       7.740  33.151  64.371  1.00  0.00     0.175 C 
BRANCH  16  17
HETATM   17  C   UNL     1       6.763  34.109  65.049  1.00  0.00     0.026 C 
BRANCH  17  18
HETATM   18  C   UNL     1       5.325  33.602  64.942  1.00  0.00    -0.002 C 
HETATM   19  C   UNL     1       4.511  33.957  66.175  1.00  0.00     0.005 C 
ENDBRANCH  17  18
ENDBRANCH  16  17
ENDBRANCH  15  16
ENDBRANCH  12  15
ENDBRANCH   6   9
ENDBRANCH   3   5
ENDBRANCH   1   3
BRANCH   1  20
HETATM   20  C   UNL     1       6.715  27.853  57.201  1.00  0.00     0.036 C 
HETATM   21  C   UNL     1       7.543  27.011  57.942  1.00  0.00     0.067 C 
HETATM   22  C   UNL     1       7.853  25.738  57.439  1.00  0.00     0.082 C 
HETATM   23  C   UNL     1       7.382  25.317  56.184  1.00  0.00     0.050 C 
HETATM   24  C   UNL     1       6.701  26.250  55.390  1.00  0.00     0.021 C 
HETATM   25  C   UNL     1       6.374  27.507  55.890  1.00  0.00     0.030 C 
BRANCH  22  26
HETATM   26  O   UNL     1       8.601  24.884  58.205  1.00  0.00    -0.360 OA
HETATM   27  H   UNL     1       9.127  25.388  58.847  1.00  0.00     0.217 HD
ENDBRANCH  22  26
BRANCH  23  28
HETATM   28  C   UNL     1       7.450  23.945  55.686  1.00  0.00     0.183 A 
HETATM   29  O   UNL     1       7.346  23.778  54.327  1.00  0.00    -0.289 OA
HETATM   30  C   UNL     1       7.748  22.493  54.119  1.00  0.00     0.106 A 
HETATM   31  C   UNL     1       8.060  21.941  55.350  1.00  0.00     0.093 A 
HETATM   32  C   UNL     1       7.877  21.835  52.902  1.00  0.00     0.040 A 
HETATM   33  N   UNL     1       7.853  22.866  56.341  1.00  0.00    -0.221 NA
HETATM   34  C   UNL     1       8.546  20.629  55.404  1.00  0.00     0.034 A 
HETATM   35  C   UNL     1       8.701  19.932  54.195  1.00  0.00     0.002 A 
HETATM   36  C   UNL     1       8.372  20.526  52.969  1.00  0.00     0.003 A 
ENDBRANCH  23  28
ENDBRANCH   1  20
TORSDOF 10
ENDMDL
MODEL 3
REMARK VINA RESULT:      -9.3      2.169      3.273
REMARK  10 active torsions:
REMARK  status: ('A' for Active; 'I' for Inactive)
REMARK    1  A    between atoms: C_2  and  C_3 
REMARK    2  A    between atoms: C_3  and  C_4 
REMARK    3  A    between atoms: C_4  and  O_5 
REMARK    4  A    between atoms: O_5  and  C_6 
REMARK    5  A    between atoms: C_9  and  C_10 
REMARK       I    between atoms: C_10  and  N_11 
REMARK    6  A    between atoms: N_11  and  C_12 
REMARK    7  A    between atoms: C_12  and  N_13 
REMARK    8  A    between atoms: N_13  and  C_14 
REMARK    9  A    between atoms: C_16  and  O_17 
REMARK   10  A    between atoms: C_18  and  C_19 
ROOT
HETATM    1  N   UNL     1       6.325  29.792  55.423  1.00  0.00    -0.333 N 
HETATM    2  H   UNL     1       6.991  30.223  54.789  1.00  0.00     0.168 HD
ENDROOT
BRANCH   1   3
HETATM    3  C   UNL     1       5.401  28.940  54.826  1.00  0.00     0.179 C 
HETATM    4  S   UNL     1       4.786  29.333  53.332  1.00  0.00    -0.040 SA
BRANCH   3   5
HETATM    5  N   UNL     1       5.027  27.860  55.633  1.00  0.00    -0.299 N 
HETATM    6  C   UNL     1       5.362  26.533  55.853  1.00  0.00     0.257 C 
HETATM    7  O   UNL     1       4.989  26.003  56.903  1.00  0.00    -0.267 OA
HETATM    8  H   UNL     1       4.378  28.113  56.366  1.00  0.00     0.171 HD
BRANCH   6   9
HETATM    9  C   UNL     1       6.161  25.730  54.927  1.00  0.00     0.032 A 
HETATM   10  C   UNL     1       7.343  25.164  55.422  1.00  0.00     0.020 A 
HETATM   11  C   UNL     1       7.955  24.126  54.726  1.00  0.00     0.038 A 
HETATM   12  C   UNL     1       7.354  23.633  53.567  1.00  0.00     0.068 A 
HETATM   13  C   UNL     1       6.224  24.248  53.027  1.00  0.00     0.038 A 
HETATM   14  C   UNL     1       5.608  25.293  53.718  1.00  0.00     0.020 A 
BRANCH  12  15
HETATM   15  O   UNL     1       7.825  22.504  52.950  1.00  0.00    -0.351 OA
BRANCH  15  16
HETATM   16  C   UNL     1       8.981  21.985  53.630  1.00  0.00     0.175 C 
BRANCH  16  17
HETATM   17  C   UNL     1       8.696  20.553  54.079  1.00  0.00     0.026 C 
BRANCH  17  18
HETATM   18  C   UNL     1       7.817  20.529  55.329  1.00  0.00    -0.002 C 
HETATM   19  C   UNL     1       8.639  20.678  56.598  1.00  0.00     0.005 C 
ENDBRANCH  17  18
ENDBRANCH  16  17
ENDBRANCH  15  16
ENDBRANCH  12  15
ENDBRANCH   6   9
ENDBRANCH   3   5
ENDBRANCH   1   3
BRANCH   1  20
HETATM   20  C   UNL     1       6.356  30.172  56.783  1.00  0.00     0.036 C 
HETATM   21  C   UNL     1       7.329  29.636  57.626  1.00  0.00     0.067 C 
HETATM   22  C   UNL     1       7.535  30.212  58.889  1.00  0.00     0.082 C 
HETATM   23  C   UNL     1       6.748  31.288  59.334  1.00  0.00     0.050 C 
HETATM   24  C   UNL     1       5.666  31.687  58.537  1.00  0.00     0.021 C 
HETATM   25  C   UNL     1       5.469  31.132  57.276  1.00  0.00     0.030 C 
BRANCH  22  26
HETATM   26  O   UNL     1       8.544  29.734  59.681  1.00  0.00    -0.360 OA
HETATM   27  H   UNL     1       9.177  29.230  59.145  1.00  0.00     0.217 HD
ENDBRANCH  22  26
BRANCH  23  28
HETATM   28  C   UNL     1       7.037  32.098  60.515  1.00  0.00     0.183 A 
HETATM   29  O   UNL     1       6.215  33.175  60.738  1.00  0.00    -0.289 OA
HETATM   30  C   UNL     1       6.495  33.546  62.020  1.00  0.00     0.106 A 
HETATM   31  C   UNL     1       7.474  32.695  62.504  1.00  0.00     0.093 A 
HETATM   32  C   UNL     1       5.895  34.560  62.755  1.00  0.00     0.040 A 
HETATM   33  N   UNL     1       7.824  31.789  61.536  1.00  0.00    -0.221 NA
HETATM   34  C   UNL     1       7.910  32.842  63.827  1.00  0.00     0.034 A 
HETATM   35  C   UNL     1       7.321  33.849  64.608  1.00  0.00     0.002 A 
HETATM   36  C   UNL     1       6.333  34.691  64.079  1.00  0.00     0.003 A 
ENDBRANCH  23  28
ENDBRANCH   1  20
TORSDOF 10
ENDMDL
MODEL 4
REMARK VINA RESULT:      -9.3      2.894      7.504
REMARK  10 active torsions:
REMARK  status: ('A' for Active; 'I' for Inactive)
REMARK    1  A    between atoms: C_2  and  C_3 
REMARK    2  A    between atoms: C_3  and  C_4 
REMARK    3  A    between atoms: C_4  and  O_5 
REMARK    4  A    between atoms: O_5  and  C_6 
REMARK    5  A    between atoms: C_9  and  C_10 
REMARK       I    between atoms: C_10  and  N_11 
REMARK    6  A    between atoms: N_11  and  C_12 
REMARK    7  A    between atoms: C_12  and  N_13 
REMARK    8  A    between atoms: N_13  and  C_14 
REMARK    9  A    between atoms: C_16  and  O_17 
REMARK   10  A    between atoms: C_18  and  C_19 
ROOT
HETATM    1  N   UNL     1       6.953  30.078  56.802  1.00  0.00    -0.333 N 
HETATM    2  H   UNL     1       6.865  30.716  56.017  1.00  0.00     0.168 HD
ENDROOT
BRANCH   1   3
HETATM    3  C   UNL     1       6.760  30.648  58.056  1.00  0.00     0.179 C 
HETATM    4  S   UNL     1       8.076  30.891  59.045  1.00  0.00    -0.040 SA
BRANCH   3   5
HETATM    5  N   UNL     1       5.417  30.874  58.372  1.00  0.00    -0.299 N 
HETATM    6  C   UNL     1       4.149  30.611  57.875  1.00  0.00     0.257 C 
HETATM    7  O   UNL     1       3.188  30.717  58.640  1.00  0.00    -0.267 OA
HETATM    8  H   UNL     1       5.282  31.262  59.296  1.00  0.00     0.171 HD
BRANCH   6   9
HETATM    9  C   UNL     1       3.888  30.184  56.500  1.00  0.00     0.032 A 
HETATM   10  C   UNL     1       3.934  31.166  55.502  1.00  0.00     0.020 A 
HETATM   11  C   UNL     1       4.047  30.789  54.167  1.00  0.00     0.038 A 
HETATM   12  C   UNL     1       4.158  29.436  53.847  1.00  0.00     0.068 A 
HETATM   13  C   UNL     1       4.029  28.452  54.829  1.00  0.00     0.038 A 
HETATM   14  C   UNL     1       3.912  28.825  56.169  1.00  0.00     0.020 A 
BRANCH  12  15
HETATM   15  O   UNL     1       4.445  29.032  52.570  1.00  0.00    -0.351 OA
BRANCH  15  16
HETATM   16  C   UNL     1       4.482  27.596  52.475  1.00  0.00     0.175 C 
BRANCH  16  17
HETATM   17  C   UNL     1       5.725  27.179  51.693  1.00  0.00     0.026 C 
BRANCH  17  18
HETATM   18  C   UNL     1       5.868  25.659  51.647  1.00  0.00    -0.002 C 
HETATM   19  C   UNL     1       4.774  24.968  52.443  1.00  0.00     0.005 C 
ENDBRANCH  17  18
ENDBRANCH  16  17
ENDBRANCH  15  16
ENDBRANCH  12  15
ENDBRANCH   6   9
ENDBRANCH   3   5
ENDBRANCH   1   3
BRANCH   1  20
HETATM   20  C   UNL     1       7.343  28.746  56.539  1.00  0.00     0.036 C 
HETATM   21  C   UNL     1       7.504  27.854  57.599  1.00  0.00     0.067 C 
HETATM   22  C   UNL     1       7.616  26.481  57.329  1.00  0.00     0.082 C 
HETATM   23  C   UNL     1       7.615  25.998  56.010  1.00  0.00     0.050 C 
HETATM   24  C   UNL     1       7.629  26.933  54.966  1.00  0.00     0.021 C 
HETATM   25  C   UNL     1       7.498  28.293  55.226  1.00  0.00     0.030 C 
BRANCH  22  26
HETATM   26  O   UNL     1       7.694  25.602  58.375  1.00  0.00    -0.360 OA
HETATM   27  H   UNL     1       6.803  25.366  58.679  1.00  0.00     0.217 HD
ENDBRANCH  22  26
BRANCH  23  28
HETATM   28  C   UNL     1       7.488  24.590  55.639  1.00  0.00     0.183 A 
HETATM   29  O   UNL     1       7.502  24.304  54.297  1.00  0.00    -0.289 OA
HETATM   30  C   UNL     1       7.687  22.954  54.247  1.00  0.00     0.106 A 
HETATM   31  C   UNL     1       7.760  22.488  55.548  1.00  0.00     0.093 A 
HETATM   32  C   UNL     1       7.825  22.162  53.114  1.00  0.00     0.040 A 
HETATM   33  N   UNL     1       7.617  23.531  56.426  1.00  0.00    -0.221 NA
HETATM   34  C   UNL     1       7.992  21.124  55.770  1.00  0.00     0.034 A 
HETATM   35  C   UNL     1       8.149  20.291  54.652  1.00  0.00     0.002 A 
HETATM   36  C   UNL     1       8.066  20.803  53.350  1.00  0.00     0.003 A 
ENDBRANCH  23  28
ENDBRANCH   1  20
TORSDOF 10
ENDMDL
MODEL 5
REMARK VINA RESULT:      -9.3      3.335     11.039
REMARK  10 active torsions:
REMARK  status: ('A' for Active; 'I' for Inactive)
REMARK    1  A    between atoms: C_2  and  C_3 
REMARK    2  A    between atoms: C_3  and  C_4 
REMARK    3  A    between atoms: C_4  and  O_5 
REMARK    4  A    between atoms: O_5  and  C_6 
REMARK    5  A    between atoms: C_9  and  C_10 
REMARK       I    between atoms: C_10  and  N_11 
REMARK    6  A    between atoms: N_11  and  C_12 
REMARK    7  A    between atoms: C_12  and  N_13 
REMARK    8  A    between atoms: N_13  and  C_14 
REMARK    9  A    between atoms: C_16  and  O_17 
REMARK   10  A    between atoms: C_18  and  C_19 
ROOT
HETATM    1  N   UNL     1       7.397  30.616  57.938  1.00  0.00    -0.333 N 
HETATM    2  H   UNL     1       7.772  31.186  57.186  1.00  0.00     0.168 HD
ENDROOT
BRANCH   1   3
HETATM    3  C   UNL     1       7.175  31.286  59.137  1.00  0.00     0.179 C 
HETATM    4  S   UNL     1       6.001  32.462  59.201  1.00  0.00    -0.040 SA
BRANCH   3   5
HETATM    5  N   UNL     1       8.066  30.931  60.155  1.00  0.00    -0.299 N 
HETATM    6  C   UNL     1       8.201  31.030  61.532  1.00  0.00     0.257 C 
HETATM    7  O   UNL     1       9.011  30.290  62.094  1.00  0.00    -0.267 OA
HETATM    8  H   UNL     1       8.811  30.323  59.842  1.00  0.00     0.171 HD
BRANCH   6   9
HETATM    9  C   UNL     1       7.413  31.942  62.362  1.00  0.00     0.032 A 
HETATM   10  C   UNL     1       6.025  31.750  62.388  1.00  0.00     0.020 A 
HETATM   11  C   UNL     1       5.268  32.330  63.401  1.00  0.00     0.038 A 
HETATM   12  C   UNL     1       5.910  33.057  64.404  1.00  0.00     0.068 A 
HETATM   13  C   UNL     1       7.279  33.319  64.336  1.00  0.00     0.038 A 
HETATM   14  C   UNL     1       8.043  32.743  63.320  1.00  0.00     0.020 A 
BRANCH  12  15
HETATM   15  O   UNL     1       5.228  33.495  65.508  1.00  0.00    -0.351 OA
BRANCH  15  16
HETATM   16  C   UNL     1       5.393  34.913  65.692  1.00  0.00     0.175 C 
BRANCH  16  17
HETATM   17  C   UNL     1       4.293  35.646  64.926  1.00  0.00     0.026 C 
BRANCH  17  18
HETATM   18  C   UNL     1       4.856  36.839  64.155  1.00  0.00    -0.002 C 
HETATM   19  C   UNL     1       5.550  36.404  62.875  1.00  0.00     0.005 C 
ENDBRANCH  17  18
ENDBRANCH  16  17
ENDBRANCH  15  16
ENDBRANCH  12  15
ENDBRANCH   6   9
ENDBRANCH   3   5
ENDBRANCH   1   3
BRANCH   1  20
HETATM   20  C   UNL     1       7.238  29.231  57.712  1.00  0.00     0.036 C 
HETATM   21  C   UNL     1       5.962  28.710  57.498  1.00  0.00     0.067 C 
HETATM   22  C   UNL     1       5.829  27.403  57.004  1.00  0.00     0.082 C 
HETATM   23  C   UNL     1       6.956  26.598  56.766  1.00  0.00     0.050 C 
HETATM   24  C   UNL     1       8.210  27.088  57.157  1.00  0.00     0.021 C 
HETATM   25  C   UNL     1       8.350  28.389  57.629  1.00  0.00     0.030 C 
BRANCH  22  26
HETATM   26  O   UNL     1       4.579  26.924  56.720  1.00  0.00    -0.360 OA
HETATM   27  H   UNL     1       3.997  27.652  56.448  1.00  0.00     0.217 HD
ENDBRANCH  22  26
BRANCH  23  28
HETATM   28  C   UNL     1       6.935  25.331  56.038  1.00  0.00     0.183 A 
HETATM   29  O   UNL     1       7.086  25.402  54.675  1.00  0.00    -0.289 OA
HETATM   30  C   UNL     1       7.343  24.116  54.303  1.00  0.00     0.106 A 
HETATM   31  C   UNL     1       7.322  23.332  55.443  1.00  0.00     0.093 A 
HETATM   32  C   UNL     1       7.625  23.648  53.026  1.00  0.00     0.040 A 
HETATM   33  N   UNL     1       7.047  24.109  56.538  1.00  0.00    -0.221 NA
HETATM   34  C   UNL     1       7.602  21.964  55.333  1.00  0.00     0.034 A 
HETATM   35  C   UNL     1       7.903  21.452  54.061  1.00  0.00     0.002 A 
HETATM   36  C   UNL     1       7.912  22.280  52.931  1.00  0.00     0.003 A 
ENDBRANCH  23  28
ENDBRANCH   1  20
TORSDOF 10
ENDMDL
MODEL 6
REMARK VINA RESULT:      -9.2      2.792     10.284
REMARK  10 active torsions:
REMARK  status: ('A' for Active; 'I' for Inactive)
REMARK    1  A    between atoms: C_2  and  C_3 
REMARK    2  A    between atoms: C_3  and  C_4 
REMARK    3  A    between atoms: C_4  and  O_5 
REMARK    4  A    between atoms: O_5  and  C_6 
REMARK    5  A    between atoms: C_9  and  C_10 
REMARK       I    between atoms: C_10  and  N_11 
REMARK    6  A    between atoms: N_11  and  C_12 
REMARK    7  A    between atoms: C_12  and  N_13 
REMARK    8  A    between atoms: N_13  and  C_14 
REMARK    9  A    between atoms: C_16  and  O_17 
REMARK   10  A    between atoms: C_18  and  C_19 
ROOT
HETATM    1  N   UNL     1       6.636  29.513  56.169  1.00  0.00    -0.333 N 
HETATM    2  H   UNL     1       6.691  29.981  55.270  1.00  0.00     0.168 HD
ENDROOT
BRANCH   1   3
HETATM    3  C   UNL     1       6.761  30.342  57.280  1.00  0.00     0.179 C 
HETATM    4  S   UNL     1       5.388  30.833  58.080  1.00  0.00    -0.040 SA
BRANCH   3   5
HETATM    5  N   UNL     1       8.076  30.743  57.539  1.00  0.00    -0.299 N 
HETATM    6  C   UNL     1       8.905  31.036  58.611  1.00  0.00     0.257 C 
HETATM    7  O   UNL     1      10.123  31.051  58.420  1.00  0.00    -0.267 OA
HETATM    8  H   UNL     1       8.666  30.734  56.719  1.00  0.00     0.171 HD
BRANCH   6   9
HETATM    9  C   UNL     1       8.421  31.296  59.967  1.00  0.00     0.032 A 
HETATM   10  C   UNL     1       8.933  30.497  60.998  1.00  0.00     0.020 A 
HETATM   11  C   UNL     1       8.797  30.905  62.321  1.00  0.00     0.038 A 
HETATM   12  C   UNL     1       8.190  32.131  62.598  1.00  0.00     0.068 A 
HETATM   13  C   UNL     1       7.605  32.889  61.583  1.00  0.00     0.038 A 
HETATM   14  C   UNL     1       7.736  32.482  60.254  1.00  0.00     0.020 A 
BRANCH  12  15
HETATM   15  O   UNL     1       8.191  32.650  63.866  1.00  0.00    -0.351 OA
BRANCH  15  16
HETATM   16  C   UNL     1       6.880  33.112  64.238  1.00  0.00     0.175 C 
BRANCH  16  17
HETATM   17  C   UNL     1       6.950  33.745  65.627  1.00  0.00     0.026 C 
BRANCH  17  18
HETATM   18  C   UNL     1       5.568  34.192  66.102  1.00  0.00    -0.002 C 
HETATM   19  C   UNL     1       4.487  33.848  65.091  1.00  0.00     0.005 C 
ENDBRANCH  17  18
ENDBRANCH  16  17
ENDBRANCH  15  16
ENDBRANCH  12  15
ENDBRANCH   6   9
ENDBRANCH   3   5
ENDBRANCH   1   3
BRANCH   1  20
HETATM   20  C   UNL     1       6.537  28.104  56.184  1.00  0.00     0.036 C 
HETATM   21  C   UNL     1       5.588  27.472  55.382  1.00  0.00     0.067 C 
HETATM   22  C   UNL     1       5.670  26.085  55.184  1.00  0.00     0.082 C 
HETATM   23  C   UNL     1       6.664  25.319  55.817  1.00  0.00     0.050 C 
HETATM   24  C   UNL     1       7.491  25.956  56.752  1.00  0.00     0.021 C 
HETATM   25  C   UNL     1       7.426  27.334  56.938  1.00  0.00     0.030 C 
BRANCH  22  26
HETATM   26  O   UNL     1       4.785  25.480  54.333  1.00  0.00    -0.360 OA
HETATM   27  H   UNL     1       5.098  25.559  53.417  1.00  0.00     0.217 HD
ENDBRANCH  22  26
BRANCH  23  28
HETATM   28  C   UNL     1       6.976  23.929  55.492  1.00  0.00     0.183 A 
HETATM   29  O   UNL     1       6.966  23.591  54.162  1.00  0.00    -0.289 OA
HETATM   30  C   UNL     1       7.581  22.374  54.124  1.00  0.00     0.106 A 
HETATM   31  C   UNL     1       7.917  22.029  55.422  1.00  0.00     0.093 A 
HETATM   32  C   UNL     1       7.873  21.611  53.001  1.00  0.00     0.040 A 
HETATM   33  N   UNL     1       7.516  23.014  56.286  1.00  0.00    -0.221 NA
HETATM   34  C   UNL     1       8.604  20.830  55.650  1.00  0.00     0.034 A 
HETATM   35  C   UNL     1       8.929  20.033  54.540  1.00  0.00     0.002 A 
HETATM   36  C   UNL     1       8.568  20.419  53.242  1.00  0.00     0.003 A 
ENDBRANCH  23  28
ENDBRANCH   1  20
TORSDOF 10
ENDMDL
MODEL 7
REMARK VINA RESULT:      -9.2      2.848      4.528
REMARK  10 active torsions:
REMARK  status: ('A' for Active; 'I' for Inactive)
REMARK    1  A    between atoms: C_2  and  C_3 
REMARK    2  A    between atoms: C_3  and  C_4 
REMARK    3  A    between atoms: C_4  and  O_5 
REMARK    4  A    between atoms: O_5  and  C_6 
REMARK    5  A    between atoms: C_9  and  C_10 
REMARK       I    between atoms: C_10  and  N_11 
REMARK    6  A    between atoms: N_11  and  C_12 
REMARK    7  A    between atoms: C_12  and  N_13 
REMARK    8  A    between atoms: N_13  and  C_14 
REMARK    9  A    between atoms: C_16  and  O_17 
REMARK   10  A    between atoms: C_18  and  C_19 
ROOT
HETATM    1  N   UNL     1       7.920  29.219  57.724  1.00  0.00    -0.333 N 
HETATM    2  H   UNL     1       7.644  28.290  58.026  1.00  0.00     0.168 HD
ENDROOT
BRANCH   1   3
HETATM    3  C   UNL     1       8.434  29.297  56.433  1.00  0.00     0.179 C 
HETATM    4  S   UNL     1      10.061  29.571  56.226  1.00  0.00    -0.040 SA
BRANCH   3   5
HETATM    5  N   UNL     1       7.460  29.217  55.432  1.00  0.00    -0.299 N 
HETATM    6  C   UNL     1       6.556  28.311  54.899  1.00  0.00     0.257 C 
HETATM    7  O   UNL     1       5.633  28.746  54.207  1.00  0.00    -0.267 OA
HETATM    8  H   UNL     1       7.250  30.109  55.006  1.00  0.00     0.171 HD
BRANCH   6   9
HETATM    9  C   UNL     1       6.614  26.868  55.137  1.00  0.00     0.032 A 
HETATM   10  C   UNL     1       7.332  26.094  54.216  1.00  0.00     0.020 A 
HETATM   11  C   UNL     1       7.722  24.803  54.556  1.00  0.00     0.038 A 
HETATM   12  C   UNL     1       7.433  24.315  55.831  1.00  0.00     0.068 A 
HETATM   13  C   UNL     1       6.648  25.051  56.720  1.00  0.00     0.038 A 
HETATM   14  C   UNL     1       6.250  26.345  56.382  1.00  0.00     0.020 A 
BRANCH  12  15
HETATM   15  O   UNL     1       7.947  23.123  56.267  1.00  0.00    -0.351 OA
BRANCH  15  16
HETATM   16  C   UNL     1       8.990  22.656  55.392  1.00  0.00     0.175 C 
BRANCH  16  17
HETATM   17  C   UNL     1       9.019  21.129  55.420  1.00  0.00     0.026 C 
BRANCH  17  18
HETATM   18  C   UNL     1       7.932  20.538  54.525  1.00  0.00    -0.002 C 
HETATM   19  C   UNL     1       8.159  20.881  53.062  1.00  0.00     0.005 C 
ENDBRANCH  17  18
ENDBRANCH  16  17
ENDBRANCH  15  16
ENDBRANCH  12  15
ENDBRANCH   6   9
ENDBRANCH   3   5
ENDBRANCH   1   3
BRANCH   1  20
HETATM   20  C   UNL     1       7.840  30.277  58.657  1.00  0.00     0.036 C 
HETATM   21  C   UNL     1       6.849  31.247  58.514  1.00  0.00     0.067 C 
HETATM   22  C   UNL     1       6.594  32.128  59.577  1.00  0.00     0.082 C 
HETATM   23  C   UNL     1       7.349  32.077  60.761  1.00  0.00     0.050 C 
HETATM   24  C   UNL     1       8.450  31.210  60.803  1.00  0.00     0.021 C 
HETATM   25  C   UNL     1       8.696  30.321  59.761  1.00  0.00     0.030 C 
BRANCH  22  26
HETATM   26  O   UNL     1       5.568  33.028  59.464  1.00  0.00    -0.360 OA
HETATM   27  H   UNL     1       4.879  32.674  58.879  1.00  0.00     0.217 HD
ENDBRANCH  22  26
BRANCH  23  28
HETATM   28  C   UNL     1       7.010  32.780  61.996  1.00  0.00     0.183 A 
HETATM   29  O   UNL     1       5.679  33.046  62.206  1.00  0.00    -0.289 OA
HETATM   30  C   UNL     1       5.616  33.400  63.521  1.00  0.00     0.106 A 
HETATM   31  C   UNL     1       6.899  33.347  64.037  1.00  0.00     0.093 A 
HETATM   32  C   UNL     1       4.481  33.720  64.255  1.00  0.00     0.040 A 
HETATM   33  N   UNL     1       7.780  32.967  63.058  1.00  0.00    -0.221 NA
HETATM   34  C   UNL     1       7.098  33.629  65.395  1.00  0.00     0.034 A 
HETATM   35  C   UNL     1       5.975  33.946  66.175  1.00  0.00     0.002 A 
HETATM   36  C   UNL     1       4.692  33.991  65.613  1.00  0.00     0.003 A 
ENDBRANCH  23  28
ENDBRANCH   1  20
TORSDOF 10
ENDMDL
MODEL 8
REMARK VINA RESULT:      -9.1      2.749      9.940
REMARK  10 active torsions:
REMARK  status: ('A' for Active; 'I' for Inactive)
REMARK    1  A    between atoms: C_2  and  C_3 
REMARK    2  A    between atoms: C_3  and  C_4 
REMARK    3  A    between atoms: C_4  and  O_5 
REMARK    4  A    between atoms: O_5  and  C_6 
REMARK    5  A    between atoms: C_9  and  C_10 
REMARK       I    between atoms: C_10  and  N_11 
REMARK    6  A    between atoms: N_11  and  C_12 
REMARK    7  A    between atoms: C_12  and  N_13 
REMARK    8  A    between atoms: N_13  and  C_14 
REMARK    9  A    between atoms: C_16  and  O_17 
REMARK   10  A    between atoms: C_18  and  C_19 
ROOT
HETATM    1  N   UNL     1       6.652  29.858  56.542  1.00  0.00    -0.333 N 
HETATM    2  H   UNL     1       7.329  30.581  56.764  1.00  0.00     0.168 HD
ENDROOT
BRANCH   1   3
HETATM    3  C   UNL     1       5.320  30.260  56.577  1.00  0.00     0.179 C 
HETATM    4  S   UNL     1       4.131  29.147  56.240  1.00  0.00    -0.040 SA
BRANCH   3   5
HETATM    5  N   UNL     1       5.150  31.628  56.814  1.00  0.00    -0.299 N 
HETATM    6  C   UNL     1       5.470  32.589  57.760  1.00  0.00     0.257 C 
HETATM    7  O   UNL     1       5.400  33.776  57.433  1.00  0.00    -0.267 OA
HETATM    8  H   UNL     1       4.761  32.126  56.025  1.00  0.00     0.171 HD
BRANCH   6   9
HETATM    9  C   UNL     1       5.917  32.278  59.118  1.00  0.00     0.032 A 
HETATM   10  C   UNL     1       7.263  31.922  59.286  1.00  0.00     0.020 A 
HETATM   11  C   UNL     1       7.833  31.959  60.554  1.00  0.00     0.038 A 
HETATM   12  C   UNL     1       7.067  32.394  61.636  1.00  0.00     0.068 A 
HETATM   13  C   UNL     1       5.706  32.669  61.487  1.00  0.00     0.038 A 
HETATM   14  C   UNL     1       5.128  32.630  60.218  1.00  0.00     0.020 A 
BRANCH  12  15
HETATM   15  O   UNL     1       7.633  32.611  62.864  1.00  0.00    -0.351 OA
BRANCH  15  16
HETATM   16  C   UNL     1       6.912  33.616  63.598  1.00  0.00     0.175 C 
BRANCH  16  17
HETATM   17  C   UNL     1       7.238  33.479  65.084  1.00  0.00     0.026 C 
BRANCH  17  18
HETATM   18  C   UNL     1       6.099  34.011  65.952  1.00  0.00    -0.002 C 
HETATM   19  C   UNL     1       4.739  33.686  65.358  1.00  0.00     0.005 C 
ENDBRANCH  17  18
ENDBRANCH  16  17
ENDBRANCH  15  16
ENDBRANCH  12  15
ENDBRANCH   6   9
ENDBRANCH   3   5
ENDBRANCH   1   3
BRANCH   1  20
HETATM   20  C   UNL     1       7.124  28.544  56.324  1.00  0.00     0.036 C 
HETATM   21  C   UNL     1       7.404  27.723  57.415  1.00  0.00     0.067 C 
HETATM   22  C   UNL     1       7.602  26.349  57.206  1.00  0.00     0.082 C 
HETATM   23  C   UNL     1       7.569  25.798  55.915  1.00  0.00     0.050 C 
HETATM   24  C   UNL     1       7.461  26.676  54.827  1.00  0.00     0.021 C 
HETATM   25  C   UNL     1       7.245  28.036  55.028  1.00  0.00     0.030 C 
BRANCH  22  26
HETATM   26  O   UNL     1       7.799  25.533  58.289  1.00  0.00    -0.360 OA
HETATM   27  H   UNL     1       7.722  26.046  59.110  1.00  0.00     0.217 HD
ENDBRANCH  22  26
BRANCH  23  28
HETATM   28  C   UNL     1       7.527  24.367  55.620  1.00  0.00     0.183 A 
HETATM   29  O   UNL     1       7.473  24.014  54.295  1.00  0.00    -0.289 OA
HETATM   30  C   UNL     1       7.758  22.680  54.296  1.00  0.00     0.106 A 
HETATM   31  C   UNL     1       7.954  22.289  55.609  1.00  0.00     0.093 A 
HETATM   32  C   UNL     1       7.881  21.843  53.194  1.00  0.00     0.040 A 
HETATM   33  N   UNL     1       7.790  23.363  56.445  1.00  0.00    -0.221 NA
HETATM   34  C   UNL     1       8.305  20.960  55.877  1.00  0.00     0.034 A 
HETATM   35  C   UNL     1       8.450  20.083  54.791  1.00  0.00     0.002 A 
HETATM   36  C   UNL     1       8.241  20.519  53.475  1.00  0.00     0.003 A 
ENDBRANCH  23  28
ENDBRANCH   1  20
TORSDOF 10
ENDMDL
MODEL 9
REMARK VINA RESULT:      -9.1      3.416      7.702
REMARK  10 active torsions:
REMARK  status: ('A' for Active; 'I' for Inactive)
REMARK    1  A    between atoms: C_2  and  C_3 
REMARK    2  A    between atoms: C_3  and  C_4 
REMARK    3  A    between atoms: C_4  and  O_5 
REMARK    4  A    between atoms: O_5  and  C_6 
REMARK    5  A    between atoms: C_9  and  C_10 
REMARK       I    between atoms: C_10  and  N_11 
REMARK    6  A    between atoms: N_11  and  C_12 
REMARK    7  A    between atoms: C_12  and  N_13 
REMARK    8  A    between atoms: N_13  and  C_14 
REMARK    9  A    between atoms: C_16  and  O_17 
REMARK   10  A    between atoms: C_18  and  C_19 
ROOT
HETATM    1  N   UNL     1       4.822  29.311  56.014  1.00  0.00    -0.333 N 
HETATM    2  H   UNL     1       4.348  30.044  56.534  1.00  0.00     0.168 HD
ENDROOT
BRANCH   1   3
HETATM    3  C   UNL     1       5.606  28.453  56.778  1.00  0.00     0.179 C 
HETATM    4  S   UNL     1       7.138  28.929  57.213  1.00  0.00    -0.040 SA
BRANCH   3   5
HETATM    5  N   UNL     1       5.011  27.209  57.018  1.00  0.00    -0.299 N 
HETATM    6  C   UNL     1       5.167  25.874  56.678  1.00  0.00     0.257 C 
HETATM    7  O   UNL     1       4.601  25.026  57.371  1.00  0.00    -0.267 OA
HETATM    8  H   UNL     1       4.301  27.237  57.737  1.00  0.00     0.171 HD
BRANCH   6   9
HETATM    9  C   UNL     1       5.991  25.409  55.562  1.00  0.00     0.032 A 
HETATM   10  C   UNL     1       7.268  24.918  55.868  1.00  0.00     0.020 A 
HETATM   11  C   UNL     1       7.953  24.149  54.932  1.00  0.00     0.038 A 
HETATM   12  C   UNL     1       7.338  23.841  53.718  1.00  0.00     0.068 A 
HETATM   13  C   UNL     1       6.103  24.397  53.378  1.00  0.00     0.038 A 
HETATM   14  C   UNL     1       5.413  25.171  54.311  1.00  0.00     0.020 A 
BRANCH  12  15
HETATM   15  O   UNL     1       7.901  22.948  52.845  1.00  0.00    -0.351 OA
BRANCH  15  16
HETATM   16  C   UNL     1       8.831  22.081  53.517  1.00  0.00     0.175 C 
BRANCH  16  17
HETATM   17  C   UNL     1       8.218  20.686  53.633  1.00  0.00     0.026 C 
BRANCH  17  18
HETATM   18  C   UNL     1       8.544  20.048  54.983  1.00  0.00    -0.002 C 
HETATM   19  C   UNL     1       7.649  20.582  56.088  1.00  0.00     0.005 C 
ENDBRANCH  17  18
ENDBRANCH  16  17
ENDBRANCH  15  16
ENDBRANCH  12  15
ENDBRANCH   6   9
ENDBRANCH   3   5
ENDBRANCH   1   3
BRANCH   1  20
HETATM   20  C   UNL     1       4.706  29.310  54.607  1.00  0.00     0.036 C 
HETATM   21  C   UNL     1       5.631  28.602  53.841  1.00  0.00     0.067 C 
HETATM   22  C   UNL     1       5.364  28.370  52.482  1.00  0.00     0.082 C 
HETATM   23  C   UNL     1       4.204  28.878  51.874  1.00  0.00     0.050 C 
HETATM   24  C   UNL     1       3.385  29.732  52.626  1.00  0.00     0.021 C 
HETATM   25  C   UNL     1       3.635  29.949  53.978  1.00  0.00     0.030 C 
BRANCH  22  26
HETATM   26  O   UNL     1       6.236  27.608  51.753  1.00  0.00    -0.360 OA
HETATM   27  H   UNL     1       7.106  27.594  52.184  1.00  0.00     0.217 HD
ENDBRANCH  22  26
BRANCH  23  28
HETATM   28  C   UNL     1       3.724  28.496  50.547  1.00  0.00     0.183 A 
HETATM   29  O   UNL     1       4.387  27.467  49.927  1.00  0.00    -0.289 OA
HETATM   30  C   UNL     1       3.567  27.118  48.895  1.00  0.00     0.106 A 
HETATM   31  C   UNL     1       2.464  27.954  48.929  1.00  0.00     0.093 A 
HETATM   32  C   UNL     1       3.750  26.088  47.982  1.00  0.00     0.040 A 
HETATM   33  N   UNL     1       2.579  28.836  49.972  1.00  0.00    -0.221 NA
HETATM   34  C   UNL     1       1.442  27.769  47.989  1.00  0.00     0.034 A 
HETATM   35  C   UNL     1       1.583  26.732  47.055  1.00  0.00     0.002 A 
HETATM   36  C   UNL     1       2.718  25.908  47.053  1.00  0.00     0.003 A 
ENDBRANCH  23  28
ENDBRANCH   1  20
TORSDOF 10
ENDMDL
MODEL 10
REMARK VINA RESULT:      -8.9      3.658     11.207
REMARK  10 active torsions:
REMARK  status: ('A' for Active; 'I' for Inactive)
REMARK    1  A    between atoms: C_2  and  C_3 
REMARK    2  A    between atoms: C_3  and  C_4 
REMARK    3  A    between atoms: C_4  and  O_5 
REMARK    4  A    between atoms: O_5  and  C_6 
REMARK    5  A    between atoms: C_9  and  C_10 
REMARK       I    between atoms: C_10  and  N_11 
REMARK    6  A    between atoms: N_11  and  C_12 
REMARK    7  A    between atoms: C_12  and  N_13 
REMARK    8  A    between atoms: N_13  and  C_14 
REMARK    9  A    between atoms: C_16  and  O_17 
REMARK   10  A    between atoms: C_18  and  C_19 
ROOT
HETATM    1  N   UNL     1       6.925  30.977  58.052  1.00  0.00    -0.333 N 
HETATM    2  H   UNL     1       7.620  31.479  57.508  1.00  0.00     0.168 HD
ENDROOT
BRANCH   1   3
HETATM    3  C   UNL     1       6.284  31.725  59.034  1.00  0.00     0.179 C 
HETATM    4  S   UNL     1       5.073  32.774  58.589  1.00  0.00    -0.040 SA
BRANCH   3   5
HETATM    5  N   UNL     1       6.823  31.556  60.314  1.00  0.00    -0.299 N 
HETATM    6  C   UNL     1       6.610  31.971  61.620  1.00  0.00     0.257 C 
HETATM    7  O   UNL     1       7.136  31.327  62.530  1.00  0.00    -0.267 OA
HETATM    8  H   UNL     1       7.532  30.837  60.359  1.00  0.00     0.171 HD
BRANCH   6   9
HETATM    9  C   UNL     1       5.769  33.112  61.984  1.00  0.00     0.032 A 
HETATM   10  C   UNL     1       4.450  32.840  62.374  1.00  0.00     0.020 A 
HETATM   11  C   UNL     1       3.719  33.807  63.057  1.00  0.00     0.038 A 
HETATM   12  C   UNL     1       4.328  35.019  63.384  1.00  0.00     0.068 A 
HETATM   13  C   UNL     1       5.610  35.325  62.926  1.00  0.00     0.038 A 
HETATM   14  C   UNL     1       6.347  34.360  62.237  1.00  0.00     0.020 A 
BRANCH  12  15
HETATM   15  O   UNL     1       3.707  35.925  64.202  1.00  0.00    -0.351 OA
BRANCH  15  16
HETATM   16  C   UNL     1       4.494  36.186  65.378  1.00  0.00     0.175 C 
BRANCH  16  17
HETATM   17  C   UNL     1       4.134  35.165  66.456  1.00  0.00     0.026 C 
BRANCH  17  18
HETATM   18  C   UNL     1       5.382  34.660  67.179  1.00  0.00    -0.002 C 
HETATM   19  C   UNL     1       6.359  34.001  66.220  1.00  0.00     0.005 C 
ENDBRANCH  17  18
ENDBRANCH  16  17
ENDBRANCH  15  16
ENDBRANCH  12  15
ENDBRANCH   6   9
ENDBRANCH   3   5
ENDBRANCH   1   3
BRANCH   1  20
HETATM   20  C   UNL     1       6.765  29.594  57.816  1.00  0.00     0.036 C 
HETATM   21  C   UNL     1       5.526  29.105  57.405  1.00  0.00     0.067 C 
HETATM   22  C   UNL     1       5.436  27.795  56.908  1.00  0.00     0.082 C 
HETATM   23  C   UNL     1       6.562  26.956  56.861  1.00  0.00     0.050 C 
HETATM   24  C   UNL     1       7.750  27.417  57.444  1.00  0.00     0.021 C 
HETATM   25  C   UNL     1       7.851  28.721  57.921  1.00  0.00     0.030 C 
BRANCH  22  26
HETATM   26  O   UNL     1       4.233  27.345  56.431  1.00  0.00    -0.360 OA
HETATM   27  H   UNL     1       3.517  27.926  56.735  1.00  0.00     0.217 HD
ENDBRANCH  22  26
BRANCH  23  28
HETATM   28  C   UNL     1       6.621  25.680  56.152  1.00  0.00     0.183 A 
HETATM   29  O   UNL     1       6.655  25.740  54.780  1.00  0.00    -0.289 OA
HETATM   30  C   UNL     1       7.020  24.483  54.402  1.00  0.00     0.106 A 
HETATM   31  C   UNL     1       7.175  23.723  55.549  1.00  0.00     0.093 A 
HETATM   32  C   UNL     1       7.249  24.022  53.112  1.00  0.00     0.040 A 
HETATM   33  N   UNL     1       6.905  24.487  56.654  1.00  0.00    -0.221 NA
HETATM   34  C   UNL     1       7.593  22.391  55.431  1.00  0.00     0.034 A 
HETATM   35  C   UNL     1       7.846  21.890  54.145  1.00  0.00     0.002 A 
HETATM   36  C   UNL     1       7.675  22.692  53.008  1.00  0.00     0.003 A 
ENDBRANCH  23  28
ENDBRANCH   1  20
TORSDOF 10
ENDMDL
