MODEL 1
REMARK VINA RESULT:     -10.1      0.000      0.000
REMARK  5 active torsions:
REMARK  status: ('A' for Active; 'I' for Inactive)
REMARK    1  A    between atoms: C_3  and  C_4 
REMARK    2  A    between atoms: C_7  and  C_8 
REMARK    3  A    between atoms: C_8  and  N_9 
REMARK    4  A    between atoms: C_16  and  O_17 
REMARK    5  A    between atoms: C_18  and  O_19 
ROOT
HETATM    1  N   UNL     1       5.491  26.842  49.908  1.00  0.00    -0.067 N 
HETATM    2  H   UNL     1       6.294  26.234  49.706  1.00  0.00     0.280 HD
HETATM    3  C   UNL     1       5.649  28.092  49.060  1.00  0.00     0.240 C 
HETATM    4  C   UNL     1       4.405  28.136  48.178  1.00  0.00     0.020 C 
HETATM    5  C   UNL     1       4.051  26.656  48.016  1.00  0.00     0.020 C 
HETATM    6  C   UNL     1       4.263  26.098  49.417  1.00  0.00     0.240 C 
HETATM    7  C   UNL     1       3.276  28.972  48.813  1.00  0.00     0.041 C 
HETATM    8  C   UNL     1       1.940  28.756  48.104  1.00  0.00     0.147 C 
HETATM    9  C   UNL     1       1.570  27.265  48.097  1.00  0.00     0.147 C 
HETATM   10  C   UNL     1       2.658  26.406  47.448  1.00  0.00     0.041 C 
ENDROOT
BRANCH   1  11
HETATM   11  C   UNL     1       5.525  27.098  51.391  1.00  0.00     0.273 C 
BRANCH  11  12
HETATM   12  C   UNL     1       6.053  25.930  52.176  1.00  0.00    -0.033 A 
HETATM   13  C   UNL     1       5.405  25.495  53.340  1.00  0.00     0.010 A 
HETATM   14  C   UNL     1       5.922  24.426  54.081  1.00  0.00     0.013 A 
HETATM   15  C   UNL     1       7.098  23.768  53.688  1.00  0.00    -0.023 A 
HETATM   16  C   UNL     1       7.737  24.212  52.521  1.00  0.00     0.013 A 
HETATM   17  C   UNL     1       7.224  25.276  51.773  1.00  0.00     0.010 A 
BRANCH  15  18
HETATM   18  C   UNL     1       7.641  22.642  54.467  1.00  0.00     0.013 A 
HETATM   19  C   UNL     1       7.931  22.781  55.835  1.00  0.00     0.015 A 
HETATM   20  C   UNL     1       8.435  21.708  56.579  1.00  0.00     0.001 A 
HETATM   21  C   UNL     1       8.659  20.476  55.969  1.00  0.00     0.003 A 
HETATM   22  C   UNL     1       8.381  20.316  54.614  1.00  0.00     0.043 A 
HETATM   23  C   UNL     1       7.878  21.388  53.879  1.00  0.00     0.127 A 
HETATM   24  F   UNL     1       7.629  21.199  52.573  1.00  0.00    -0.205 F 
ENDBRANCH  15  18
ENDBRANCH  11  12
ENDBRANCH   1  11
BRANCH   8  25
HETATM   25  O   UNL     1       2.054  29.206  46.753  1.00  0.00    -0.393 OA
HETATM   26  H   UNL     1       1.370  29.886  46.608  1.00  0.00     0.210 HD
ENDBRANCH   8  25
BRANCH   9  27
HETATM   27  O   UNL     1       0.356  27.075  47.380  1.00  0.00    -0.393 OA
HETATM   28  H   UNL     1       0.484  27.487  46.502  1.00  0.00     0.210 HD
ENDBRANCH   9  27
TORSDOF 5
ENDMDL
MODEL 2
REMARK VINA RESULT:     -10.0      0.942      1.340
REMARK  5 active torsions:
REMARK  status: ('A' for Active; 'I' for Inactive)
REMARK    1  A    between atoms: C_3  and  C_4 
REMARK    2  A    between atoms: C_7  and  C_8 
REMARK    3  A    between atoms: C_8  and  N_9 
REMARK    4  A    between atoms: C_16  and  O_17 
REMARK    5  A    between atoms: C_18  and  O_19 
ROOT
HETATM    1  N   UNL     1       5.547  27.131  49.974  1.00  0.00    -0.067 N 
HETATM    2  H   UNL     1       6.409  26.634  49.719  1.00  0.00     0.280 HD
HETATM    3  C   UNL     1       5.565  28.464  49.246  1.00  0.00     0.240 C 
HETATM    4  C   UNL     1       4.315  28.456  48.370  1.00  0.00     0.020 C 
HETATM    5  C   UNL     1       4.119  26.968  48.072  1.00  0.00     0.020 C 
HETATM    6  C   UNL     1       4.401  26.309  49.415  1.00  0.00     0.240 C 
HETATM    7  C   UNL     1       3.109  29.104  49.078  1.00  0.00     0.041 C 
HETATM    8  C   UNL     1       1.798  28.814  48.350  1.00  0.00     0.147 C 
HETATM    9  C   UNL     1       1.588  27.298  48.204  1.00  0.00     0.147 C 
HETATM   10  C   UNL     1       2.756  26.624  47.480  1.00  0.00     0.041 C 
ENDROOT
BRANCH   1  11
HETATM   11  C   UNL     1       5.566  27.252  51.475  1.00  0.00     0.273 C 
BRANCH  11  12
HETATM   12  C   UNL     1       6.065  26.009  52.157  1.00  0.00    -0.033 A 
HETATM   13  C   UNL     1       5.335  25.416  53.196  1.00  0.00     0.010 A 
HETATM   14  C   UNL     1       5.823  24.277  53.845  1.00  0.00     0.013 A 
HETATM   15  C   UNL     1       7.052  23.702  53.483  1.00  0.00    -0.023 A 
HETATM   16  C   UNL     1       7.774  24.304  52.441  1.00  0.00     0.013 A 
HETATM   17  C   UNL     1       7.290  25.439  51.785  1.00  0.00     0.010 A 
BRANCH  15  18
HETATM   18  C   UNL     1       7.566  22.503  54.165  1.00  0.00     0.013 A 
HETATM   19  C   UNL     1       7.964  21.369  53.435  1.00  0.00     0.015 A 
HETATM   20  C   UNL     1       8.465  20.233  54.082  1.00  0.00     0.001 A 
HETATM   21  C   UNL     1       8.575  20.209  55.470  1.00  0.00     0.003 A 
HETATM   22  C   UNL     1       8.185  21.319  56.214  1.00  0.00     0.043 A 
HETATM   23  C   UNL     1       7.689  22.448  55.564  1.00  0.00     0.127 A 
HETATM   24  F   UNL     1       7.314  23.497  56.314  1.00  0.00    -0.205 F 
ENDBRANCH  15  18
ENDBRANCH  11  12
ENDBRANCH   1  11
BRANCH   8  25
HETATM   25  O   UNL     1       1.852  29.396  47.047  1.00  0.00    -0.393 OA
HETATM   26  H   UNL     1       2.294  28.757  46.456  1.00  0.00     0.210 HD
ENDBRANCH   8  25
BRANCH   9  27
HETATM   27  O   UNL     1       0.395  27.047  47.470  1.00  0.00    -0.393 OA
HETATM   28  H   UNL     1      -0.229  26.622  48.091  1.00  0.00     0.210 HD
ENDBRANCH   9  27
TORSDOF 5
ENDMDL
MODEL 3
REMARK VINA RESULT:      -9.2      6.893      8.463
REMARK  5 active torsions:
REMARK  status: ('A' for Active; 'I' for Inactive)
REMARK    1  A    between atoms: C_3  and  C_4 
REMARK    2  A    between atoms: C_7  and  C_8 
REMARK    3  A    between atoms: C_8  and  N_9 
REMARK    4  A    between atoms: C_16  and  O_17 
REMARK    5  A    between atoms: C_18  and  O_19 
ROOT
HETATM    1  N   UNL     1       7.343  28.217  57.365  1.00  0.00    -0.067 N 
HETATM    2  H   UNL     1       7.185  27.972  56.380  1.00  0.00     0.280 HD
HETATM    3  C   UNL     1       8.708  28.875  57.453  1.00  0.00     0.240 C 
HETATM    4  C   UNL     1       8.444  30.271  58.010  1.00  0.00     0.020 C 
HETATM    5  C   UNL     1       7.033  30.577  57.502  1.00  0.00     0.020 C 
HETATM    6  C   UNL     1       6.298  29.260  57.715  1.00  0.00     0.240 C 
HETATM    7  C   UNL     1       8.565  30.312  59.547  1.00  0.00     0.041 C 
HETATM    8  C   UNL     1       7.993  31.602  60.129  1.00  0.00     0.147 C 
HETATM    9  C   UNL     1       6.529  31.785  59.697  1.00  0.00     0.147 C 
HETATM   10  C   UNL     1       6.374  31.777  58.175  1.00  0.00     0.041 C 
ENDROOT
BRANCH   1  11
HETATM   11  C   UNL     1       7.233  26.928  58.136  1.00  0.00     0.273 C 
BRANCH  11  12
HETATM   12  C   UNL     1       7.466  25.712  57.283  1.00  0.00    -0.033 A 
HETATM   13  C   UNL     1       8.685  25.022  57.333  1.00  0.00     0.010 A 
HETATM   14  C   UNL     1       8.904  23.910  56.512  1.00  0.00     0.013 A 
HETATM   15  C   UNL     1       7.920  23.459  55.618  1.00  0.00    -0.023 A 
HETATM   16  C   UNL     1       6.703  24.157  55.579  1.00  0.00     0.013 A 
HETATM   17  C   UNL     1       6.476  25.266  56.398  1.00  0.00     0.010 A 
BRANCH  15  18
HETATM   18  C   UNL     1       8.149  22.288  54.756  1.00  0.00     0.013 A 
HETATM   19  C   UNL     1       8.020  22.380  53.359  1.00  0.00     0.015 A 
HETATM   20  C   UNL     1       8.250  21.271  52.538  1.00  0.00     0.001 A 
HETATM   21  C   UNL     1       8.613  20.048  53.097  1.00  0.00     0.003 A 
HETATM   22  C   UNL     1       8.745  19.932  54.478  1.00  0.00     0.043 A 
HETATM   23  C   UNL     1       8.516  21.041  55.291  1.00  0.00     0.127 A 
HETATM   24  F   UNL     1       8.644  20.890  56.619  1.00  0.00    -0.205 F 
ENDBRANCH  15  18
ENDBRANCH  11  12
ENDBRANCH   1  11
BRANCH   8  25
HETATM   25  O   UNL     1       8.755  32.708  59.641  1.00  0.00    -0.393 OA
HETATM   26  H   UNL     1       8.541  33.482  60.195  1.00  0.00     0.210 HD
ENDBRANCH   8  25
BRANCH   9  27
HETATM   27  O   UNL     1       6.032  33.021  60.197  1.00  0.00    -0.393 OA
HETATM   28  H   UNL     1       6.142  33.675  59.478  1.00  0.00     0.210 HD
ENDBRANCH   9  27
TORSDOF 5
ENDMDL
MODEL 4
REMARK VINA RESULT:      -9.1      1.180      1.837
REMARK  5 active torsions:
REMARK  status: ('A' for Active; 'I' for Inactive)
REMARK    1  A    between atoms: C_3  and  C_4 
REMARK    2  A    between atoms: C_7  and  C_8 
REMARK    3  A    between atoms: C_8  and  N_9 
REMARK    4  A    between atoms: C_16  and  O_17 
REMARK    5  A    between atoms: C_18  and  O_19 
ROOT
HETATM    1  N   UNL     1       4.570  26.972  50.886  1.00  0.00    -0.067 N 
HETATM    2  H   UNL     1       4.106  26.268  51.473  1.00  0.00     0.280 HD
HETATM    3  C   UNL     1       4.473  26.493  49.448  1.00  0.00     0.240 C 
HETATM    4  C   UNL     1       3.707  27.590  48.713  1.00  0.00     0.020 C 
HETATM    5  C   UNL     1       2.813  28.173  49.810  1.00  0.00     0.020 C 
HETATM    6  C   UNL     1       3.745  28.239  51.012  1.00  0.00     0.240 C 
HETATM    7  C   UNL     1       4.653  28.627  48.076  1.00  0.00     0.041 C 
HETATM    8  C   UNL     1       3.903  29.879  47.626  1.00  0.00     0.147 C 
HETATM    9  C   UNL     1       3.136  30.500  48.804  1.00  0.00     0.147 C 
HETATM   10  C   UNL     1       2.165  29.504  49.445  1.00  0.00     0.041 C 
ENDROOT
BRANCH   1  11
HETATM   11  C   UNL     1       5.980  27.082  51.403  1.00  0.00     0.273 C 
BRANCH  11  12
HETATM   12  C   UNL     1       6.403  25.887  52.210  1.00  0.00    -0.033 A 
HETATM   13  C   UNL     1       5.690  25.502  53.353  1.00  0.00     0.010 A 
HETATM   14  C   UNL     1       6.111  24.406  54.115  1.00  0.00     0.013 A 
HETATM   15  C   UNL     1       7.253  23.670  53.764  1.00  0.00    -0.023 A 
HETATM   16  C   UNL     1       7.958  24.064  52.616  1.00  0.00     0.013 A 
HETATM   17  C   UNL     1       7.541  25.154  51.848  1.00  0.00     0.010 A 
BRANCH  15  18
HETATM   18  C   UNL     1       7.696  22.515  54.565  1.00  0.00     0.013 A 
HETATM   19  C   UNL     1       7.968  22.648  55.937  1.00  0.00     0.015 A 
HETATM   20  C   UNL     1       8.376  21.549  56.702  1.00  0.00     0.001 A 
HETATM   21  C   UNL     1       8.520  20.297  56.109  1.00  0.00     0.003 A 
HETATM   22  C   UNL     1       8.257  20.143  54.750  1.00  0.00     0.043 A 
HETATM   23  C   UNL     1       7.850  21.240  53.994  1.00  0.00     0.127 A 
HETATM   24  F   UNL     1       7.613  21.056  52.685  1.00  0.00    -0.205 F 
ENDBRANCH  15  18
ENDBRANCH  11  12
ENDBRANCH   1  11
BRANCH   8  25
HETATM   25  O   UNL     1       2.967  29.519  46.609  1.00  0.00    -0.393 OA
HETATM   26  H   UNL     1       3.076  30.147  45.870  1.00  0.00     0.210 HD
ENDBRANCH   8  25
BRANCH   9  27
HETATM   27  O   UNL     1       2.395  31.628  48.353  1.00  0.00    -0.393 OA
HETATM   28  H   UNL     1       1.591  31.277  47.919  1.00  0.00     0.210 HD
ENDBRANCH   9  27
TORSDOF 5
ENDMDL
MODEL 5
REMARK VINA RESULT:      -9.1      3.754      4.993
REMARK  5 active torsions:
REMARK  status: ('A' for Active; 'I' for Inactive)
REMARK    1  A    between atoms: C_3  and  C_4 
REMARK    2  A    between atoms: C_7  and  C_8 
REMARK    3  A    between atoms: C_8  and  N_9 
REMARK    4  A    between atoms: C_16  and  O_17 
REMARK    5  A    between atoms: C_18  and  O_19 
ROOT
HETATM    1  N   UNL     1       4.897  27.807  51.662  1.00  0.00    -0.067 N 
HETATM    2  H   UNL     1       4.304  28.325  51.003  1.00  0.00     0.280 HD
HETATM    3  C   UNL     1       6.063  28.710  52.023  1.00  0.00     0.240 C 
HETATM    4  C   UNL     1       5.973  28.893  53.536  1.00  0.00     0.020 C 
HETATM    5  C   UNL     1       4.471  28.765  53.804  1.00  0.00     0.020 C 
HETATM    6  C   UNL     1       4.063  27.600  52.912  1.00  0.00     0.240 C 
HETATM    7  C   UNL     1       6.823  27.856  54.295  1.00  0.00     0.041 C 
HETATM    8  C   UNL     1       6.488  27.826  55.785  1.00  0.00     0.147 C 
HETATM    9  C   UNL     1       4.990  27.553  55.994  1.00  0.00     0.147 C 
HETATM   10  C   UNL     1       4.114  28.582  55.275  1.00  0.00     0.041 C 
ENDROOT
BRANCH   1  11
HETATM   11  C   UNL     1       5.299  26.541  50.954  1.00  0.00     0.273 C 
BRANCH  11  12
HETATM   12  C   UNL     1       5.928  25.529  51.870  1.00  0.00    -0.033 A 
HETATM   13  C   UNL     1       7.265  25.144  51.707  1.00  0.00     0.010 A 
HETATM   14  C   UNL     1       7.832  24.178  52.546  1.00  0.00     0.013 A 
HETATM   15  C   UNL     1       7.083  23.567  53.564  1.00  0.00    -0.023 A 
HETATM   16  C   UNL     1       5.746  23.962  53.719  1.00  0.00     0.013 A 
HETATM   17  C   UNL     1       5.174  24.929  52.887  1.00  0.00     0.010 A 
BRANCH  15  18
HETATM   18  C   UNL     1       7.680  22.553  54.449  1.00  0.00     0.013 A 
HETATM   19  C   UNL     1       7.959  22.840  55.797  1.00  0.00     0.015 A 
HETATM   20  C   UNL     1       8.513  21.872  56.642  1.00  0.00     0.001 A 
HETATM   21  C   UNL     1       8.801  20.599  56.156  1.00  0.00     0.003 A 
HETATM   22  C   UNL     1       8.536  20.292  54.823  1.00  0.00     0.043 A 
HETATM   23  C   UNL     1       7.982  21.260  53.987  1.00  0.00     0.127 A 
HETATM   24  F   UNL     1       7.746  20.931  52.707  1.00  0.00    -0.205 F 
ENDBRANCH  15  18
ENDBRANCH  11  12
ENDBRANCH   1  11
BRANCH   8  25
HETATM   25  O   UNL     1       6.806  29.094  56.358  1.00  0.00    -0.393 OA
HETATM   26  H   UNL     1       6.378  29.140  57.233  1.00  0.00     0.210 HD
ENDBRANCH   8  25
BRANCH   9  27
HETATM   27  O   UNL     1       4.684  27.590  57.383  1.00  0.00    -0.393 OA
HETATM   28  H   UNL     1       4.076  28.345  57.514  1.00  0.00     0.210 HD
ENDBRANCH   9  27
TORSDOF 5
ENDMDL
MODEL 6
REMARK VINA RESULT:      -8.9      5.284      6.635
REMARK  5 active torsions:
REMARK  status: ('A' for Active; 'I' for Inactive)
REMARK    1  A    between atoms: C_3  and  C_4 
REMARK    2  A    between atoms: C_7  and  C_8 
REMARK    3  A    between atoms: C_8  and  N_9 
REMARK    4  A    between atoms: C_16  and  O_17 
REMARK    5  A    between atoms: C_18  and  O_19 
ROOT
HETATM    1  N   UNL     1       5.518  28.439  56.023  1.00  0.00    -0.067 N 
HETATM    2  H   UNL     1       5.663  27.611  56.614  1.00  0.00     0.280 HD
HETATM    3  C   UNL     1       4.020  28.666  55.925  1.00  0.00     0.240 C 
HETATM    4  C   UNL     1       3.789  30.061  56.500  1.00  0.00     0.020 C 
HETATM    5  C   UNL     1       4.925  30.202  57.516  1.00  0.00     0.020 C 
HETATM    6  C   UNL     1       6.119  29.609  56.779  1.00  0.00     0.240 C 
HETATM    7  C   UNL     1       3.806  31.146  55.406  1.00  0.00     0.041 C 
HETATM    8  C   UNL     1       3.899  32.550  55.998  1.00  0.00     0.147 C 
HETATM    9  C   UNL     1       5.139  32.672  56.899  1.00  0.00     0.147 C 
HETATM   10  C   UNL     1       5.142  31.626  58.016  1.00  0.00     0.041 C 
ENDROOT
BRANCH   1  11
HETATM   11  C   UNL     1       6.179  28.130  54.706  1.00  0.00     0.273 C 
BRANCH  11  12
HETATM   12  C   UNL     1       6.612  26.695  54.589  1.00  0.00    -0.033 A 
HETATM   13  C   UNL     1       6.222  25.746  55.543  1.00  0.00     0.010 A 
HETATM   14  C   UNL     1       6.657  24.420  55.442  1.00  0.00     0.013 A 
HETATM   15  C   UNL     1       7.493  24.005  54.393  1.00  0.00    -0.023 A 
HETATM   16  C   UNL     1       7.875  24.964  53.443  1.00  0.00     0.013 A 
HETATM   17  C   UNL     1       7.442  26.289  53.536  1.00  0.00     0.010 A 
BRANCH  15  18
HETATM   18  C   UNL     1       7.948  22.609  54.285  1.00  0.00     0.013 A 
HETATM   19  C   UNL     1       7.753  21.873  53.104  1.00  0.00     0.015 A 
HETATM   20  C   UNL     1       8.197  20.550  52.995  1.00  0.00     0.001 A 
HETATM   21  C   UNL     1       8.845  19.938  54.066  1.00  0.00     0.003 A 
HETATM   22  C   UNL     1       9.048  20.647  55.247  1.00  0.00     0.043 A 
HETATM   23  C   UNL     1       8.604  21.965  55.348  1.00  0.00     0.127 A 
HETATM   24  F   UNL     1       8.810  22.615  56.505  1.00  0.00    -0.205 F 
ENDBRANCH  15  18
ENDBRANCH  11  12
ENDBRANCH   1  11
BRANCH   8  25
HETATM   25  O   UNL     1       2.735  32.800  56.786  1.00  0.00    -0.393 OA
HETATM   26  H   UNL     1       1.990  32.949  56.174  1.00  0.00     0.210 HD
ENDBRANCH   8  25
BRANCH   9  27
HETATM   27  O   UNL     1       5.176  33.966  57.491  1.00  0.00    -0.393 OA
HETATM   28  H   UNL     1       4.276  34.339  57.402  1.00  0.00     0.210 HD
ENDBRANCH   9  27
TORSDOF 5
ENDMDL
MODEL 7
REMARK VINA RESULT:      -8.9      4.440      5.955
REMARK  5 active torsions:
REMARK  status: ('A' for Active; 'I' for Inactive)
REMARK    1  A    between atoms: C_3  and  C_4 
REMARK    2  A    between atoms: C_7  and  C_8 
REMARK    3  A    between atoms: C_8  and  N_9 
REMARK    4  A    between atoms: C_16  and  O_17 
REMARK    5  A    between atoms: C_18  and  O_19 
ROOT
HETATM    1  N   UNL     1       6.217  28.509  52.950  1.00  0.00    -0.067 N 
HETATM    2  H   UNL     1       6.501  29.174  52.220  1.00  0.00     0.280 HD
HETATM    3  C   UNL     1       7.455  28.184  53.768  1.00  0.00     0.240 C 
HETATM    4  C   UNL     1       7.116  28.615  55.193  1.00  0.00     0.020 C 
HETATM    5  C   UNL     1       6.133  29.768  54.974  1.00  0.00     0.020 C 
HETATM    6  C   UNL     1       5.246  29.253  53.848  1.00  0.00     0.240 C 
HETATM    7  C   UNL     1       6.528  27.457  56.023  1.00  0.00     0.041 C 
HETATM    8  C   UNL     1       5.896  27.951  57.322  1.00  0.00     0.147 C 
HETATM    9  C   UNL     1       4.818  29.006  57.028  1.00  0.00     0.147 C 
HETATM   10  C   UNL     1       5.373  30.187  56.228  1.00  0.00     0.041 C 
ENDROOT
BRANCH   1  11
HETATM   11  C   UNL     1       5.631  27.325  52.228  1.00  0.00     0.273 C 
BRANCH  11  12
HETATM   12  C   UNL     1       6.199  26.013  52.693  1.00  0.00    -0.033 A 
HETATM   13  C   UNL     1       5.575  25.279  53.711  1.00  0.00     0.010 A 
HETATM   14  C   UNL     1       6.130  24.075  54.158  1.00  0.00     0.013 A 
HETATM   15  C   UNL     1       7.320  23.573  53.609  1.00  0.00    -0.023 A 
HETATM   16  C   UNL     1       7.935  24.316  52.590  1.00  0.00     0.013 A 
HETATM   17  C   UNL     1       7.385  25.517  52.136  1.00  0.00     0.010 A 
BRANCH  15  18
HETATM   18  C   UNL     1       7.903  22.304  54.078  1.00  0.00     0.013 A 
HETATM   19  C   UNL     1       8.091  21.225  53.197  1.00  0.00     0.015 A 
HETATM   20  C   UNL     1       8.657  20.023  53.639  1.00  0.00     0.001 A 
HETATM   21  C   UNL     1       9.045  19.878  54.969  1.00  0.00     0.003 A 
HETATM   22  C   UNL     1       8.866  20.933  55.859  1.00  0.00     0.043 A 
HETATM   23  C   UNL     1       8.303  22.127  55.413  1.00  0.00     0.127 A 
HETATM   24  F   UNL     1       8.138  23.121  56.302  1.00  0.00    -0.205 F 
ENDBRANCH  15  18
ENDBRANCH  11  12
ENDBRANCH   1  11
BRANCH   8  25
HETATM   25  O   UNL     1       6.909  28.546  58.134  1.00  0.00    -0.393 OA
HETATM   26  H   UNL     1       7.774  28.248  57.794  1.00  0.00     0.210 HD
ENDBRANCH   8  25
BRANCH   9  27
HETATM   27  O   UNL     1       4.284  29.500  58.251  1.00  0.00    -0.393 OA
HETATM   28  H   UNL     1       3.764  30.297  58.026  1.00  0.00     0.210 HD
ENDBRANCH   9  27
TORSDOF 5
ENDMDL
MODEL 8
REMARK VINA RESULT:      -8.8      6.284      7.564
REMARK  5 active torsions:
REMARK  status: ('A' for Active; 'I' for Inactive)
REMARK    1  A    between atoms: C_3  and  C_4 
REMARK    2  A    between atoms: C_7  and  C_8 
REMARK    3  A    between atoms: C_8  and  N_9 
REMARK    4  A    between atoms: C_16  and  O_17 
REMARK    5  A    between atoms: C_18  and  O_19 
ROOT
HETATM    1  N   UNL     1       6.210  28.889  56.786  1.00  0.00    -0.067 N 
HETATM    2  H   UNL     1       6.054  28.460  55.865  1.00  0.00     0.280 HD
HETATM    3  C   UNL     1       6.814  30.262  56.545  1.00  0.00     0.240 C 
HETATM    4  C   UNL     1       5.832  31.245  57.176  1.00  0.00     0.020 C 
HETATM    5  C   UNL     1       4.490  30.521  57.038  1.00  0.00     0.020 C 
HETATM    6  C   UNL     1       4.838  29.084  57.402  1.00  0.00     0.240 C 
HETATM    7  C   UNL     1       6.203  31.576  58.635  1.00  0.00     0.041 C 
HETATM    8  C   UNL     1       5.067  32.291  59.364  1.00  0.00     0.147 C 
HETATM    9  C   UNL     1       3.782  31.449  59.312  1.00  0.00     0.147 C 
HETATM   10  C   UNL     1       3.367  31.124  57.875  1.00  0.00     0.041 C 
ENDROOT
BRANCH   1  11
HETATM   11  C   UNL     1       7.113  27.946  57.536  1.00  0.00     0.273 C 
BRANCH  11  12
HETATM   12  C   UNL     1       7.313  26.636  56.826  1.00  0.00    -0.033 A 
HETATM   13  C   UNL     1       6.569  26.317  55.682  1.00  0.00     0.010 A 
HETATM   14  C   UNL     1       6.741  25.082  55.047  1.00  0.00     0.013 A 
HETATM   15  C   UNL     1       7.653  24.133  55.534  1.00  0.00    -0.023 A 
HETATM   16  C   UNL     1       8.394  24.464  56.678  1.00  0.00     0.013 A 
HETATM   17  C   UNL     1       8.230  25.697  57.316  1.00  0.00     0.010 A 
BRANCH  15  18
HETATM   18  C   UNL     1       7.836  22.834  54.864  1.00  0.00     0.013 A 
HETATM   19  C   UNL     1       7.707  21.628  55.575  1.00  0.00     0.015 A 
HETATM   20  C   UNL     1       7.868  20.393  54.937  1.00  0.00     0.001 A 
HETATM   21  C   UNL     1       8.162  20.340  53.576  1.00  0.00     0.003 A 
HETATM   22  C   UNL     1       8.297  21.522  52.852  1.00  0.00     0.043 A 
HETATM   23  C   UNL     1       8.134  22.748  53.493  1.00  0.00     0.127 A 
HETATM   24  F   UNL     1       8.278  23.868  52.766  1.00  0.00    -0.205 F 
ENDBRANCH  15  18
ENDBRANCH  11  12
ENDBRANCH   1  11
BRANCH   8  25
HETATM   25  O   UNL     1       4.821  33.543  58.724  1.00  0.00    -0.393 OA
HETATM   26  H   UNL     1       4.276  34.082  59.328  1.00  0.00     0.210 HD
ENDBRANCH   8  25
BRANCH   9  27
HETATM   27  O   UNL     1       2.720  32.157  59.941  1.00  0.00    -0.393 OA
HETATM   28  H   UNL     1       2.280  31.522  60.541  1.00  0.00     0.210 HD
ENDBRANCH   9  27
TORSDOF 5
ENDMDL
MODEL 9
REMARK VINA RESULT:      -8.7      7.606      9.717
REMARK  5 active torsions:
REMARK  status: ('A' for Active; 'I' for Inactive)
REMARK    1  A    between atoms: C_3  and  C_4 
REMARK    2  A    between atoms: C_7  and  C_8 
REMARK    3  A    between atoms: C_8  and  N_9 
REMARK    4  A    between atoms: C_16  and  O_17 
REMARK    5  A    between atoms: C_18  and  O_19 
ROOT
HETATM    1  N   UNL     1       6.479  26.951  54.793  1.00  0.00    -0.067 N 
HETATM    2  H   UNL     1       5.585  27.136  54.321  1.00  0.00     0.280 HD
HETATM    3  C   UNL     1       6.158  26.543  56.220  1.00  0.00     0.240 C 
HETATM    4  C   UNL     1       6.737  25.139  56.374  1.00  0.00     0.020 C 
HETATM    5  C   UNL     1       6.647  24.578  54.953  1.00  0.00     0.020 C 
HETATM    6  C   UNL     1       7.090  25.753  54.091  1.00  0.00     0.240 C 
HETATM    7  C   UNL     1       8.173  25.164  56.934  1.00  0.00     0.041 C 
HETATM    8  C   UNL     1       8.865  23.812  56.787  1.00  0.00     0.147 C 
HETATM    9  C   UNL     1       8.867  23.365  55.316  1.00  0.00     0.147 C 
HETATM   10  C   UNL     1       7.452  23.302  54.733  1.00  0.00     0.041 C 
ENDROOT
BRANCH   1  11
HETATM   11  C   UNL     1       7.277  28.223  54.684  1.00  0.00     0.273 C 
BRANCH  11  12
HETATM   12  C   UNL     1       7.471  28.910  56.007  1.00  0.00    -0.033 A 
HETATM   13  C   UNL     1       6.450  29.688  56.570  1.00  0.00     0.010 A 
HETATM   14  C   UNL     1       6.652  30.348  57.788  1.00  0.00     0.013 A 
HETATM   15  C   UNL     1       7.874  30.256  58.473  1.00  0.00    -0.023 A 
HETATM   16  C   UNL     1       8.888  29.474  57.900  1.00  0.00     0.013 A 
HETATM   17  C   UNL     1       8.692  28.808  56.687  1.00  0.00     0.010 A 
BRANCH  15  18
HETATM   18  C   UNL     1       8.086  30.950  59.755  1.00  0.00     0.013 A 
HETATM   19  C   UNL     1       9.060  30.506  60.665  1.00  0.00     0.015 A 
HETATM   20  C   UNL     1       9.271  31.171  61.878  1.00  0.00     0.001 A 
HETATM   21  C   UNL     1       8.512  32.293  62.204  1.00  0.00     0.003 A 
HETATM   22  C   UNL     1       7.540  32.749  61.317  1.00  0.00     0.043 A 
HETATM   23  C   UNL     1       7.336  32.083  60.111  1.00  0.00     0.127 A 
HETATM   24  F   UNL     1       6.384  32.547  59.284  1.00  0.00    -0.205 F 
ENDBRANCH  15  18
ENDBRANCH  11  12
ENDBRANCH   1  11
BRANCH   8  25
HETATM   25  O   UNL     1       8.156  22.841  57.558  1.00  0.00    -0.393 OA
HETATM   26  H   UNL     1       7.204  22.955  57.374  1.00  0.00     0.210 HD
ENDBRANCH   8  25
BRANCH   9  27
HETATM   27  O   UNL     1       9.459  22.077  55.206  1.00  0.00    -0.393 OA
HETATM   28  H   UNL     1       8.868  21.547  54.634  1.00  0.00     0.210 HD
ENDBRANCH   9  27
TORSDOF 5
ENDMDL
MODEL 10
REMARK VINA RESULT:      -8.7      8.422     10.478
REMARK  5 active torsions:
REMARK  status: ('A' for Active; 'I' for Inactive)
REMARK    1  A    between atoms: C_3  and  C_4 
REMARK    2  A    between atoms: C_7  and  C_8 
REMARK    3  A    between atoms: C_8  and  N_9 
REMARK    4  A    between atoms: C_16  and  O_17 
REMARK    5  A    between atoms: C_18  and  O_19 
ROOT
HETATM    1  N   UNL     1       9.085  31.038  58.362  1.00  0.00    -0.067 N 
HETATM    2  H   UNL     1       8.995  31.491  57.444  1.00  0.00     0.280 HD
HETATM    3  C   UNL     1       9.929  31.952  59.233  1.00  0.00     0.240 C 
HETATM    4  C   UNL     1       9.038  32.306  60.421  1.00  0.00     0.020 C 
HETATM    5  C   UNL     1       7.632  32.240  59.821  1.00  0.00     0.020 C 
HETATM    6  C   UNL     1       7.688  30.991  58.952  1.00  0.00     0.240 C 
HETATM    7  C   UNL     1       9.246  31.343  61.606  1.00  0.00     0.041 C 
HETATM    8  C   UNL     1       8.147  31.488  62.657  1.00  0.00     0.147 C 
HETATM    9  C   UNL     1       6.764  31.273  62.022  1.00  0.00     0.147 C 
HETATM   10  C   UNL     1       6.512  32.233  60.856  1.00  0.00     0.041 C 
ENDROOT
BRANCH   1  11
HETATM   11  C   UNL     1       9.707  29.692  58.102  1.00  0.00     0.273 C 
BRANCH  11  12
HETATM   12  C   UNL     1       8.962  28.890  57.073  1.00  0.00    -0.033 A 
HETATM   13  C   UNL     1       8.341  27.681  57.414  1.00  0.00     0.010 A 
HETATM   14  C   UNL     1       7.676  26.926  56.441  1.00  0.00     0.013 A 
HETATM   15  C   UNL     1       7.616  27.351  55.105  1.00  0.00    -0.023 A 
HETATM   16  C   UNL     1       8.240  28.563  54.775  1.00  0.00     0.013 A 
HETATM   17  C   UNL     1       8.903  29.324  55.742  1.00  0.00     0.010 A 
BRANCH  15  18
HETATM   18  C   UNL     1       6.915  26.558  54.081  1.00  0.00     0.013 A 
HETATM   19  C   UNL     1       7.629  25.843  53.104  1.00  0.00     0.015 A 
HETATM   20  C   UNL     1       6.964  25.078  52.138  1.00  0.00     0.001 A 
HETATM   21  C   UNL     1       5.572  25.015  52.131  1.00  0.00     0.003 A 
HETATM   22  C   UNL     1       4.844  25.717  53.088  1.00  0.00     0.043 A 
HETATM   23  C   UNL     1       5.512  26.475  54.048  1.00  0.00     0.127 A 
HETATM   24  F   UNL     1       4.777  27.145  54.951  1.00  0.00    -0.205 F 
ENDBRANCH  15  18
ENDBRANCH  11  12
ENDBRANCH   1  11
BRANCH   8  25
HETATM   25  O   UNL     1       8.199  32.806  63.203  1.00  0.00    -0.393 OA
HETATM   26  H   UNL     1       7.476  32.886  63.853  1.00  0.00     0.210 HD
ENDBRANCH   8  25
BRANCH   9  27
HETATM   27  O   UNL     1       5.750  31.473  63.000  1.00  0.00    -0.393 OA
HETATM   28  H   UNL     1       5.608  30.608  63.434  1.00  0.00     0.210 HD
ENDBRANCH   9  27
TORSDOF 5
ENDMDL
