MODEL 1
REMARK VINA RESULT:      -9.2      0.000      0.000
REMARK  4 active torsions:
REMARK  status: ('A' for Active; 'I' for Inactive)
REMARK    1  A    between atoms: N_7  and  N_8 
REMARK       I    between atoms: N_8  and  C_9 
REMARK    2  A    between atoms: C_9  and  C_10 
REMARK    3  A    between atoms: C_10  and  N_11 
REMARK    4  A    between atoms: N_11  and  C_12 
ROOT
HETATM    1  N   UNL     1       8.298  28.760  57.118  1.00  0.00    -0.245 N 
HETATM    2  C   UNL     1       7.956  27.422  57.012  1.00  0.00     0.250 C 
HETATM    3  O   UNL     1       7.905  26.626  57.950  1.00  0.00    -0.270 OA
HETATM    4  H   UNL     1       8.158  29.394  56.327  1.00  0.00     0.192 HD
ENDROOT
BRANCH   1   5
HETATM    5  N   UNL     1       8.704  29.272  58.318  1.00  0.00    -0.166 NA
HETATM    6  C   UNL     1       7.941  30.169  58.856  1.00  0.00     0.157 A 
HETATM    7  C   UNL     1       8.191  30.851  60.119  1.00  0.00     0.027 A 
HETATM    8  C   UNL     1       6.621  30.740  58.327  1.00  0.00     0.277 A 
HETATM    9  C   UNL     1       9.241  30.744  61.008  1.00  0.00     0.016 A 
HETATM   10  C   UNL     1       7.124  31.725  60.318  1.00  0.00     0.048 A 
HETATM   11  C   UNL     1       9.194  31.560  62.142  1.00  0.00     0.001 A 
HETATM   12  C   UNL     1       8.115  32.444  62.351  1.00  0.00     0.002 A 
HETATM   13  C   UNL     1       7.062  32.534  61.433  1.00  0.00     0.030 A 
HETATM   14  N   UNL     1       6.206  31.652  59.271  1.00  0.00    -0.321 N 
HETATM   15  H   UNL     1       5.358  32.191  59.191  1.00  0.00     0.169 HD
HETATM   16  O   UNL     1       6.104  30.421  57.276  1.00  0.00    -0.266 OA
ENDBRANCH   1   5
BRANCH   2  17
HETATM   17  C   UNL     1       7.608  26.996  55.585  1.00  0.00     0.197 C 
BRANCH  17  18
HETATM   18  N   UNL     1       6.729  25.820  55.578  1.00  0.00    -0.284 NA
HETATM   19  H   UNL     1       5.799  26.084  55.248  1.00  0.00     0.128 HD
BRANCH  18  20
HETATM   20  C   UNL     1       7.157  24.612  55.025  1.00  0.00     0.008 A 
HETATM   21  C   UNL     1       7.350  23.445  55.772  1.00  0.00     0.025 A 
HETATM   22  C   UNL     1       7.691  22.234  55.154  1.00  0.00     0.021 A 
HETATM   23  C   UNL     1       7.810  22.172  53.770  1.00  0.00     0.011 A 
HETATM   24 BR   UNL     1       8.253  20.536  52.935  1.00  0.00    -0.051 Br
HETATM   25  C   UNL     1       7.584  23.307  53.001  1.00  0.00     0.021 A 
HETATM   26  C   UNL     1       7.245  24.510  53.627  1.00  0.00     0.025 A 
ENDBRANCH  18  20
ENDBRANCH  17  18
ENDBRANCH   2  17
TORSDOF 4
ENDMDL
MODEL 2
REMARK VINA RESULT:      -9.1      3.806      8.771
REMARK  4 active torsions:
REMARK  status: ('A' for Active; 'I' for Inactive)
REMARK    1  A    between atoms: N_7  and  N_8 
REMARK       I    between atoms: N_8  and  C_9 
REMARK    2  A    between atoms: C_9  and  C_10 
REMARK    3  A    between atoms: C_10  and  N_11 
REMARK    4  A    between atoms: N_11  and  C_12 
ROOT
HETATM    1  N   UNL     1       7.499  26.232  53.996  1.00  0.00    -0.245 N 
HETATM    2  C   UNL     1       6.248  26.829  53.994  1.00  0.00     0.250 C 
HETATM    3  O   UNL     1       5.190  26.259  53.729  1.00  0.00    -0.270 OA
HETATM    4  H   UNL     1       8.307  26.724  54.385  1.00  0.00     0.192 HD
ENDROOT
BRANCH   1   5
HETATM    5  N   UNL     1       7.640  24.933  53.598  1.00  0.00    -0.166 NA
HETATM    6  C   UNL     1       7.954  24.073  54.513  1.00  0.00     0.157 A 
HETATM    7  C   UNL     1       8.165  22.647  54.305  1.00  0.00     0.027 A 
HETATM    8  C   UNL     1       8.186  24.316  56.008  1.00  0.00     0.277 A 
HETATM    9  C   UNL     1       8.107  21.887  53.155  1.00  0.00     0.016 A 
HETATM   10  C   UNL     1       8.478  22.105  55.550  1.00  0.00     0.048 A 
HETATM   11  C   UNL     1       8.379  20.522  53.286  1.00  0.00     0.001 A 
HETATM   12  C   UNL     1       8.694  19.965  54.544  1.00  0.00     0.002 A 
HETATM   13  C   UNL     1       8.746  20.760  55.696  1.00  0.00     0.030 A 
HETATM   14  N   UNL     1       8.484  23.083  56.543  1.00  0.00    -0.321 N 
HETATM   15  H   UNL     1       8.687  22.932  57.519  1.00  0.00     0.169 HD
HETATM   16  O   UNL     1       8.119  25.401  56.550  1.00  0.00    -0.266 OA
ENDBRANCH   1   5
BRANCH   2  17
HETATM   17  C   UNL     1       6.282  28.308  54.386  1.00  0.00     0.197 C 
BRANCH  17  18
HETATM   18  N   UNL     1       7.641  28.736  54.735  1.00  0.00    -0.284 NA
HETATM   19  H   UNL     1       8.033  29.301  53.980  1.00  0.00     0.128 HD
BRANCH  18  20
HETATM   20  C   UNL     1       7.918  29.280  55.991  1.00  0.00     0.008 A 
HETATM   21  C   UNL     1       6.927  29.667  56.901  1.00  0.00     0.025 A 
HETATM   22  C   UNL     1       7.257  30.121  58.186  1.00  0.00     0.021 A 
HETATM   23  C   UNL     1       8.589  30.162  58.584  1.00  0.00     0.011 A 
HETATM   24 BR   UNL     1       9.034  30.759  60.321  1.00  0.00    -0.051 Br
HETATM   25  C   UNL     1       9.589  29.745  57.715  1.00  0.00     0.021 A 
HETATM   26  C   UNL     1       9.250  29.294  56.435  1.00  0.00     0.025 A 
ENDBRANCH  18  20
ENDBRANCH  17  18
ENDBRANCH   2  17
TORSDOF 4
ENDMDL
MODEL 3
REMARK VINA RESULT:      -9.1      3.693      9.056
REMARK  4 active torsions:
REMARK  status: ('A' for Active; 'I' for Inactive)
REMARK    1  A    between atoms: N_7  and  N_8 
REMARK       I    between atoms: N_8  and  C_9 
REMARK    2  A    between atoms: C_9  and  C_10 
REMARK    3  A    between atoms: C_10  and  N_11 
REMARK    4  A    between atoms: N_11  and  C_12 
ROOT
HETATM    1  N   UNL     1       6.901  27.874  56.363  1.00  0.00    -0.245 N 
HETATM    2  C   UNL     1       7.722  28.991  56.368  1.00  0.00     0.250 C 
HETATM    3  O   UNL     1       8.627  29.210  55.563  1.00  0.00    -0.270 OA
HETATM    4  H   UNL     1       6.070  27.840  56.958  1.00  0.00     0.192 HD
ENDROOT
BRANCH   1   5
HETATM    5  N   UNL     1       7.124  26.863  55.471  1.00  0.00    -0.166 NA
HETATM    6  C   UNL     1       7.551  25.742  55.956  1.00  0.00     0.157 A 
HETATM    7  C   UNL     1       7.864  24.546  55.185  1.00  0.00     0.027 A 
HETATM    8  C   UNL     1       7.839  25.384  57.418  1.00  0.00     0.277 A 
HETATM    9  C   UNL     1       7.808  24.310  53.827  1.00  0.00     0.016 A 
HETATM   10  C   UNL     1       8.282  23.581  56.099  1.00  0.00     0.048 A 
HETATM   11  C   UNL     1       8.194  23.039  53.391  1.00  0.00     0.001 A 
HETATM   12  C   UNL     1       8.615  22.056  54.311  1.00  0.00     0.002 A 
HETATM   13  C   UNL     1       8.662  22.322  55.685  1.00  0.00     0.030 A 
HETATM   14  N   UNL     1       8.260  24.073  57.403  1.00  0.00    -0.321 N 
HETATM   15  H   UNL     1       8.524  23.563  58.232  1.00  0.00     0.169 HD
HETATM   16  O   UNL     1       7.714  26.148  58.353  1.00  0.00    -0.266 OA
ENDBRANCH   1   5
BRANCH   2  17
HETATM   17  C   UNL     1       7.387  29.984  57.483  1.00  0.00     0.197 C 
BRANCH  17  18
HETATM   18  N   UNL     1       8.432  30.000  58.514  1.00  0.00    -0.284 NA
HETATM   19  H   UNL     1       9.344  30.160  58.082  1.00  0.00     0.128 HD
BRANCH  18  20
HETATM   20  C   UNL     1       8.270  30.745  59.683  1.00  0.00     0.008 A 
HETATM   21  C   UNL     1       7.180  31.591  59.916  1.00  0.00     0.025 A 
HETATM   22  C   UNL     1       7.017  32.245  61.145  1.00  0.00     0.021 A 
HETATM   23  C   UNL     1       7.933  32.032  62.169  1.00  0.00     0.011 A 
HETATM   24 BR   UNL     1       7.705  32.901  63.832  1.00  0.00    -0.051 Br
HETATM   25  C   UNL     1       9.002  31.166  61.979  1.00  0.00     0.021 A 
HETATM   26  C   UNL     1       9.156  30.518  60.749  1.00  0.00     0.025 A 
ENDBRANCH  18  20
ENDBRANCH  17  18
ENDBRANCH   2  17
TORSDOF 4
ENDMDL
MODEL 4
REMARK VINA RESULT:      -8.9      3.745      9.145
REMARK  4 active torsions:
REMARK  status: ('A' for Active; 'I' for Inactive)
REMARK    1  A    between atoms: N_7  and  N_8 
REMARK       I    between atoms: N_8  and  C_9 
REMARK    2  A    between atoms: C_9  and  C_10 
REMARK    3  A    between atoms: C_10  and  N_11 
REMARK    4  A    between atoms: N_11  and  C_12 
ROOT
HETATM    1  N   UNL     1       6.521  27.871  56.693  1.00  0.00    -0.245 N 
HETATM    2  C   UNL     1       7.319  28.568  57.585  1.00  0.00     0.250 C 
HETATM    3  O   UNL     1       8.283  28.100  58.191  1.00  0.00    -0.270 OA
HETATM    4  H   UNL     1       5.845  28.367  56.106  1.00  0.00     0.192 HD
ENDROOT
BRANCH   1   5
HETATM    5  N   UNL     1       6.719  26.533  56.495  1.00  0.00    -0.166 NA
HETATM    6  C   UNL     1       7.100  26.170  55.313  1.00  0.00     0.157 A 
HETATM    7  C   UNL     1       7.355  24.801  54.885  1.00  0.00     0.027 A 
HETATM    8  C   UNL     1       7.371  27.048  54.087  1.00  0.00     0.277 A 
HETATM    9  C   UNL     1       7.250  23.609  55.571  1.00  0.00     0.016 A 
HETATM   10  C   UNL     1       7.745  24.867  53.549  1.00  0.00     0.048 A 
HETATM   11  C   UNL     1       7.557  22.443  54.863  1.00  0.00     0.001 A 
HETATM   12  C   UNL     1       7.955  22.503  53.511  1.00  0.00     0.002 A 
HETATM   13  C   UNL     1       8.054  23.727  52.837  1.00  0.00     0.030 A 
HETATM   14  N   UNL     1       7.758  26.183  53.088  1.00  0.00    -0.321 N 
HETATM   15  H   UNL     1       8.002  26.480  52.156  1.00  0.00     0.169 HD
HETATM   16  O   UNL     1       7.239  28.255  54.060  1.00  0.00    -0.266 OA
ENDBRANCH   1   5
BRANCH   2  17
HETATM   17  C   UNL     1       6.908  30.033  57.750  1.00  0.00     0.197 C 
BRANCH  17  18
HETATM   18  N   UNL     1       7.992  30.828  58.337  1.00  0.00    -0.284 NA
HETATM   19  H   UNL     1       8.240  31.596  57.709  1.00  0.00     0.128 HD
BRANCH  18  20
HETATM   20  C   UNL     1       7.934  31.242  59.669  1.00  0.00     0.008 A 
HETATM   21  C   UNL     1       8.984  31.069  60.579  1.00  0.00     0.025 A 
HETATM   22  C   UNL     1       8.911  31.586  61.880  1.00  0.00     0.021 A 
HETATM   23  C   UNL     1       7.793  32.312  62.274  1.00  0.00     0.011 A 
HETATM   24 BR   UNL     1       7.701  33.023  64.022  1.00  0.00    -0.051 Br
HETATM   25  C   UNL     1       6.755  32.534  61.378  1.00  0.00     0.021 A 
HETATM   26  C   UNL     1       6.837  32.014  60.083  1.00  0.00     0.025 A 
ENDBRANCH  18  20
ENDBRANCH  17  18
ENDBRANCH   2  17
TORSDOF 4
ENDMDL
MODEL 5
REMARK VINA RESULT:      -8.9      3.584      8.953
REMARK  4 active torsions:
REMARK  status: ('A' for Active; 'I' for Inactive)
REMARK    1  A    between atoms: N_7  and  N_8 
REMARK       I    between atoms: N_8  and  C_9 
REMARK    2  A    between atoms: C_9  and  C_10 
REMARK    3  A    between atoms: C_10  and  N_11 
REMARK    4  A    between atoms: N_11  and  C_12 
ROOT
HETATM    1  N   UNL     1       7.314  26.521  55.622  1.00  0.00    -0.245 N 
HETATM    2  C   UNL     1       6.140  27.171  55.966  1.00  0.00     0.250 C 
HETATM    3  O   UNL     1       5.168  26.642  56.506  1.00  0.00    -0.270 OA
HETATM    4  H   UNL     1       8.136  27.057  55.330  1.00  0.00     0.192 HD
ENDROOT
BRANCH   1   5
HETATM    5  N   UNL     1       7.426  25.170  55.793  1.00  0.00    -0.166 NA
HETATM    6  C   UNL     1       7.623  24.463  54.727  1.00  0.00     0.157 A 
HETATM    7  C   UNL     1       7.756  23.013  54.681  1.00  0.00     0.027 A 
HETATM    8  C   UNL     1       7.756  24.941  53.277  1.00  0.00     0.277 A 
HETATM    9  C   UNL     1       7.697  22.071  55.687  1.00  0.00     0.016 A 
HETATM   10  C   UNL     1       7.958  22.673  53.344  1.00  0.00     0.048 A 
HETATM   11  C   UNL     1       7.852  20.734  55.310  1.00  0.00     0.001 A 
HETATM   12  C   UNL     1       8.060  20.383  53.960  1.00  0.00     0.002 A 
HETATM   13  C   UNL     1       8.116  21.359  52.957  1.00  0.00     0.030 A 
HETATM   14  N   UNL     1       7.963  23.804  52.529  1.00  0.00    -0.321 N 
HETATM   15  H   UNL     1       8.087  23.809  51.528  1.00  0.00     0.169 HD
HETATM   16  O   UNL     1       7.674  26.099  52.922  1.00  0.00    -0.266 OA
ENDBRANCH   1   5
BRANCH   2  17
HETATM   17  C   UNL     1       6.153  28.664  55.631  1.00  0.00     0.197 C 
BRANCH  17  18
HETATM   18  N   UNL     1       7.503  29.226  55.751  1.00  0.00    -0.284 NA
HETATM   19  H   UNL     1       7.734  29.758  54.910  1.00  0.00     0.128 HD
BRANCH  18  20
HETATM   20  C   UNL     1       7.901  29.889  56.913  1.00  0.00     0.008 A 
HETATM   21  C   UNL     1       7.006  30.492  57.804  1.00  0.00     0.025 A 
HETATM   22  C   UNL     1       7.449  31.065  59.004  1.00  0.00     0.021 A 
HETATM   23  C   UNL     1       8.797  31.010  59.341  1.00  0.00     0.011 A 
HETATM   24 BR   UNL     1       9.393  31.766  60.966  1.00  0.00    -0.051 Br
HETATM   25  C   UNL     1       9.701  30.381  58.494  1.00  0.00     0.021 A 
HETATM   26  C   UNL     1       9.249  29.814  57.298  1.00  0.00     0.025 A 
ENDBRANCH  18  20
ENDBRANCH  17  18
ENDBRANCH   2  17
TORSDOF 4
ENDMDL
MODEL 6
REMARK VINA RESULT:      -8.8      6.545      9.153
REMARK  4 active torsions:
REMARK  status: ('A' for Active; 'I' for Inactive)
REMARK    1  A    between atoms: N_7  and  N_8 
REMARK       I    between atoms: N_8  and  C_9 
REMARK    2  A    between atoms: C_9  and  C_10 
REMARK    3  A    between atoms: C_10  and  N_11 
REMARK    4  A    between atoms: N_11  and  C_12 
ROOT
HETATM    1  N   UNL     1       6.925  25.198  52.223  1.00  0.00    -0.245 N 
HETATM    2  C   UNL     1       5.617  25.496  51.875  1.00  0.00     0.250 C 
HETATM    3  O   UNL     1       4.677  24.701  51.898  1.00  0.00    -0.270 OA
HETATM    4  H   UNL     1       7.613  25.945  52.338  1.00  0.00     0.192 HD
ENDROOT
BRANCH   1   5
HETATM    5  N   UNL     1       7.274  23.916  52.542  1.00  0.00    -0.166 NA
HETATM    6  C   UNL     1       7.514  23.671  53.790  1.00  0.00     0.157 A 
HETATM    7  C   UNL     1       7.913  22.383  54.343  1.00  0.00     0.027 A 
HETATM    8  C   UNL     1       7.452  24.635  54.979  1.00  0.00     0.277 A 
HETATM    9  C   UNL     1       8.142  21.171  53.726  1.00  0.00     0.016 A 
HETATM   10  C   UNL     1       8.060  22.568  55.716  1.00  0.00     0.048 A 
HETATM   11  C   UNL     1       8.534  20.109  54.547  1.00  0.00     0.001 A 
HETATM   12  C   UNL     1       8.682  20.288  55.938  1.00  0.00     0.002 A 
HETATM   13  C   UNL     1       8.443  21.530  56.540  1.00  0.00     0.030 A 
HETATM   14  N   UNL     1       7.784  23.884  56.084  1.00  0.00    -0.321 N 
HETATM   15  H   UNL     1       7.827  24.257  57.020  1.00  0.00     0.169 HD
HETATM   16  O   UNL     1       7.173  25.814  54.898  1.00  0.00    -0.266 OA
ENDBRANCH   1   5
BRANCH   2  17
HETATM   17  C   UNL     1       5.417  26.957  51.465  1.00  0.00     0.197 C 
BRANCH  17  18
HETATM   18  N   UNL     1       5.580  27.131  50.018  1.00  0.00    -0.284 NA
HETATM   19  H   UNL     1       6.284  26.480  49.666  1.00  0.00     0.128 HD
BRANCH  18  20
HETATM   20  C   UNL     1       4.468  27.202  49.177  1.00  0.00     0.008 A 
HETATM   21  C   UNL     1       4.032  26.137  48.381  1.00  0.00     0.025 A 
HETATM   22  C   UNL     1       2.855  26.229  47.624  1.00  0.00     0.021 A 
HETATM   23  C   UNL     1       2.083  27.383  47.683  1.00  0.00     0.011 A 
HETATM   24 BR   UNL     1       0.488  27.502  46.677  1.00  0.00    -0.051 Br
HETATM   25  C   UNL     1       2.472  28.440  48.497  1.00  0.00     0.021 A 
HETATM   26  C   UNL     1       3.647  28.339  49.247  1.00  0.00     0.025 A 
ENDBRANCH  18  20
ENDBRANCH  17  18
ENDBRANCH   2  17
TORSDOF 4
ENDMDL
MODEL 7
REMARK VINA RESULT:      -8.7      3.887      9.404
REMARK  4 active torsions:
REMARK  status: ('A' for Active; 'I' for Inactive)
REMARK    1  A    between atoms: N_7  and  N_8 
REMARK       I    between atoms: N_8  and  C_9 
REMARK    2  A    between atoms: C_9  and  C_10 
REMARK    3  A    between atoms: C_10  and  N_11 
REMARK    4  A    between atoms: N_11  and  C_12 
ROOT
HETATM    1  N   UNL     1       7.478  28.275  57.148  1.00  0.00    -0.245 N 
HETATM    2  C   UNL     1       8.416  29.252  57.440  1.00  0.00     0.250 C 
HETATM    3  O   UNL     1       9.217  29.731  56.638  1.00  0.00    -0.270 OA
HETATM    4  H   UNL     1       6.741  28.046  57.819  1.00  0.00     0.192 HD
ENDROOT
BRANCH   1   5
HETATM    5  N   UNL     1       7.453  27.698  55.908  1.00  0.00    -0.166 NA
HETATM    6  C   UNL     1       7.625  26.417  55.859  1.00  0.00     0.157 A 
HETATM    7  C   UNL     1       7.647  25.608  54.647  1.00  0.00     0.027 A 
HETATM    8  C   UNL     1       7.850  25.440  57.018  1.00  0.00     0.277 A 
HETATM    9  C   UNL     1       7.517  25.968  53.322  1.00  0.00     0.016 A 
HETATM   10  C   UNL     1       7.854  24.290  55.052  1.00  0.00     0.048 A 
HETATM   11  C   UNL     1       7.599  24.940  52.378  1.00  0.00     0.001 A 
HETATM   12  C   UNL     1       7.805  23.604  52.780  1.00  0.00     0.002 A 
HETATM   13  C   UNL     1       7.934  23.265  54.133  1.00  0.00     0.030 A 
HETATM   14  N   UNL     1       7.966  24.196  56.438  1.00  0.00    -0.321 N 
HETATM   15  H   UNL     1       8.122  23.349  56.962  1.00  0.00     0.169 HD
HETATM   16  O   UNL     1       7.916  25.760  58.187  1.00  0.00    -0.266 OA
ENDBRANCH   1   5
BRANCH   2  17
HETATM   17  C   UNL     1       8.361  29.728  58.894  1.00  0.00     0.197 C 
BRANCH  17  18
HETATM   18  N   UNL     1       7.881  31.112  58.984  1.00  0.00    -0.284 NA
HETATM   19  H   UNL     1       7.049  31.230  58.403  1.00  0.00     0.128 HD
BRANCH  18  20
HETATM   20  C   UNL     1       7.747  31.742  60.222  1.00  0.00     0.008 A 
HETATM   21  C   UNL     1       6.646  32.532  60.573  1.00  0.00     0.025 A 
HETATM   22  C   UNL     1       6.516  33.067  61.862  1.00  0.00     0.021 A 
HETATM   23  C   UNL     1       7.477  32.788  62.827  1.00  0.00     0.011 A 
HETATM   24 BR   UNL     1       7.294  33.494  64.570  1.00  0.00    -0.051 Br
HETATM   25  C   UNL     1       8.559  31.973  62.518  1.00  0.00     0.021 A 
HETATM   26  C   UNL     1       8.680  31.445  61.229  1.00  0.00     0.025 A 
ENDBRANCH  18  20
ENDBRANCH  17  18
ENDBRANCH   2  17
TORSDOF 4
ENDMDL
MODEL 8
REMARK VINA RESULT:      -8.6      1.679      2.261
REMARK  4 active torsions:
REMARK  status: ('A' for Active; 'I' for Inactive)
REMARK    1  A    between atoms: N_7  and  N_8 
REMARK       I    between atoms: N_8  and  C_9 
REMARK    2  A    between atoms: C_9  and  C_10 
REMARK    3  A    between atoms: C_10  and  N_11 
REMARK    4  A    between atoms: N_11  and  C_12 
ROOT
HETATM    1  N   UNL     1       7.248  27.518  55.946  1.00  0.00    -0.245 N 
HETATM    2  C   UNL     1       7.332  27.533  54.563  1.00  0.00     0.250 C 
HETATM    3  O   UNL     1       8.139  28.191  53.907  1.00  0.00    -0.270 OA
HETATM    4  H   UNL     1       6.667  26.825  56.423  1.00  0.00     0.192 HD
ENDROOT
BRANCH   1   5
HETATM    5  N   UNL     1       8.042  28.346  56.690  1.00  0.00    -0.166 NA
HETATM    6  C   UNL     1       7.442  29.258  57.386  1.00  0.00     0.157 A 
HETATM    7  C   UNL     1       8.094  30.248  58.233  1.00  0.00     0.027 A 
HETATM    8  C   UNL     1       5.939  29.535  57.499  1.00  0.00     0.277 A 
HETATM    9  C   UNL     1       9.430  30.474  58.489  1.00  0.00     0.016 A 
HETATM   10  C   UNL     1       7.080  31.021  58.794  1.00  0.00     0.048 A 
HETATM   11  C   UNL     1       9.738  31.529  59.352  1.00  0.00     0.001 A 
HETATM   12  C   UNL     1       8.717  32.315  59.926  1.00  0.00     0.002 A 
HETATM   13  C   UNL     1       7.367  32.064  59.650  1.00  0.00     0.030 A 
HETATM   14  N   UNL     1       5.822  30.598  58.367  1.00  0.00    -0.321 N 
HETATM   15  H   UNL     1       4.939  31.005  58.634  1.00  0.00     0.169 HD
HETATM   16  O   UNL     1       5.077  28.918  56.908  1.00  0.00    -0.266 OA
ENDBRANCH   1   5
BRANCH   2  17
HETATM   17  C   UNL     1       6.316  26.610  53.886  1.00  0.00     0.197 C 
BRANCH  17  18
HETATM   18  N   UNL     1       6.983  25.621  53.030  1.00  0.00    -0.284 NA
HETATM   19  H   UNL     1       7.792  26.046  52.573  1.00  0.00     0.128 HD
BRANCH  18  20
HETATM   20  C   UNL     1       7.266  24.340  53.506  1.00  0.00     0.008 A 
HETATM   21  C   UNL     1       7.946  23.370  52.760  1.00  0.00     0.025 A 
HETATM   22  C   UNL     1       8.287  22.131  53.318  1.00  0.00     0.021 A 
HETATM   23  C   UNL     1       7.976  21.860  54.646  1.00  0.00     0.011 A 
HETATM   24 BR   UNL     1       8.450  20.196  55.404  1.00  0.00    -0.051 Br
HETATM   25  C   UNL     1       7.337  22.820  55.421  1.00  0.00     0.021 A 
HETATM   26  C   UNL     1       7.001  24.054  54.855  1.00  0.00     0.025 A 
ENDBRANCH  18  20
ENDBRANCH  17  18
ENDBRANCH   2  17
TORSDOF 4
ENDMDL
MODEL 9
REMARK VINA RESULT:      -8.5      1.620      2.381
REMARK  4 active torsions:
REMARK  status: ('A' for Active; 'I' for Inactive)
REMARK    1  A    between atoms: N_7  and  N_8 
REMARK       I    between atoms: N_8  and  C_9 
REMARK    2  A    between atoms: C_9  and  C_10 
REMARK    3  A    between atoms: C_10  and  N_11 
REMARK    4  A    between atoms: N_11  and  C_12 
ROOT
HETATM    1  N   UNL     1       6.342  28.512  56.249  1.00  0.00    -0.245 N 
HETATM    2  C   UNL     1       5.164  28.017  55.714  1.00  0.00     0.250 C 
HETATM    3  O   UNL     1       4.035  28.436  55.973  1.00  0.00    -0.270 OA
HETATM    4  H   UNL     1       7.246  28.227  55.863  1.00  0.00     0.192 HD
ENDROOT
BRANCH   1   5
HETATM    5  N   UNL     1       6.305  29.482  57.210  1.00  0.00    -0.166 NA
HETATM    6  C   UNL     1       7.441  29.853  57.707  1.00  0.00     0.157 A 
HETATM    7  C   UNL     1       7.628  30.858  58.746  1.00  0.00     0.027 A 
HETATM    8  C   UNL     1       8.845  29.351  57.355  1.00  0.00     0.277 A 
HETATM    9  C   UNL     1       6.708  31.616  59.440  1.00  0.00     0.016 A 
HETATM   10  C   UNL     1       8.999  30.945  58.974  1.00  0.00     0.048 A 
HETATM   11  C   UNL     1       7.213  32.496  60.402  1.00  0.00     0.001 A 
HETATM   12  C   UNL     1       8.601  32.592  60.636  1.00  0.00     0.002 A 
HETATM   13  C   UNL     1       9.513  31.810  59.916  1.00  0.00     0.030 A 
HETATM   14  N   UNL     1       9.707  30.067  58.155  1.00  0.00    -0.321 N 
HETATM   15  H   UNL     1      10.709  29.948  58.142  1.00  0.00     0.169 HD
HETATM   16  O   UNL     1       9.083  28.486  56.537  1.00  0.00    -0.266 OA
ENDBRANCH   1   5
BRANCH   2  17
HETATM   17  C   UNL     1       5.382  26.879  54.715  1.00  0.00     0.197 C 
BRANCH  17  18
HETATM   18  N   UNL     1       6.801  26.518  54.620  1.00  0.00    -0.284 NA
HETATM   19  H   UNL     1       7.314  26.913  55.410  1.00  0.00     0.128 HD
BRANCH  18  20
HETATM   20  C   UNL     1       7.188  25.204  54.351  1.00  0.00     0.008 A 
HETATM   21  C   UNL     1       7.057  24.156  55.270  1.00  0.00     0.025 A 
HETATM   22  C   UNL     1       7.374  22.837  54.918  1.00  0.00     0.021 A 
HETATM   23  C   UNL     1       7.797  22.548  53.625  1.00  0.00     0.011 A 
HETATM   24 BR   UNL     1       8.209  20.767  53.145  1.00  0.00    -0.051 Br
HETATM   25  C   UNL     1       7.897  23.562  52.682  1.00  0.00     0.021 A 
HETATM   26  C   UNL     1       7.579  24.876  53.043  1.00  0.00     0.025 A 
ENDBRANCH  18  20
ENDBRANCH  17  18
ENDBRANCH   2  17
TORSDOF 4
ENDMDL
MODEL 10
REMARK VINA RESULT:      -8.3      2.672      3.897
REMARK  4 active torsions:
REMARK  status: ('A' for Active; 'I' for Inactive)
REMARK    1  A    between atoms: N_7  and  N_8 
REMARK       I    between atoms: N_8  and  C_9 
REMARK    2  A    between atoms: C_9  and  C_10 
REMARK    3  A    between atoms: C_10  and  N_11 
REMARK    4  A    between atoms: N_11  and  C_12 
ROOT
HETATM    1  N   UNL     1       8.640  30.343  60.006  1.00  0.00    -0.245 N 
HETATM    2  C   UNL     1       9.417  30.889  58.998  1.00  0.00     0.250 C 
HETATM    3  O   UNL     1      10.115  31.897  59.106  1.00  0.00    -0.270 OA
HETATM    4  H   UNL     1       8.220  29.417  59.893  1.00  0.00     0.192 HD
ENDROOT
BRANCH   1   5
HETATM    5  N   UNL     1       8.533  30.980  61.211  1.00  0.00    -0.166 NA
HETATM    6  C   UNL     1       7.566  31.831  61.336  1.00  0.00     0.157 A 
HETATM    7  C   UNL     1       7.280  32.625  62.523  1.00  0.00     0.027 A 
HETATM    8  C   UNL     1       6.502  32.223  60.305  1.00  0.00     0.277 A 
HETATM    9  C   UNL     1       7.927  32.691  63.740  1.00  0.00     0.016 A 
HETATM   10  C   UNL     1       6.158  33.397  62.226  1.00  0.00     0.048 A 
HETATM   11  C   UNL     1       7.406  33.578  64.685  1.00  0.00     0.001 A 
HETATM   12  C   UNL     1       6.269  34.361  64.392  1.00  0.00     0.002 A 
HETATM   13  C   UNL     1       5.630  34.274  63.149  1.00  0.00     0.030 A 
HETATM   14  N   UNL     1       5.704  33.154  60.931  1.00  0.00    -0.321 N 
HETATM   15  H   UNL     1       4.912  33.596  60.490  1.00  0.00     0.169 HD
HETATM   16  O   UNL     1       6.437  31.777  59.178  1.00  0.00    -0.266 OA
ENDBRANCH   1   5
BRANCH   2  17
HETATM   17  C   UNL     1       9.359  30.096  57.691  1.00  0.00     0.197 C 
BRANCH  17  18
HETATM   18  N   UNL     1       7.980  29.718  57.358  1.00  0.00    -0.284 NA
HETATM   19  H   UNL     1       7.517  30.486  56.870  1.00  0.00     0.128 HD
BRANCH  18  20
HETATM   20  C   UNL     1       7.700  28.483  56.771  1.00  0.00     0.008 A 
HETATM   21  C   UNL     1       7.325  28.330  55.431  1.00  0.00     0.025 A 
HETATM   22  C   UNL     1       7.145  27.061  54.866  1.00  0.00     0.021 A 
HETATM   23  C   UNL     1       7.371  25.923  55.633  1.00  0.00     0.011 A 
HETATM   24 BR   UNL     1       7.145  24.211  54.867  1.00  0.00    -0.051 Br
HETATM   25  C   UNL     1       7.784  26.045  56.954  1.00  0.00     0.021 A 
HETATM   26  C   UNL     1       7.960  27.316  57.509  1.00  0.00     0.025 A 
ENDBRANCH  18  20
ENDBRANCH  17  18
ENDBRANCH   2  17
TORSDOF 4
ENDMDL
