MODEL 1
REMARK VINA RESULT:     -11.3      0.000      0.000
REMARK  8 active torsions:
REMARK  status: ('A' for Active; 'I' for Inactive)
REMARK    1  A    between atoms: O_2  and  C_3 
REMARK    2  A    between atoms: C_4  and  O_5 
REMARK    3  A    between atoms: C_8  and  C_9 
REMARK    4  A    between atoms: C_9  and  C_10 
REMARK    5  A    between atoms: C_10  and  C_11 
REMARK    6  A    between atoms: C_13  and  N_14 
REMARK       I    between atoms: N_14  and  C_15 
REMARK    7  A    between atoms: C_15  and  C_16 
REMARK    8  A    between atoms: C_20  and  C_21 
ROOT
HETATM    1  C   UNL     1       8.429  31.300  59.469  1.00  0.00     0.140 A 
HETATM    2  N   UNL     1       8.833  30.076  59.199  1.00  0.00    -0.046 NA
HETATM    3  C   UNL     1       7.909  29.618  58.295  1.00  0.00     0.747 A 
HETATM    4  N   UNL     1       6.971  30.509  57.978  1.00  0.00     0.020 NA
HETATM    5  N   UNL     1       7.314  31.561  58.726  1.00  0.00    -0.248 N 
HETATM    6  H   UNL     1       6.744  32.399  58.694  1.00  0.00     0.191 HD
ENDROOT
BRANCH   3   7
HETATM    7  N   UNL     1       8.022  28.339  57.852  1.00  0.00    -0.149 N 
HETATM    8  C   UNL     1       6.988  27.544  57.431  1.00  0.00     0.290 C 
HETATM    9  O   UNL     1       5.806  27.851  57.317  1.00  0.00    -0.265 OA
HETATM   10  H   UNL     1       8.940  27.920  57.912  1.00  0.00     0.188 HD
BRANCH   8  11
HETATM   11  C   UNL     1       7.446  26.173  57.137  1.00  0.00     0.147 A 
HETATM   12  N   UNL     1       8.133  25.432  58.030  1.00  0.00    -0.169 NA
HETATM   13  N   UNL     1       8.339  24.267  57.387  1.00  0.00    -0.277 N 
HETATM   14  H   UNL     1       8.876  23.551  57.864  1.00  0.00     0.189 HD
HETATM   15  C   UNL     1       7.777  24.194  56.139  1.00  0.00     0.063 A 
HETATM   16  C   UNL     1       7.220  25.442  55.943  1.00  0.00     0.071 A 
BRANCH  15  17
HETATM   17  C   UNL     1       7.822  23.007  55.280  1.00  0.00    -0.008 A 
HETATM   18  C   UNL     1       7.849  23.114  53.882  1.00  0.00     0.014 A 
HETATM   19  C   UNL     1       7.914  21.971  53.078  1.00  0.00     0.001 A 
HETATM   20  C   UNL     1       7.954  20.707  53.660  1.00  0.00     0.000 A 
HETATM   21  C   UNL     1       7.931  20.583  55.046  1.00  0.00     0.001 A 
HETATM   22  C   UNL     1       7.865  21.725  55.849  1.00  0.00     0.014 A 
ENDBRANCH  15  17
ENDBRANCH   8  11
ENDBRANCH   3   7
BRANCH   1  23
HETATM   23  C   UNL     1       8.983  32.277  60.441  1.00  0.00     0.085 C 
BRANCH  23  24
HETATM   24  C   UNL     1       9.061  31.720  61.864  1.00  0.00     0.046 C 
BRANCH  24  25
HETATM   25  C   UNL     1       7.860  32.161  62.669  1.00  0.00    -0.055 A 
HETATM   26  C   UNL     1       6.565  31.790  62.278  1.00  0.00     0.046 A 
HETATM   27  C   UNL     1       5.454  32.134  63.058  1.00  0.00     0.102 A 
HETATM   28  C   UNL     1       5.643  32.849  64.257  1.00  0.00     0.101 A 
HETATM   29  C   UNL     1       6.932  33.240  64.634  1.00  0.00     0.040 A 
HETATM   30  C   UNL     1       8.033  32.895  63.847  1.00  0.00     0.010 A 
BRANCH  27  31
HETATM   31  O   UNL     1       4.157  31.797  62.756  1.00  0.00    -0.353 OA
HETATM   32  C   UNL     1       3.659  32.173  61.482  1.00  0.00     0.210 C 
ENDBRANCH  27  31
BRANCH  28  33
HETATM   33  O   UNL     1       4.513  33.144  64.979  1.00  0.00    -0.353 OA
HETATM   34  C   UNL     1       4.685  33.977  66.118  1.00  0.00     0.210 C 
ENDBRANCH  28  33
ENDBRANCH  24  25
ENDBRANCH  23  24
ENDBRANCH   1  23
TORSDOF 8
ENDMDL
MODEL 2
REMARK VINA RESULT:     -10.1      2.839     11.252
REMARK  8 active torsions:
REMARK  status: ('A' for Active; 'I' for Inactive)
REMARK    1  A    between atoms: O_2  and  C_3 
REMARK    2  A    between atoms: C_4  and  O_5 
REMARK    3  A    between atoms: C_8  and  C_9 
REMARK    4  A    between atoms: C_9  and  C_10 
REMARK    5  A    between atoms: C_10  and  C_11 
REMARK    6  A    between atoms: C_13  and  N_14 
REMARK       I    between atoms: N_14  and  C_15 
REMARK    7  A    between atoms: C_15  and  C_16 
REMARK    8  A    between atoms: C_20  and  C_21 
ROOT
HETATM    1  C   UNL     1       7.098  28.247  55.356  1.00  0.00     0.140 A 
HETATM    2  N   UNL     1       6.801  28.542  56.605  1.00  0.00    -0.046 NA
HETATM    3  C   UNL     1       7.792  29.412  56.981  1.00  0.00     0.747 A 
HETATM    4  N   UNL     1       8.669  29.685  56.017  1.00  0.00     0.020 NA
HETATM    5  N   UNL     1       8.218  28.944  55.002  1.00  0.00    -0.248 N 
HETATM    6  H   UNL     1       8.721  28.947  54.123  1.00  0.00     0.191 HD
ENDROOT
BRANCH   3   7
HETATM    7  N   UNL     1       7.796  29.868  58.260  1.00  0.00    -0.149 N 
HETATM    8  C   UNL     1       8.883  30.370  58.927  1.00  0.00     0.290 C 
HETATM    9  O   UNL     1      10.011  30.556  58.486  1.00  0.00    -0.265 OA
HETATM   10  H   UNL     1       6.937  29.755  58.782  1.00  0.00     0.188 HD
BRANCH   8  11
HETATM   11  C   UNL     1       8.565  30.657  60.339  1.00  0.00     0.147 A 
HETATM   12  N   UNL     1       9.169  30.016  61.361  1.00  0.00    -0.169 NA
HETATM   13  N   UNL     1       8.618  30.572  62.456  1.00  0.00    -0.277 N 
HETATM   14  H   UNL     1       8.903  30.217  63.363  1.00  0.00     0.189 HD
HETATM   15  C   UNL     1       7.721  31.577  62.200  1.00  0.00     0.063 A 
HETATM   16  C   UNL     1       7.647  31.623  60.822  1.00  0.00     0.071 A 
BRANCH  15  17
HETATM   17  C   UNL     1       7.043  32.363  63.233  1.00  0.00    -0.008 A 
HETATM   18  C   UNL     1       5.643  32.421  63.310  1.00  0.00     0.014 A 
HETATM   19  C   UNL     1       5.012  33.158  64.317  1.00  0.00     0.001 A 
HETATM   20  C   UNL     1       5.769  33.846  65.262  1.00  0.00     0.000 A 
HETATM   21  C   UNL     1       7.159  33.797  65.201  1.00  0.00     0.001 A 
HETATM   22  C   UNL     1       7.790  33.061  64.194  1.00  0.00     0.014 A 
ENDBRANCH  15  17
ENDBRANCH   8  11
ENDBRANCH   3   7
BRANCH   1  23
HETATM   23  C   UNL     1       6.433  27.291  54.435  1.00  0.00     0.085 C 
BRANCH  23  24
HETATM   24  C   UNL     1       7.372  26.760  53.350  1.00  0.00     0.046 C 
BRANCH  24  25
HETATM   25  C   UNL     1       7.565  25.269  53.503  1.00  0.00    -0.055 A 
HETATM   26  C   UNL     1       7.529  24.673  54.772  1.00  0.00     0.046 A 
HETATM   27  C   UNL     1       7.635  23.283  54.915  1.00  0.00     0.102 A 
HETATM   28  C   UNL     1       7.763  22.476  53.768  1.00  0.00     0.101 A 
HETATM   29  C   UNL     1       7.824  23.073  52.505  1.00  0.00     0.040 A 
HETATM   30  C   UNL     1       7.721  24.460  52.374  1.00  0.00     0.010 A 
BRANCH  27  31
HETATM   31  O   UNL     1       7.592  22.620  56.117  1.00  0.00    -0.353 OA
HETATM   32  C   UNL     1       8.410  23.110  57.169  1.00  0.00     0.210 C 
ENDBRANCH  27  31
BRANCH  28  33
HETATM   33  O   UNL     1       7.851  21.122  53.978  1.00  0.00    -0.353 OA
HETATM   34  C   UNL     1       8.454  20.356  52.945  1.00  0.00     0.210 C 
ENDBRANCH  28  33
ENDBRANCH  24  25
ENDBRANCH  23  24
ENDBRANCH   1  23
TORSDOF 8
ENDMDL
MODEL 3
REMARK VINA RESULT:      -9.9      2.706     11.058
REMARK  8 active torsions:
REMARK  status: ('A' for Active; 'I' for Inactive)
REMARK    1  A    between atoms: O_2  and  C_3 
REMARK    2  A    between atoms: C_4  and  O_5 
REMARK    3  A    between atoms: C_8  and  C_9 
REMARK    4  A    between atoms: C_9  and  C_10 
REMARK    5  A    between atoms: C_10  and  C_11 
REMARK    6  A    between atoms: C_13  and  N_14 
REMARK       I    between atoms: N_14  and  C_15 
REMARK    7  A    between atoms: C_15  and  C_16 
REMARK    8  A    between atoms: C_20  and  C_21 
ROOT
HETATM    1  C   UNL     1       7.276  28.324  55.121  1.00  0.00     0.140 A 
HETATM    2  N   UNL     1       7.703  28.530  56.350  1.00  0.00    -0.046 NA
HETATM    3  C   UNL     1       6.831  29.465  56.846  1.00  0.00     0.747 A 
HETATM    4  N   UNL     1       5.876  29.826  55.991  1.00  0.00     0.020 NA
HETATM    5  N   UNL     1       6.172  29.098  54.911  1.00  0.00    -0.248 N 
HETATM    6  H   UNL     1       5.601  29.191  54.078  1.00  0.00     0.191 HD
ENDROOT
BRANCH   3   7
HETATM    7  N   UNL     1       7.039  29.934  58.103  1.00  0.00    -0.149 N 
HETATM    8  C   UNL     1       8.226  30.414  58.592  1.00  0.00     0.290 C 
HETATM    9  O   UNL     1       9.280  30.566  57.984  1.00  0.00    -0.265 OA
HETATM   10  H   UNL     1       6.266  29.850  58.750  1.00  0.00     0.188 HD
BRANCH   8  11
HETATM   11  C   UNL     1       8.132  30.724  60.032  1.00  0.00     0.147 A 
HETATM   12  N   UNL     1       8.970  30.191  60.943  1.00  0.00    -0.169 NA
HETATM   13  N   UNL     1       8.562  30.731  62.107  1.00  0.00    -0.277 N 
HETATM   14  H   UNL     1       9.038  30.445  62.956  1.00  0.00     0.189 HD
HETATM   15  C   UNL     1       7.532  31.629  61.993  1.00  0.00     0.063 A 
HETATM   16  C   UNL     1       7.213  31.611  60.649  1.00  0.00     0.071 A 
BRANCH  15  17
HETATM   17  C   UNL     1       6.964  32.383  63.113  1.00  0.00    -0.008 A 
HETATM   18  C   UNL     1       5.578  32.498  63.292  1.00  0.00     0.014 A 
HETATM   19  C   UNL     1       5.053  33.203  64.380  1.00  0.00     0.001 A 
HETATM   20  C   UNL     1       5.905  33.801  65.305  1.00  0.00     0.000 A 
HETATM   21  C   UNL     1       7.283  33.694  65.143  1.00  0.00     0.001 A 
HETATM   22  C   UNL     1       7.808  32.990  64.055  1.00  0.00     0.014 A 
ENDBRANCH  15  17
ENDBRANCH   8  11
ENDBRANCH   3   7
BRANCH   1  23
HETATM   23  C   UNL     1       7.863  27.470  54.057  1.00  0.00     0.085 C 
BRANCH  23  24
HETATM   24  C   UNL     1       6.975  26.278  53.695  1.00  0.00     0.046 C 
BRANCH  24  25
HETATM   25  C   UNL     1       7.519  25.009  54.311  1.00  0.00    -0.055 A 
HETATM   26  C   UNL     1       7.917  23.937  53.499  1.00  0.00     0.046 A 
HETATM   27  C   UNL     1       8.489  22.788  54.060  1.00  0.00     0.102 A 
HETATM   28  C   UNL     1       8.678  22.716  55.453  1.00  0.00     0.101 A 
HETATM   29  C   UNL     1       8.258  23.775  56.265  1.00  0.00     0.040 A 
HETATM   30  C   UNL     1       7.686  24.915  55.696  1.00  0.00     0.010 A 
BRANCH  27  31
HETATM   31  O   UNL     1       8.920  21.702  53.336  1.00  0.00    -0.353 OA
HETATM   32  C   UNL     1       7.962  20.709  53.005  1.00  0.00     0.210 C 
ENDBRANCH  27  31
BRANCH  28  33
HETATM   33  O   UNL     1       9.253  21.566  55.935  1.00  0.00    -0.353 OA
HETATM   34  C   UNL     1       8.450  20.762  56.788  1.00  0.00     0.210 C 
ENDBRANCH  28  33
ENDBRANCH  24  25
ENDBRANCH  23  24
ENDBRANCH   1  23
TORSDOF 8
ENDMDL
MODEL 4
REMARK VINA RESULT:      -9.7      1.567      2.176
REMARK  8 active torsions:
REMARK  status: ('A' for Active; 'I' for Inactive)
REMARK    1  A    between atoms: O_2  and  C_3 
REMARK    2  A    between atoms: C_4  and  O_5 
REMARK    3  A    between atoms: C_8  and  C_9 
REMARK    4  A    between atoms: C_9  and  C_10 
REMARK    5  A    between atoms: C_10  and  C_11 
REMARK    6  A    between atoms: C_13  and  N_14 
REMARK       I    between atoms: N_14  and  C_15 
REMARK    7  A    between atoms: C_15  and  C_16 
REMARK    8  A    between atoms: C_20  and  C_21 
ROOT
HETATM    1  C   UNL     1       8.032  30.529  59.281  1.00  0.00     0.140 A 
HETATM    2  N   UNL     1       8.188  29.313  58.799  1.00  0.00    -0.046 NA
HETATM    3  C   UNL     1       7.258  29.237  57.795  1.00  0.00     0.747 A 
HETATM    4  N   UNL     1       6.554  30.354  57.620  1.00  0.00     0.020 NA
HETATM    5  N   UNL     1       7.054  31.156  58.564  1.00  0.00    -0.248 N 
HETATM    6  H   UNL     1       6.678  32.091  58.671  1.00  0.00     0.191 HD
ENDROOT
BRANCH   3   7
HETATM    7  N   UNL     1       7.131  28.064  57.123  1.00  0.00    -0.149 N 
HETATM    8  C   UNL     1       7.509  27.840  55.825  1.00  0.00     0.290 C 
HETATM    9  O   UNL     1       8.075  28.618  55.065  1.00  0.00    -0.265 OA
HETATM   10  H   UNL     1       6.647  27.318  57.605  1.00  0.00     0.188 HD
BRANCH   8  11
HETATM   11  C   UNL     1       7.114  26.493  55.371  1.00  0.00     0.147 A 
HETATM   12  N   UNL     1       5.880  26.221  54.899  1.00  0.00    -0.169 NA
HETATM   13  N   UNL     1       5.939  24.912  54.588  1.00  0.00    -0.277 N 
HETATM   14  H   UNL     1       5.097  24.470  54.236  1.00  0.00     0.189 HD
HETATM   15  C   UNL     1       7.164  24.330  54.786  1.00  0.00     0.063 A 
HETATM   16  C   UNL     1       7.935  25.338  55.331  1.00  0.00     0.071 A 
BRANCH  15  17
HETATM   17  C   UNL     1       7.480  22.936  54.463  1.00  0.00    -0.008 A 
HETATM   18  C   UNL     1       7.688  22.519  53.140  1.00  0.00     0.014 A 
HETATM   19  C   UNL     1       8.011  21.189  52.851  1.00  0.00     0.001 A 
HETATM   20  C   UNL     1       8.131  20.258  53.880  1.00  0.00     0.000 A 
HETATM   21  C   UNL     1       7.931  20.657  55.199  1.00  0.00     0.001 A 
HETATM   22  C   UNL     1       7.608  21.985  55.487  1.00  0.00     0.014 A 
ENDBRANCH  15  17
ENDBRANCH   8  11
ENDBRANCH   3   7
BRANCH   1  23
HETATM   23  C   UNL     1       8.706  31.172  60.438  1.00  0.00     0.085 C 
BRANCH  23  24
HETATM   24  C   UNL     1       8.283  32.629  60.636  1.00  0.00     0.046 C 
BRANCH  24  25
HETATM   25  C   UNL     1       7.189  32.723  61.675  1.00  0.00    -0.055 A 
HETATM   26  C   UNL     1       7.507  32.836  63.037  1.00  0.00     0.046 A 
HETATM   27  C   UNL     1       6.500  32.995  63.997  1.00  0.00     0.102 A 
HETATM   28  C   UNL     1       5.154  33.059  63.588  1.00  0.00     0.101 A 
HETATM   29  C   UNL     1       4.836  32.922  62.232  1.00  0.00     0.040 A 
HETATM   30  C   UNL     1       5.847  32.759  61.283  1.00  0.00     0.010 A 
BRANCH  27  31
HETATM   31  O   UNL     1       6.727  33.129  65.345  1.00  0.00    -0.353 OA
HETATM   32  C   UNL     1       7.266  34.359  65.804  1.00  0.00     0.210 C 
ENDBRANCH  27  31
BRANCH  28  33
HETATM   33  O   UNL     1       4.219  33.227  64.579  1.00  0.00    -0.353 OA
HETATM   34  C   UNL     1       3.523  34.466  64.593  1.00  0.00     0.210 C 
ENDBRANCH  28  33
ENDBRANCH  24  25
ENDBRANCH  23  24
ENDBRANCH   1  23
TORSDOF 8
ENDMDL
MODEL 5
REMARK VINA RESULT:      -9.5      3.072     10.807
REMARK  8 active torsions:
REMARK  status: ('A' for Active; 'I' for Inactive)
REMARK    1  A    between atoms: O_2  and  C_3 
REMARK    2  A    between atoms: C_4  and  O_5 
REMARK    3  A    between atoms: C_8  and  C_9 
REMARK    4  A    between atoms: C_9  and  C_10 
REMARK    5  A    between atoms: C_10  and  C_11 
REMARK    6  A    between atoms: C_13  and  N_14 
REMARK       I    between atoms: N_14  and  C_15 
REMARK    7  A    between atoms: C_15  and  C_16 
REMARK    8  A    between atoms: C_20  and  C_21 
ROOT
HETATM    1  C   UNL     1       5.505  27.549  54.134  1.00  0.00     0.140 A 
HETATM    2  N   UNL     1       6.254  27.816  55.183  1.00  0.00    -0.046 NA
HETATM    3  C   UNL     1       5.621  28.879  55.775  1.00  0.00     0.747 A 
HETATM    4  N   UNL     1       4.507  29.262  55.154  1.00  0.00     0.020 NA
HETATM    5  N   UNL     1       4.449  28.414  54.124  1.00  0.00    -0.248 N 
HETATM    6  H   UNL     1       3.689  28.493  53.458  1.00  0.00     0.191 HD
ENDROOT
BRANCH   3   7
HETATM    7  N   UNL     1       6.188  29.432  56.878  1.00  0.00    -0.149 N 
HETATM    8  C   UNL     1       7.518  29.730  57.029  1.00  0.00     0.290 C 
HETATM    9  O   UNL     1       8.410  29.615  56.197  1.00  0.00    -0.265 OA
HETATM   10  H   UNL     1       5.585  29.564  57.678  1.00  0.00     0.188 HD
BRANCH   8  11
HETATM   11  C   UNL     1       7.813  30.204  58.395  1.00  0.00     0.147 A 
HETATM   12  N   UNL     1       8.902  29.803  59.080  1.00  0.00    -0.169 NA
HETATM   13  N   UNL     1       8.807  30.465  60.249  1.00  0.00    -0.277 N 
HETATM   14  H   UNL     1       9.517  30.292  60.952  1.00  0.00     0.189 HD
HETATM   15  C   UNL     1       7.736  31.317  60.339  1.00  0.00     0.063 A 
HETATM   16  C   UNL     1       7.055  31.134  59.151  1.00  0.00     0.071 A 
BRANCH  15  17
HETATM   17  C   UNL     1       7.463  32.183  61.489  1.00  0.00    -0.008 A 
HETATM   18  C   UNL     1       6.486  33.188  61.434  1.00  0.00     0.014 A 
HETATM   19  C   UNL     1       6.222  33.991  62.548  1.00  0.00     0.001 A 
HETATM   20  C   UNL     1       6.929  33.800  63.733  1.00  0.00     0.000 A 
HETATM   21  C   UNL     1       7.899  32.804  63.805  1.00  0.00     0.001 A 
HETATM   22  C   UNL     1       8.163  32.003  62.691  1.00  0.00     0.014 A 
ENDBRANCH  15  17
ENDBRANCH   8  11
ENDBRANCH   3   7
BRANCH   1  23
HETATM   23  C   UNL     1       5.721  26.547  53.058  1.00  0.00     0.085 C 
BRANCH  23  24
HETATM   24  C   UNL     1       5.230  25.149  53.441  1.00  0.00     0.046 C 
BRANCH  24  25
HETATM   25  C   UNL     1       6.394  24.275  53.847  1.00  0.00    -0.055 A 
HETATM   26  C   UNL     1       6.802  24.209  55.187  1.00  0.00     0.046 A 
HETATM   27  C   UNL     1       7.833  23.347  55.581  1.00  0.00     0.102 A 
HETATM   28  C   UNL     1       8.456  22.526  54.621  1.00  0.00     0.101 A 
HETATM   29  C   UNL     1       8.065  22.610  53.281  1.00  0.00     0.040 A 
HETATM   30  C   UNL     1       7.039  23.476  52.898  1.00  0.00     0.010 A 
BRANCH  27  31
HETATM   31  O   UNL     1       8.281  23.211  56.873  1.00  0.00    -0.353 OA
HETATM   32  C   UNL     1       8.821  24.359  57.508  1.00  0.00     0.210 C 
ENDBRANCH  27  31
BRANCH  28  33
HETATM   33  O   UNL     1       9.451  21.697  55.077  1.00  0.00    -0.353 OA
HETATM   34  C   UNL     1       9.120  20.322  55.216  1.00  0.00     0.210 C 
ENDBRANCH  28  33
ENDBRANCH  24  25
ENDBRANCH  23  24
ENDBRANCH   1  23
TORSDOF 8
ENDMDL
MODEL 6
REMARK VINA RESULT:      -9.4      3.577     10.612
REMARK  8 active torsions:
REMARK  status: ('A' for Active; 'I' for Inactive)
REMARK    1  A    between atoms: O_2  and  C_3 
REMARK    2  A    between atoms: C_4  and  O_5 
REMARK    3  A    between atoms: C_8  and  C_9 
REMARK    4  A    between atoms: C_9  and  C_10 
REMARK    5  A    between atoms: C_10  and  C_11 
REMARK    6  A    between atoms: C_13  and  N_14 
REMARK       I    between atoms: N_14  and  C_15 
REMARK    7  A    between atoms: C_15  and  C_16 
REMARK    8  A    between atoms: C_20  and  C_21 
ROOT
HETATM    1  C   UNL     1       5.362  26.469  52.953  1.00  0.00     0.140 A 
HETATM    2  N   UNL     1       5.799  27.019  54.067  1.00  0.00    -0.046 NA
HETATM    3  C   UNL     1       4.813  27.912  54.399  1.00  0.00     0.747 A 
HETATM    4  N   UNL     1       3.781  27.920  53.557  1.00  0.00     0.020 NA
HETATM    5  N   UNL     1       4.144  27.006  52.653  1.00  0.00    -0.248 N 
HETATM    6  H   UNL     1       3.533  26.817  51.867  1.00  0.00     0.191 HD
ENDROOT
BRANCH   3   7
HETATM    7  N   UNL     1       4.994  28.691  55.497  1.00  0.00    -0.149 N 
HETATM    8  C   UNL     1       4.882  30.057  55.536  1.00  0.00     0.290 C 
HETATM    9  O   UNL     1       4.545  30.806  54.627  1.00  0.00    -0.265 OA
HETATM   10  H   UNL     1       5.311  28.223  56.335  1.00  0.00     0.188 HD
BRANCH   8  11
HETATM   11  C   UNL     1       5.266  30.592  56.856  1.00  0.00     0.147 A 
HETATM   12  N   UNL     1       4.356  30.988  57.768  1.00  0.00    -0.169 NA
HETATM   13  N   UNL     1       5.104  31.386  58.814  1.00  0.00    -0.277 N 
HETATM   14  H   UNL     1       4.625  31.762  59.625  1.00  0.00     0.189 HD
HETATM   15  C   UNL     1       6.455  31.223  58.648  1.00  0.00     0.063 A 
HETATM   16  C   UNL     1       6.583  30.739  57.361  1.00  0.00     0.071 A 
BRANCH  15  17
HETATM   17  C   UNL     1       7.458  31.530  59.671  1.00  0.00    -0.008 A 
HETATM   18  C   UNL     1       7.105  31.688  61.019  1.00  0.00     0.014 A 
HETATM   19  C   UNL     1       8.079  31.958  61.987  1.00  0.00     0.001 A 
HETATM   20  C   UNL     1       9.417  32.073  61.621  1.00  0.00     0.000 A 
HETATM   21  C   UNL     1       9.784  31.917  60.287  1.00  0.00     0.001 A 
HETATM   22  C   UNL     1       8.812  31.647  59.321  1.00  0.00     0.014 A 
ENDBRANCH  15  17
ENDBRANCH   8  11
ENDBRANCH   3   7
BRANCH   1  23
HETATM   23  C   UNL     1       6.032  25.478  52.071  1.00  0.00     0.085 C 
BRANCH  23  24
HETATM   24  C   UNL     1       7.522  25.321  52.379  1.00  0.00     0.046 C 
BRANCH  24  25
HETATM   25  C   UNL     1       7.745  24.171  53.333  1.00  0.00    -0.055 A 
HETATM   26  C   UNL     1       7.938  24.408  54.702  1.00  0.00     0.046 A 
HETATM   27  C   UNL     1       8.073  23.344  55.602  1.00  0.00     0.102 A 
HETATM   28  C   UNL     1       7.998  22.020  55.128  1.00  0.00     0.101 A 
HETATM   29  C   UNL     1       7.829  21.784  53.759  1.00  0.00     0.040 A 
HETATM   30  C   UNL     1       7.700  22.852  52.870  1.00  0.00     0.010 A 
BRANCH  27  31
HETATM   31  O   UNL     1       8.249  23.489  56.957  1.00  0.00    -0.353 OA
HETATM   32  C   UNL     1       8.705  24.746  57.431  1.00  0.00     0.210 C 
ENDBRANCH  27  31
BRANCH  28  33
HETATM   33  O   UNL     1       8.127  21.025  56.065  1.00  0.00    -0.353 OA
HETATM   34  C   UNL     1       9.289  20.211  55.973  1.00  0.00     0.210 C 
ENDBRANCH  28  33
ENDBRANCH  24  25
ENDBRANCH  23  24
ENDBRANCH   1  23
TORSDOF 8
ENDMDL
MODEL 7
REMARK VINA RESULT:      -9.4      1.848      2.493
REMARK  8 active torsions:
REMARK  status: ('A' for Active; 'I' for Inactive)
REMARK    1  A    between atoms: O_2  and  C_3 
REMARK    2  A    between atoms: C_4  and  O_5 
REMARK    3  A    between atoms: C_8  and  C_9 
REMARK    4  A    between atoms: C_9  and  C_10 
REMARK    5  A    between atoms: C_10  and  C_11 
REMARK    6  A    between atoms: C_13  and  N_14 
REMARK       I    between atoms: N_14  and  C_15 
REMARK    7  A    between atoms: C_15  and  C_16 
REMARK    8  A    between atoms: C_20  and  C_21 
ROOT
HETATM    1  C   UNL     1       5.813  30.532  58.240  1.00  0.00     0.140 A 
HETATM    2  N   UNL     1       5.569  29.575  57.369  1.00  0.00    -0.046 NA
HETATM    3  C   UNL     1       6.694  28.791  57.421  1.00  0.00     0.747 A 
HETATM    4  N   UNL     1       7.605  29.207  58.299  1.00  0.00     0.020 NA
HETATM    5  N   UNL     1       7.035  30.304  58.805  1.00  0.00    -0.248 N 
HETATM    6  H   UNL     1       7.532  30.845  59.503  1.00  0.00     0.191 HD
ENDROOT
BRANCH   3   7
HETATM    7  N   UNL     1       6.775  27.726  56.583  1.00  0.00    -0.149 N 
HETATM    8  C   UNL     1       5.801  26.779  56.397  1.00  0.00     0.290 C 
HETATM    9  O   UNL     1       4.679  26.752  56.890  1.00  0.00    -0.265 OA
HETATM   10  H   UNL     1       7.661  27.585  56.117  1.00  0.00     0.188 HD
BRANCH   8  11
HETATM   11  C   UNL     1       6.266  25.694  55.511  1.00  0.00     0.147 A 
HETATM   12  N   UNL     1       6.349  25.838  54.173  1.00  0.00    -0.169 NA
HETATM   13  N   UNL     1       6.820  24.649  53.753  1.00  0.00    -0.277 N 
HETATM   14  H   UNL     1       6.936  24.511  52.755  1.00  0.00     0.189 HD
HETATM   15  C   UNL     1       7.095  23.755  54.755  1.00  0.00     0.063 A 
HETATM   16  C   UNL     1       6.706  24.407  55.908  1.00  0.00     0.071 A 
BRANCH  15  17
HETATM   17  C   UNL     1       7.670  22.424  54.541  1.00  0.00    -0.008 A 
HETATM   18  C   UNL     1       7.991  21.582  55.616  1.00  0.00     0.014 A 
HETATM   19  C   UNL     1       8.517  20.306  55.393  1.00  0.00     0.001 A 
HETATM   20  C   UNL     1       8.728  19.852  54.093  1.00  0.00     0.000 A 
HETATM   21  C   UNL     1       8.412  20.674  53.015  1.00  0.00     0.001 A 
HETATM   22  C   UNL     1       7.887  21.950  53.238  1.00  0.00     0.014 A 
ENDBRANCH  15  17
ENDBRANCH   8  11
ENDBRANCH   3   7
BRANCH   1  23
HETATM   23  C   UNL     1       4.995  31.727  58.573  1.00  0.00     0.085 C 
BRANCH  23  24
HETATM   24  C   UNL     1       5.818  32.854  59.201  1.00  0.00     0.046 C 
BRANCH  24  25
HETATM   25  C   UNL     1       5.595  32.899  60.695  1.00  0.00    -0.055 A 
HETATM   26  C   UNL     1       4.308  33.091  61.218  1.00  0.00     0.046 A 
HETATM   27  C   UNL     1       4.084  33.062  62.600  1.00  0.00     0.102 A 
HETATM   28  C   UNL     1       5.162  32.822  63.473  1.00  0.00     0.101 A 
HETATM   29  C   UNL     1       6.450  32.654  62.952  1.00  0.00     0.040 A 
HETATM   30  C   UNL     1       6.663  32.688  61.573  1.00  0.00     0.010 A 
BRANCH  27  31
HETATM   31  O   UNL     1       2.855  33.226  63.192  1.00  0.00    -0.353 OA
HETATM   32  C   UNL     1       2.027  34.275  62.714  1.00  0.00     0.210 C 
ENDBRANCH  27  31
BRANCH  28  33
HETATM   33  O   UNL     1       4.871  32.796  64.814  1.00  0.00    -0.353 OA
HETATM   34  C   UNL     1       5.361  33.879  65.593  1.00  0.00     0.210 C 
ENDBRANCH  28  33
ENDBRANCH  24  25
ENDBRANCH  23  24
ENDBRANCH   1  23
TORSDOF 8
ENDMDL
MODEL 8
REMARK VINA RESULT:      -9.3      2.870      3.571
REMARK  8 active torsions:
REMARK  status: ('A' for Active; 'I' for Inactive)
REMARK    1  A    between atoms: O_2  and  C_3 
REMARK    2  A    between atoms: C_4  and  O_5 
REMARK    3  A    between atoms: C_8  and  C_9 
REMARK    4  A    between atoms: C_9  and  C_10 
REMARK    5  A    between atoms: C_10  and  C_11 
REMARK    6  A    between atoms: C_13  and  N_14 
REMARK       I    between atoms: N_14  and  C_15 
REMARK    7  A    between atoms: C_15  and  C_16 
REMARK    8  A    between atoms: C_20  and  C_21 
ROOT
HETATM    1  C   UNL     1       8.992  30.530  59.547  1.00  0.00     0.140 A 
HETATM    2  N   UNL     1       8.296  29.631  58.883  1.00  0.00    -0.046 NA
HETATM    3  C   UNL     1       8.792  29.710  57.607  1.00  0.00     0.747 A 
HETATM    4  N   UNL     1       9.776  30.596  57.460  1.00  0.00     0.020 NA
HETATM    5  N   UNL     1       9.888  31.103  58.690  1.00  0.00    -0.248 N 
HETATM    6  H   UNL     1      10.569  31.833  58.866  1.00  0.00     0.191 HD
ENDROOT
BRANCH   3   7
HETATM    7  N   UNL     1       8.233  28.926  56.650  1.00  0.00    -0.149 N 
HETATM    8  C   UNL     1       8.025  27.574  56.743  1.00  0.00     0.290 C 
HETATM    9  O   UNL     1       8.240  26.849  57.707  1.00  0.00    -0.265 OA
HETATM   10  H   UNL     1       8.023  29.372  55.767  1.00  0.00     0.188 HD
BRANCH   8  11
HETATM   11  C   UNL     1       7.513  27.018  55.476  1.00  0.00     0.147 A 
HETATM   12  N   UNL     1       7.502  25.694  55.220  1.00  0.00    -0.169 NA
HETATM   13  N   UNL     1       6.954  25.611  53.993  1.00  0.00    -0.277 N 
HETATM   14  H   UNL     1       6.871  24.692  53.571  1.00  0.00     0.189 HD
HETATM   15  C   UNL     1       6.561  26.811  53.458  1.00  0.00     0.063 A 
HETATM   16  C   UNL     1       6.950  27.745  54.397  1.00  0.00     0.071 A 
BRANCH  15  17
HETATM   17  C   UNL     1       5.889  26.959  52.164  1.00  0.00    -0.008 A 
HETATM   18  C   UNL     1       5.493  25.844  51.411  1.00  0.00     0.014 A 
HETATM   19  C   UNL     1       4.832  26.004  50.189  1.00  0.00     0.001 A 
HETATM   20  C   UNL     1       4.557  27.279  49.703  1.00  0.00     0.000 A 
HETATM   21  C   UNL     1       4.941  28.397  50.439  1.00  0.00     0.001 A 
HETATM   22  C   UNL     1       5.602  28.237  51.660  1.00  0.00     0.014 A 
ENDBRANCH  15  17
ENDBRANCH   8  11
ENDBRANCH   3   7
BRANCH   1  23
HETATM   23  C   UNL     1       8.858  30.963  60.962  1.00  0.00     0.085 C 
BRANCH  23  24
HETATM   24  C   UNL     1       8.549  32.454  61.100  1.00  0.00     0.046 C 
BRANCH  24  25
HETATM   25  C   UNL     1       7.506  32.679  62.171  1.00  0.00    -0.055 A 
HETATM   26  C   UNL     1       6.141  32.561  61.871  1.00  0.00     0.046 A 
HETATM   27  C   UNL     1       5.173  32.697  62.874  1.00  0.00     0.102 A 
HETATM   28  C   UNL     1       5.578  32.941  64.201  1.00  0.00     0.101 A 
HETATM   29  C   UNL     1       6.938  33.083  64.495  1.00  0.00     0.040 A 
HETATM   30  C   UNL     1       7.895  32.949  63.487  1.00  0.00     0.010 A 
BRANCH  27  31
HETATM   31  O   UNL     1       3.820  32.580  62.669  1.00  0.00    -0.353 OA
HETATM   32  C   UNL     1       3.254  33.291  61.579  1.00  0.00     0.210 C 
ENDBRANCH  27  31
BRANCH  28  33
HETATM   33  O   UNL     1       4.579  33.053  65.136  1.00  0.00    -0.353 OA
HETATM   34  C   UNL     1       4.722  34.088  66.099  1.00  0.00     0.210 C 
ENDBRANCH  28  33
ENDBRANCH  24  25
ENDBRANCH  23  24
ENDBRANCH   1  23
TORSDOF 8
ENDMDL
MODEL 9
REMARK VINA RESULT:      -9.2      2.758     11.626
REMARK  8 active torsions:
REMARK  status: ('A' for Active; 'I' for Inactive)
REMARK    1  A    between atoms: O_2  and  C_3 
REMARK    2  A    between atoms: C_4  and  O_5 
REMARK    3  A    between atoms: C_8  and  C_9 
REMARK    4  A    between atoms: C_9  and  C_10 
REMARK    5  A    between atoms: C_10  and  C_11 
REMARK    6  A    between atoms: C_13  and  N_14 
REMARK       I    between atoms: N_14  and  C_15 
REMARK    7  A    between atoms: C_15  and  C_16 
REMARK    8  A    between atoms: C_20  and  C_21 
ROOT
HETATM    1  C   UNL     1       5.668  27.909  56.256  1.00  0.00     0.140 A 
HETATM    2  N   UNL     1       5.293  28.536  57.352  1.00  0.00    -0.046 NA
HETATM    3  C   UNL     1       5.886  29.768  57.243  1.00  0.00     0.747 A 
HETATM    4  N   UNL     1       6.587  29.936  56.123  1.00  0.00     0.020 NA
HETATM    5  N   UNL     1       6.439  28.757  55.514  1.00  0.00    -0.248 N 
HETATM    6  H   UNL     1       6.897  28.597  54.624  1.00  0.00     0.191 HD
ENDROOT
BRANCH   3   7
HETATM    7  N   UNL     1       5.729  30.649  58.263  1.00  0.00    -0.149 N 
HETATM    8  C   UNL     1       6.711  31.451  58.786  1.00  0.00     0.290 C 
HETATM    9  O   UNL     1       7.868  31.566  58.400  1.00  0.00    -0.265 OA
HETATM   10  H   UNL     1       4.827  30.655  58.720  1.00  0.00     0.188 HD
BRANCH   8  11
HETATM   11  C   UNL     1       6.230  32.194  59.966  1.00  0.00     0.147 A 
HETATM   12  N   UNL     1       5.134  32.979  59.929  1.00  0.00    -0.169 NA
HETATM   13  N   UNL     1       5.036  33.450  61.187  1.00  0.00    -0.277 N 
HETATM   14  H   UNL     1       4.286  34.101  61.393  1.00  0.00     0.189 HD
HETATM   15  C   UNL     1       5.983  32.971  62.054  1.00  0.00     0.063 A 
HETATM   16  C   UNL     1       6.794  32.177  61.267  1.00  0.00     0.071 A 
BRANCH  15  17
HETATM   17  C   UNL     1       6.038  33.296  63.482  1.00  0.00    -0.008 A 
HETATM   18  C   UNL     1       7.259  33.515  64.138  1.00  0.00     0.014 A 
HETATM   19  C   UNL     1       7.292  33.847  65.496  1.00  0.00     0.001 A 
HETATM   20  C   UNL     1       6.106  33.968  66.217  1.00  0.00     0.000 A 
HETATM   21  C   UNL     1       4.887  33.757  65.580  1.00  0.00     0.001 A 
HETATM   22  C   UNL     1       4.854  33.424  64.223  1.00  0.00     0.014 A 
ENDBRANCH  15  17
ENDBRANCH   8  11
ENDBRANCH   3   7
BRANCH   1  23
HETATM   23  C   UNL     1       5.405  26.507  55.842  1.00  0.00     0.085 C 
BRANCH  23  24
HETATM   24  C   UNL     1       5.658  26.270  54.352  1.00  0.00     0.046 C 
BRANCH  24  25
HETATM   25  C   UNL     1       6.554  25.068  54.154  1.00  0.00    -0.055 A 
HETATM   26  C   UNL     1       6.872  24.232  55.234  1.00  0.00     0.046 A 
HETATM   27  C   UNL     1       7.642  23.078  55.044  1.00  0.00     0.102 A 
HETATM   28  C   UNL     1       8.087  22.746  53.750  1.00  0.00     0.101 A 
HETATM   29  C   UNL     1       7.790  23.593  52.677  1.00  0.00     0.040 A 
HETATM   30  C   UNL     1       7.025  24.744  52.878  1.00  0.00     0.010 A 
BRANCH  27  31
HETATM   31  O   UNL     1       7.984  22.199  56.043  1.00  0.00    -0.353 OA
HETATM   32  C   UNL     1       8.370  22.743  57.295  1.00  0.00     0.210 C 
ENDBRANCH  27  31
BRANCH  28  33
HETATM   33  O   UNL     1       8.828  21.596  53.632  1.00  0.00    -0.353 OA
HETATM   34  C   UNL     1       8.267  20.556  52.842  1.00  0.00     0.210 C 
ENDBRANCH  28  33
ENDBRANCH  24  25
ENDBRANCH  23  24
ENDBRANCH   1  23
TORSDOF 8
ENDMDL
MODEL 10
REMARK VINA RESULT:      -9.2      2.058      2.759
REMARK  8 active torsions:
REMARK  status: ('A' for Active; 'I' for Inactive)
REMARK    1  A    between atoms: O_2  and  C_3 
REMARK    2  A    between atoms: C_4  and  O_5 
REMARK    3  A    between atoms: C_8  and  C_9 
REMARK    4  A    between atoms: C_9  and  C_10 
REMARK    5  A    between atoms: C_10  and  C_11 
REMARK    6  A    between atoms: C_13  and  N_14 
REMARK       I    between atoms: N_14  and  C_15 
REMARK    7  A    between atoms: C_15  and  C_16 
REMARK    8  A    between atoms: C_20  and  C_21 
ROOT
HETATM    1  C   UNL     1       8.560  31.208  60.972  1.00  0.00     0.140 A 
HETATM    2  N   UNL     1       8.351  30.215  60.132  1.00  0.00    -0.046 NA
HETATM    3  C   UNL     1       8.647  30.755  58.907  1.00  0.00     0.747 A 
HETATM    4  N   UNL     1       9.051  32.023  58.955  1.00  0.00     0.020 NA
HETATM    5  N   UNL     1       8.990  32.292  60.262  1.00  0.00    -0.248 N 
HETATM    6  H   UNL     1       9.233  33.220  60.589  1.00  0.00     0.191 HD
ENDROOT
BRANCH   3   7
HETATM    7  N   UNL     1       8.477  29.980  57.805  1.00  0.00    -0.149 N 
HETATM    8  C   UNL     1       7.279  29.502  57.340  1.00  0.00     0.290 C 
HETATM    9  O   UNL     1       6.159  29.730  57.783  1.00  0.00    -0.265 OA
HETATM   10  H   UNL     1       9.318  29.672  57.336  1.00  0.00     0.188 HD
BRANCH   8  11
HETATM   11  C   UNL     1       7.469  28.591  56.196  1.00  0.00     0.147 A 
HETATM   12  N   UNL     1       7.942  29.013  55.006  1.00  0.00    -0.169 NA
HETATM   13  N   UNL     1       7.977  27.893  54.259  1.00  0.00    -0.277 N 
HETATM   14  H   UNL     1       8.277  27.975  53.294  1.00  0.00     0.189 HD
HETATM   15  C   UNL     1       7.597  26.753  54.919  1.00  0.00     0.063 A 
HETATM   16  C   UNL     1       7.227  27.194  56.175  1.00  0.00     0.071 A 
BRANCH  15  17
HETATM   17  C   UNL     1       7.611  25.412  54.329  1.00  0.00    -0.008 A 
HETATM   18  C   UNL     1       7.404  24.265  55.109  1.00  0.00     0.014 A 
HETATM   19  C   UNL     1       7.398  22.994  54.525  1.00  0.00     0.001 A 
HETATM   20  C   UNL     1       7.597  22.851  53.154  1.00  0.00     0.000 A 
HETATM   21  C   UNL     1       7.801  23.980  52.365  1.00  0.00     0.001 A 
HETATM   22  C   UNL     1       7.808  25.250  52.949  1.00  0.00     0.014 A 
ENDBRANCH  15  17
ENDBRANCH   8  11
ENDBRANCH   3   7
BRANCH   1  23
HETATM   23  C   UNL     1       8.335  31.258  62.440  1.00  0.00     0.085 C 
BRANCH  23  24
HETATM   24  C   UNL     1       8.490  32.666  63.017  1.00  0.00     0.046 C 
BRANCH  24  25
HETATM   25  C   UNL     1       7.134  33.284  63.269  1.00  0.00    -0.055 A 
HETATM   26  C   UNL     1       6.495  34.033  62.270  1.00  0.00     0.046 A 
HETATM   27  C   UNL     1       5.208  34.547  62.472  1.00  0.00     0.102 A 
HETATM   28  C   UNL     1       4.543  34.296  63.687  1.00  0.00     0.101 A 
HETATM   29  C   UNL     1       5.190  33.570  64.693  1.00  0.00     0.040 A 
HETATM   30  C   UNL     1       6.475  33.064  64.483  1.00  0.00     0.010 A 
BRANCH  27  31
HETATM   31  O   UNL     1       4.507  35.275  61.541  1.00  0.00    -0.353 OA
HETATM   32  C   UNL     1       4.801  36.659  61.429  1.00  0.00     0.210 C 
ENDBRANCH  27  31
BRANCH  28  33
HETATM   33  O   UNL     1       3.280  34.819  63.815  1.00  0.00    -0.353 OA
HETATM   34  C   UNL     1       2.207  34.013  63.349  1.00  0.00     0.210 C 
ENDBRANCH  28  33
ENDBRANCH  24  25
ENDBRANCH  23  24
ENDBRANCH   1  23
TORSDOF 8
ENDMDL
