MODEL 1
REMARK VINA RESULT:      -8.5      0.000      0.000
REMARK  6 active torsions:
REMARK  status: ('A' for Active; 'I' for Inactive)
REMARK    1  A    between atoms: C_2  and  C_3 
REMARK    2  A    between atoms: C_3  and  O_4 
REMARK    3  A    between atoms: O_4  and  C_5 
REMARK    4  A    between atoms: C_6  and  O_7 
REMARK    5  A    between atoms: C_10  and  C_11 
REMARK    6  A    between atoms: C_25  and  O_26 
ROOT
HETATM    1  C   UNL     1       6.350  27.568  52.533  1.00  0.00     0.269 C 
HETATM    2  N   UNL     1       5.747  28.446  53.605  1.00  0.00    -0.061 N 
HETATM    3  H   UNL     1       5.964  29.418  53.361  1.00  0.00     0.278 HD
HETATM    4  H   UNL     1       6.216  28.244  54.495  1.00  0.00     0.278 HD
HETATM    5  C   UNL     1       4.252  28.315  53.773  1.00  0.00     0.238 C 
HETATM    6  C   UNL     1       3.516  28.718  52.482  1.00  0.00     0.069 C 
HETATM    7  C   UNL     1       4.160  28.075  51.302  1.00  0.00    -0.019 A 
HETATM    8  C   UNL     1       5.439  27.555  51.355  1.00  0.00     0.052 A 
HETATM    9  N   UNL     1       5.736  27.031  50.122  1.00  0.00    -0.356 N 
HETATM   10  H   UNL     1       6.591  26.560  49.852  1.00  0.00     0.166 HD
HETATM   11  C   UNL     1       4.676  27.239  49.265  1.00  0.00     0.043 A 
HETATM   12  C   UNL     1       3.676  27.900  49.980  1.00  0.00     0.002 A 
HETATM   13  C   UNL     1       4.529  26.897  47.917  1.00  0.00     0.033 A 
HETATM   14  C   UNL     1       3.337  27.261  47.275  1.00  0.00     0.039 A 
HETATM   15  C   UNL     1       2.327  27.937  47.957  1.00  0.00     0.069 A 
HETATM   16  C   UNL     1       2.487  28.247  49.314  1.00  0.00     0.051 A 
ENDROOT
BRANCH   1  17
HETATM   17  C   UNL     1       6.730  26.213  53.094  1.00  0.00    -0.019 A 
HETATM   18  C   UNL     1       6.429  25.936  54.436  1.00  0.00     0.049 A 
HETATM   19  C   UNL     1       6.723  24.687  54.988  1.00  0.00     0.102 A 
HETATM   20  C   UNL     1       7.295  23.668  54.218  1.00  0.00     0.102 A 
HETATM   21  C   UNL     1       7.590  23.934  52.881  1.00  0.00     0.040 A 
HETATM   22  C   UNL     1       7.308  25.191  52.322  1.00  0.00     0.012 A 
BRANCH  19  23
HETATM   23  O   UNL     1       6.344  24.459  56.286  1.00  0.00    -0.353 OA
HETATM   24  C   UNL     1       5.366  25.416  56.694  1.00  0.00     0.210 C 
ENDBRANCH  19  23
BRANCH  20  25
HETATM   25  O   UNL     1       7.515  22.481  54.859  1.00  0.00    -0.348 OA
BRANCH  25  26
HETATM   26  C   UNL     1       8.828  21.919  54.798  1.00  0.00     0.175 C 
BRANCH  26  27
HETATM   27  C   UNL     1       8.692  20.460  54.374  1.00  0.00     0.022 C 
HETATM   28  C   UNL     1       8.361  20.325  52.898  1.00  0.00     0.007 C 
ENDBRANCH  26  27
ENDBRANCH  25  26
ENDBRANCH  20  25
ENDBRANCH   1  17
BRANCH  15  29
HETATM   29  O   UNL     1       1.135  28.349  47.424  1.00  0.00    -0.356 OA
HETATM   30  C   UNL     1       0.481  27.450  46.535  1.00  0.00     0.210 C 
ENDBRANCH  15  29
TORSDOF 6
ENDMDL
MODEL 2
REMARK VINA RESULT:      -8.4      4.378      8.271
REMARK  6 active torsions:
REMARK  status: ('A' for Active; 'I' for Inactive)
REMARK    1  A    between atoms: C_2  and  C_3 
REMARK    2  A    between atoms: C_3  and  O_4 
REMARK    3  A    between atoms: O_4  and  C_5 
REMARK    4  A    between atoms: C_6  and  O_7 
REMARK    5  A    between atoms: C_10  and  C_11 
REMARK    6  A    between atoms: C_25  and  O_26 
ROOT
HETATM    1  C   UNL     1       5.570  27.113  55.731  1.00  0.00     0.269 C 
HETATM    2  N   UNL     1       4.236  27.475  56.340  1.00  0.00    -0.061 N 
HETATM    3  H   UNL     1       4.204  27.057  57.276  1.00  0.00     0.278 HD
HETATM    4  H   UNL     1       3.493  27.036  55.786  1.00  0.00     0.278 HD
HETATM    5  C   UNL     1       3.970  28.957  56.467  1.00  0.00     0.238 C 
HETATM    6  C   UNL     1       5.011  29.624  57.385  1.00  0.00     0.069 C 
HETATM    7  C   UNL     1       6.383  29.175  57.019  1.00  0.00    -0.019 A 
HETATM    8  C   UNL     1       6.608  28.041  56.262  1.00  0.00     0.052 A 
HETATM    9  N   UNL     1       7.962  27.905  56.092  1.00  0.00    -0.356 N 
HETATM   10  H   UNL     1       8.440  27.183  55.564  1.00  0.00     0.166 HD
HETATM   11  C   UNL     1       8.615  28.919  56.761  1.00  0.00     0.043 A 
HETATM   12  C   UNL     1       7.645  29.726  57.358  1.00  0.00     0.002 A 
HETATM   13  C   UNL     1       9.984  29.179  56.885  1.00  0.00     0.033 A 
HETATM   14  C   UNL     1      10.374  30.280  57.660  1.00  0.00     0.039 A 
HETATM   15  C   UNL     1       9.430  31.095  58.283  1.00  0.00     0.069 A 
HETATM   16  C   UNL     1       8.064  30.829  58.124  1.00  0.00     0.051 A 
ENDROOT
BRANCH   1  17
HETATM   17  C   UNL     1       5.470  27.026  54.221  1.00  0.00    -0.019 A 
HETATM   18  C   UNL     1       5.676  28.192  53.468  1.00  0.00     0.049 A 
HETATM   19  C   UNL     1       5.632  28.154  52.073  1.00  0.00     0.102 A 
HETATM   20  C   UNL     1       5.413  26.956  51.384  1.00  0.00     0.102 A 
HETATM   21  C   UNL     1       5.214  25.791  52.126  1.00  0.00     0.040 A 
HETATM   22  C   UNL     1       5.245  25.824  53.530  1.00  0.00     0.012 A 
BRANCH  19  23
HETATM   23  O   UNL     1       5.907  29.314  51.395  1.00  0.00    -0.353 OA
HETATM   24  C   UNL     1       4.794  30.206  51.463  1.00  0.00     0.210 C 
ENDBRANCH  19  23
BRANCH  20  25
HETATM   25  O   UNL     1       5.416  27.036  50.019  1.00  0.00    -0.348 OA
BRANCH  25  26
HETATM   26  C   UNL     1       4.156  27.105  49.349  1.00  0.00     0.175 C 
BRANCH  26  27
HETATM   27  C   UNL     1       4.261  26.280  48.070  1.00  0.00     0.022 C 
HETATM   28  C   UNL     1       3.156  25.243  47.970  1.00  0.00     0.007 C 
ENDBRANCH  26  27
ENDBRANCH  25  26
ENDBRANCH  20  25
ENDBRANCH   1  17
BRANCH  15  29
HETATM   29  O   UNL     1       9.702  32.182  59.069  1.00  0.00    -0.356 OA
HETATM   30  C   UNL     1       8.962  32.304  60.280  1.00  0.00     0.210 C 
ENDBRANCH  15  29
TORSDOF 6
ENDMDL
MODEL 3
REMARK VINA RESULT:      -8.3      5.379      8.655
REMARK  6 active torsions:
REMARK  status: ('A' for Active; 'I' for Inactive)
REMARK    1  A    between atoms: C_2  and  C_3 
REMARK    2  A    between atoms: C_3  and  O_4 
REMARK    3  A    between atoms: O_4  and  C_5 
REMARK    4  A    between atoms: C_6  and  O_7 
REMARK    5  A    between atoms: C_10  and  C_11 
REMARK    6  A    between atoms: C_25  and  O_26 
ROOT
HETATM    1  C   UNL     1       8.311  29.295  55.860  1.00  0.00     0.269 C 
HETATM    2  N   UNL     1       9.811  29.434  55.737  1.00  0.00    -0.061 N 
HETATM    3  H   UNL     1       9.998  30.340  55.295  1.00  0.00     0.278 HD
HETATM    4  H   UNL     1      10.155  28.709  55.099  1.00  0.00     0.278 HD
HETATM    5  C   UNL     1      10.569  29.370  57.042  1.00  0.00     0.238 C 
HETATM    6  C   UNL     1      10.148  30.516  57.979  1.00  0.00     0.069 C 
HETATM    7  C   UNL     1       8.663  30.626  58.022  1.00  0.00    -0.019 A 
HETATM    8  C   UNL     1       7.855  30.057  57.057  1.00  0.00     0.052 A 
HETATM    9  N   UNL     1       6.550  30.325  57.382  1.00  0.00    -0.356 N 
HETATM   10  H   UNL     1       5.723  30.023  56.880  1.00  0.00     0.166 HD
HETATM   11  C   UNL     1       6.509  31.092  58.528  1.00  0.00     0.043 A 
HETATM   12  C   UNL     1       7.824  31.301  58.945  1.00  0.00     0.002 A 
HETATM   13  C   UNL     1       5.412  31.616  59.220  1.00  0.00     0.033 A 
HETATM   14  C   UNL     1       5.667  32.396  60.357  1.00  0.00     0.039 A 
HETATM   15  C   UNL     1       6.970  32.637  60.789  1.00  0.00     0.069 A 
HETATM   16  C   UNL     1       8.052  32.081  60.094  1.00  0.00     0.051 A 
ENDROOT
BRANCH   1  17
HETATM   17  C   UNL     1       7.896  27.839  55.803  1.00  0.00    -0.019 A 
HETATM   18  C   UNL     1       7.461  27.315  54.576  1.00  0.00     0.049 A 
HETATM   19  C   UNL     1       7.105  25.969  54.464  1.00  0.00     0.102 A 
HETATM   20  C   UNL     1       7.199  25.098  55.556  1.00  0.00     0.102 A 
HETATM   21  C   UNL     1       7.637  25.611  56.777  1.00  0.00     0.040 A 
HETATM   22  C   UNL     1       7.985  26.966  56.900  1.00  0.00     0.012 A 
BRANCH  19  23
HETATM   23  O   UNL     1       6.752  25.505  53.223  1.00  0.00    -0.353 OA
HETATM   24  C   UNL     1       7.905  25.382  52.391  1.00  0.00     0.210 C 
ENDBRANCH  19  23
BRANCH  20  25
HETATM   25  O   UNL     1       6.847  23.798  55.321  1.00  0.00    -0.348 OA
BRANCH  25  26
HETATM   26  C   UNL     1       7.749  22.773  55.741  1.00  0.00     0.175 C 
BRANCH  26  27
HETATM   27  C   UNL     1       8.666  22.448  54.566  1.00  0.00     0.022 C 
HETATM   28  C   UNL     1       7.907  21.823  53.409  1.00  0.00     0.007 C 
ENDBRANCH  26  27
ENDBRANCH  25  26
ENDBRANCH  20  25
ENDBRANCH   1  17
BRANCH  15  29
HETATM   29  O   UNL     1       7.329  33.392  61.874  1.00  0.00    -0.356 OA
HETATM   30  C   UNL     1       7.815  32.691  63.014  1.00  0.00     0.210 C 
ENDBRANCH  15  29
TORSDOF 6
ENDMDL
MODEL 4
REMARK VINA RESULT:      -8.2      2.653      4.394
REMARK  6 active torsions:
REMARK  status: ('A' for Active; 'I' for Inactive)
REMARK    1  A    between atoms: C_2  and  C_3 
REMARK    2  A    between atoms: C_3  and  O_4 
REMARK    3  A    between atoms: O_4  and  C_5 
REMARK    4  A    between atoms: C_6  and  O_7 
REMARK    5  A    between atoms: C_10  and  C_11 
REMARK    6  A    between atoms: C_25  and  O_26 
ROOT
HETATM    1  C   UNL     1       4.707  25.501  52.940  1.00  0.00     0.269 C 
HETATM    2  N   UNL     1       4.617  25.339  51.440  1.00  0.00    -0.061 N 
HETATM    3  H   UNL     1       3.622  25.329  51.194  1.00  0.00     0.278 HD
HETATM    4  H   UNL     1       5.002  24.423  51.186  1.00  0.00     0.278 HD
HETATM    5  C   UNL     1       5.299  26.421  50.636  1.00  0.00     0.238 C 
HETATM    6  C   UNL     1       4.666  27.796  50.917  1.00  0.00     0.069 C 
HETATM    7  C   UNL     1       4.500  27.995  52.385  1.00  0.00    -0.019 A 
HETATM    8  C   UNL     1       4.532  26.941  53.278  1.00  0.00     0.052 A 
HETATM    9  N   UNL     1       4.360  27.450  54.541  1.00  0.00    -0.356 N 
HETATM   10  H   UNL     1       4.358  26.929  55.410  1.00  0.00     0.166 HD
HETATM   11  C   UNL     1       4.182  28.815  54.468  1.00  0.00     0.043 A 
HETATM   12  C   UNL     1       4.258  29.181  53.123  1.00  0.00     0.002 A 
HETATM   13  C   UNL     1       3.956  29.748  55.486  1.00  0.00     0.033 A 
HETATM   14  C   UNL     1       3.781  31.089  55.117  1.00  0.00     0.039 A 
HETATM   15  C   UNL     1       3.834  31.484  53.781  1.00  0.00     0.069 A 
HETATM   16  C   UNL     1       4.085  30.535  52.782  1.00  0.00     0.051 A 
ENDROOT
BRANCH   1  17
HETATM   17  C   UNL     1       5.959  24.841  53.481  1.00  0.00    -0.019 A 
HETATM   18  C   UNL     1       6.159  24.821  54.870  1.00  0.00     0.049 A 
HETATM   19  C   UNL     1       7.277  24.191  55.419  1.00  0.00     0.102 A 
HETATM   20  C   UNL     1       8.213  23.535  54.610  1.00  0.00     0.102 A 
HETATM   21  C   UNL     1       8.017  23.545  53.229  1.00  0.00     0.040 A 
HETATM   22  C   UNL     1       6.901  24.188  52.669  1.00  0.00     0.012 A 
BRANCH  19  23
HETATM   23  O   UNL     1       7.378  24.150  56.786  1.00  0.00    -0.353 OA
HETATM   24  C   UNL     1       7.225  25.459  57.335  1.00  0.00     0.210 C 
ENDBRANCH  19  23
BRANCH  20  25
HETATM   25  O   UNL     1       9.254  22.933  55.261  1.00  0.00    -0.348 OA
BRANCH  25  26
HETATM   26  C   UNL     1       9.487  21.545  55.012  1.00  0.00     0.175 C 
BRANCH  26  27
HETATM   27  C   UNL     1       8.992  20.764  56.226  1.00  0.00     0.022 C 
HETATM   28  C   UNL     1       7.532  20.368  56.090  1.00  0.00     0.007 C 
ENDBRANCH  26  27
ENDBRANCH  25  26
ENDBRANCH  20  25
ENDBRANCH   1  17
BRANCH  15  29
HETATM   29  O   UNL     1       3.663  32.759  53.314  1.00  0.00    -0.356 OA
HETATM   30  C   UNL     1       4.666  33.711  53.653  1.00  0.00     0.210 C 
ENDBRANCH  15  29
TORSDOF 6
ENDMDL
MODEL 5
REMARK VINA RESULT:      -7.9      1.747      2.283
REMARK  6 active torsions:
REMARK  status: ('A' for Active; 'I' for Inactive)
REMARK    1  A    between atoms: C_2  and  C_3 
REMARK    2  A    between atoms: C_3  and  O_4 
REMARK    3  A    between atoms: O_4  and  C_5 
REMARK    4  A    between atoms: C_6  and  O_7 
REMARK    5  A    between atoms: C_10  and  C_11 
REMARK    6  A    between atoms: C_25  and  O_26 
ROOT
HETATM    1  C   UNL     1       5.780  28.197  51.507  1.00  0.00     0.269 C 
HETATM    2  N   UNL     1       5.324  29.520  52.079  1.00  0.00    -0.061 N 
HETATM    3  H   UNL     1       5.623  30.253  51.428  1.00  0.00     0.278 HD
HETATM    4  H   UNL     1       5.817  29.680  52.964  1.00  0.00     0.278 HD
HETATM    5  C   UNL     1       3.834  29.645  52.294  1.00  0.00     0.238 C 
HETATM    6  C   UNL     1       3.074  29.516  50.961  1.00  0.00     0.069 C 
HETATM    7  C   UNL     1       3.588  28.350  50.188  1.00  0.00    -0.019 A 
HETATM    8  C   UNL     1       4.810  27.767  50.461  1.00  0.00     0.052 A 
HETATM    9  N   UNL     1       4.988  26.723  49.589  1.00  0.00    -0.356 N 
HETATM   10  H   UNL     1       5.777  26.088  49.554  1.00  0.00     0.166 HD
HETATM   11  C   UNL     1       3.909  26.648  48.733  1.00  0.00     0.043 A 
HETATM   12  C   UNL     1       3.019  27.665  49.084  1.00  0.00     0.002 A 
HETATM   13  C   UNL     1       3.658  25.765  47.678  1.00  0.00     0.033 A 
HETATM   14  C   UNL     1       2.475  25.939  46.946  1.00  0.00     0.039 A 
HETATM   15  C   UNL     1       1.574  26.956  47.260  1.00  0.00     0.069 A 
HETATM   16  C   UNL     1       1.836  27.813  48.337  1.00  0.00     0.051 A 
ENDROOT
BRANCH   1  17
HETATM   17  C   UNL     1       6.053  27.195  52.611  1.00  0.00    -0.019 A 
HETATM   18  C   UNL     1       6.870  27.586  53.683  1.00  0.00     0.049 A 
HETATM   19  C   UNL     1       7.119  26.712  54.742  1.00  0.00     0.102 A 
HETATM   20  C   UNL     1       6.541  25.438  54.787  1.00  0.00     0.102 A 
HETATM   21  C   UNL     1       5.722  25.046  53.728  1.00  0.00     0.040 A 
HETATM   22  C   UNL     1       5.477  25.915  52.652  1.00  0.00     0.012 A 
BRANCH  19  23
HETATM   23  O   UNL     1       7.873  27.179  55.789  1.00  0.00    -0.353 OA
HETATM   24  C   UNL     1       7.853  28.606  55.819  1.00  0.00     0.210 C 
ENDBRANCH  19  23
BRANCH  20  25
HETATM   25  O   UNL     1       6.837  24.680  55.885  1.00  0.00    -0.348 OA
BRANCH  25  26
HETATM   26  C   UNL     1       7.255  23.331  55.676  1.00  0.00     0.175 C 
BRANCH  26  27
HETATM   27  C   UNL     1       8.440  23.060  56.598  1.00  0.00     0.022 C 
HETATM   28  C   UNL     1       8.839  24.294  57.387  1.00  0.00     0.007 C 
ENDBRANCH  26  27
ENDBRANCH  25  26
ENDBRANCH  20  25
ENDBRANCH   1  17
BRANCH  15  29
HETATM   29  O   UNL     1       0.403  27.221  46.604  1.00  0.00    -0.356 OA
HETATM   30  C   UNL     1       0.219  28.549  46.123  1.00  0.00     0.210 C 
ENDBRANCH  15  29
TORSDOF 6
ENDMDL
MODEL 6
REMARK VINA RESULT:      -7.8      3.970      8.491
REMARK  6 active torsions:
REMARK  status: ('A' for Active; 'I' for Inactive)
REMARK    1  A    between atoms: C_2  and  C_3 
REMARK    2  A    between atoms: C_3  and  O_4 
REMARK    3  A    between atoms: O_4  and  C_5 
REMARK    4  A    between atoms: C_6  and  O_7 
REMARK    5  A    between atoms: C_10  and  C_11 
REMARK    6  A    between atoms: C_25  and  O_26 
ROOT
HETATM    1  C   UNL     1       7.180  28.200  54.739  1.00  0.00     0.269 C 
HETATM    2  N   UNL     1       6.873  28.389  53.271  1.00  0.00    -0.061 N 
HETATM    3  H   UNL     1       7.762  28.325  52.763  1.00  0.00     0.278 HD
HETATM    4  H   UNL     1       6.512  29.338  53.132  1.00  0.00     0.278 HD
HETATM    5  C   UNL     1       5.911  27.383  52.684  1.00  0.00     0.238 C 
HETATM    6  C   UNL     1       6.480  25.956  52.782  1.00  0.00     0.069 C 
HETATM    7  C   UNL     1       7.021  25.711  54.149  1.00  0.00    -0.019 A 
HETATM    8  C   UNL     1       7.320  26.744  55.017  1.00  0.00     0.052 A 
HETATM    9  N   UNL     1       7.785  26.195  56.185  1.00  0.00    -0.356 N 
HETATM   10  H   UNL     1       8.066  26.694  57.021  1.00  0.00     0.166 HD
HETATM   11  C   UNL     1       7.823  24.822  56.067  1.00  0.00     0.043 A 
HETATM   12  C   UNL     1       7.355  24.493  54.794  1.00  0.00     0.002 A 
HETATM   13  C   UNL     1       8.238  23.851  56.985  1.00  0.00     0.033 A 
HETATM   14  C   UNL     1       8.195  22.509  56.583  1.00  0.00     0.039 A 
HETATM   15  C   UNL     1       7.749  22.150  55.312  1.00  0.00     0.069 A 
HETATM   16  C   UNL     1       7.316  23.137  54.418  1.00  0.00     0.051 A 
ENDROOT
BRANCH   1  17
HETATM   17  C   UNL     1       6.181  28.947  55.600  1.00  0.00    -0.019 A 
HETATM   18  C   UNL     1       6.627  30.058  56.332  1.00  0.00     0.049 A 
HETATM   19  C   UNL     1       5.737  30.801  57.109  1.00  0.00     0.102 A 
HETATM   20  C   UNL     1       4.375  30.484  57.160  1.00  0.00     0.102 A 
HETATM   21  C   UNL     1       3.923  29.385  56.429  1.00  0.00     0.040 A 
HETATM   22  C   UNL     1       4.815  28.625  55.654  1.00  0.00     0.012 A 
BRANCH  19  23
HETATM   23  O   UNL     1       6.224  31.914  57.747  1.00  0.00    -0.353 OA
HETATM   24  C   UNL     1       7.035  31.535  58.859  1.00  0.00     0.210 C 
ENDBRANCH  19  23
BRANCH  20  25
HETATM   25  O   UNL     1       3.595  31.297  57.935  1.00  0.00    -0.348 OA
BRANCH  25  26
HETATM   26  C   UNL     1       3.318  30.883  59.273  1.00  0.00     0.175 C 
BRANCH  26  27
HETATM   27  C   UNL     1       3.500  32.094  60.184  1.00  0.00     0.022 C 
HETATM   28  C   UNL     1       3.519  33.395  59.402  1.00  0.00     0.007 C 
ENDBRANCH  26  27
ENDBRANCH  25  26
ENDBRANCH  20  25
ENDBRANCH   1  17
BRANCH  15  29
HETATM   29  O   UNL     1       7.680  20.876  54.816  1.00  0.00    -0.356 OA
HETATM   30  C   UNL     1       7.916  20.713  53.421  1.00  0.00     0.210 C 
ENDBRANCH  15  29
TORSDOF 6
ENDMDL
MODEL 7
REMARK VINA RESULT:      -7.8      2.175      8.180
REMARK  6 active torsions:
REMARK  status: ('A' for Active; 'I' for Inactive)
REMARK    1  A    between atoms: C_2  and  C_3 
REMARK    2  A    between atoms: C_3  and  O_4 
REMARK    3  A    between atoms: O_4  and  C_5 
REMARK    4  A    between atoms: C_6  and  O_7 
REMARK    5  A    between atoms: C_10  and  C_11 
REMARK    6  A    between atoms: C_25  and  O_26 
ROOT
HETATM    1  C   UNL     1       4.603  26.572  53.203  1.00  0.00     0.269 C 
HETATM    2  N   UNL     1       4.327  27.340  54.475  1.00  0.00    -0.061 N 
HETATM    3  H   UNL     1       3.665  26.785  55.028  1.00  0.00     0.278 HD
HETATM    4  H   UNL     1       3.858  28.218  54.231  1.00  0.00     0.278 HD
HETATM    5  C   UNL     1       5.541  27.627  55.326  1.00  0.00     0.238 C 
HETATM    6  C   UNL     1       6.204  26.320  55.797  1.00  0.00     0.069 C 
HETATM    7  C   UNL     1       6.342  25.372  54.656  1.00  0.00    -0.019 A 
HETATM    8  C   UNL     1       5.613  25.515  53.490  1.00  0.00     0.052 A 
HETATM    9  N   UNL     1       5.970  24.500  52.639  1.00  0.00    -0.356 N 
HETATM   10  H   UNL     1       5.626  24.345  51.699  1.00  0.00     0.166 HD
HETATM   11  C   UNL     1       6.895  23.684  53.257  1.00  0.00     0.043 A 
HETATM   12  C   UNL     1       7.139  24.207  54.528  1.00  0.00     0.002 A 
HETATM   13  C   UNL     1       7.527  22.527  52.790  1.00  0.00     0.033 A 
HETATM   14  C   UNL     1       8.416  21.873  53.654  1.00  0.00     0.039 A 
HETATM   15  C   UNL     1       8.668  22.360  54.935  1.00  0.00     0.069 A 
HETATM   16  C   UNL     1       8.042  23.534  55.372  1.00  0.00     0.051 A 
ENDROOT
BRANCH   1  17
HETATM   17  C   UNL     1       4.936  27.514  52.063  1.00  0.00    -0.019 A 
HETATM   18  C   UNL     1       4.942  27.006  50.755  1.00  0.00     0.049 A 
HETATM   19  C   UNL     1       5.204  27.843  49.669  1.00  0.00     0.102 A 
HETATM   20  C   UNL     1       5.437  29.212  49.844  1.00  0.00     0.102 A 
HETATM   21  C   UNL     1       5.426  29.725  51.142  1.00  0.00     0.040 A 
HETATM   22  C   UNL     1       5.175  28.887  52.240  1.00  0.00     0.012 A 
BRANCH  19  23
HETATM   23  O   UNL     1       5.129  27.298  48.413  1.00  0.00    -0.353 OA
HETATM   24  C   UNL     1       3.985  26.452  48.304  1.00  0.00     0.210 C 
ENDBRANCH  19  23
BRANCH  20  25
HETATM   25  O   UNL     1       5.657  29.936  48.706  1.00  0.00    -0.348 OA
BRANCH  25  26
HETATM   26  C   UNL     1       4.659  30.875  48.304  1.00  0.00     0.175 C 
BRANCH  26  27
HETATM   27  C   UNL     1       3.970  30.321  47.060  1.00  0.00     0.022 C 
HETATM   28  C   UNL     1       2.587  29.777  47.370  1.00  0.00     0.007 C 
ENDBRANCH  26  27
ENDBRANCH  25  26
ENDBRANCH  20  25
ENDBRANCH   1  17
BRANCH  15  29
HETATM   29  O   UNL     1       9.504  21.793  55.859  1.00  0.00    -0.356 OA
HETATM   30  C   UNL     1       9.272  20.427  56.187  1.00  0.00     0.210 C 
ENDBRANCH  15  29
TORSDOF 6
ENDMDL
MODEL 8
REMARK VINA RESULT:      -7.5      3.140      5.210
REMARK  6 active torsions:
REMARK  status: ('A' for Active; 'I' for Inactive)
REMARK    1  A    between atoms: C_2  and  C_3 
REMARK    2  A    between atoms: C_3  and  O_4 
REMARK    3  A    between atoms: O_4  and  C_5 
REMARK    4  A    between atoms: C_6  and  O_7 
REMARK    5  A    between atoms: C_10  and  C_11 
REMARK    6  A    between atoms: C_25  and  O_26 
ROOT
HETATM    1  C   UNL     1       5.270  25.695  54.423  1.00  0.00     0.269 C 
HETATM    2  N   UNL     1       6.136  24.517  54.040  1.00  0.00    -0.061 N 
HETATM    3  H   UNL     1       5.513  23.779  53.698  1.00  0.00     0.278 HD
HETATM    4  H   UNL     1       6.594  24.160  54.886  1.00  0.00     0.278 HD
HETATM    5  C   UNL     1       7.173  24.802  52.979  1.00  0.00     0.238 C 
HETATM    6  C   UNL     1       6.504  25.237  51.662  1.00  0.00     0.069 C 
HETATM    7  C   UNL     1       5.458  26.263  51.931  1.00  0.00    -0.019 A 
HETATM    8  C   UNL     1       4.923  26.456  53.191  1.00  0.00     0.052 A 
HETATM    9  N   UNL     1       4.000  27.468  53.111  1.00  0.00    -0.356 N 
HETATM   10  H   UNL     1       3.455  27.855  53.872  1.00  0.00     0.166 HD
HETATM   11  C   UNL     1       3.908  27.906  51.806  1.00  0.00     0.043 A 
HETATM   12  C   UNL     1       4.808  27.159  51.044  1.00  0.00     0.002 A 
HETATM   13  C   UNL     1       3.097  28.898  51.246  1.00  0.00     0.033 A 
HETATM   14  C   UNL     1       3.191  29.119  49.865  1.00  0.00     0.039 A 
HETATM   15  C   UNL     1       4.068  28.378  49.074  1.00  0.00     0.069 A 
HETATM   16  C   UNL     1       4.888  27.406  49.661  1.00  0.00     0.051 A 
ENDROOT
BRANCH   1  17
HETATM   17  C   UNL     1       5.909  26.496  55.540  1.00  0.00    -0.019 A 
HETATM   18  C   UNL     1       6.934  25.899  56.290  1.00  0.00     0.049 A 
HETATM   19  C   UNL     1       7.579  26.610  57.303  1.00  0.00     0.102 A 
HETATM   20  C   UNL     1       7.250  27.941  57.582  1.00  0.00     0.102 A 
HETATM   21  C   UNL     1       6.236  28.543  56.836  1.00  0.00     0.040 A 
HETATM   22  C   UNL     1       5.574  27.830  55.823  1.00  0.00     0.012 A 
BRANCH  19  23
HETATM   23  O   UNL     1       8.617  25.992  57.954  1.00  0.00    -0.353 OA
HETATM   24  C   UNL     1       8.753  24.643  57.505  1.00  0.00     0.210 C 
ENDBRANCH  19  23
BRANCH  20  25
HETATM   25  O   UNL     1       7.966  28.543  58.579  1.00  0.00    -0.348 OA
BRANCH  25  26
HETATM   26  C   UNL     1       7.865  29.961  58.715  1.00  0.00     0.175 C 
BRANCH  26  27
HETATM   27  C   UNL     1       9.167  30.465  59.333  1.00  0.00     0.022 C 
HETATM   28  C   UNL     1       9.064  30.596  60.842  1.00  0.00     0.007 C 
ENDBRANCH  26  27
ENDBRANCH  25  26
ENDBRANCH  20  25
ENDBRANCH   1  17
BRANCH  15  29
HETATM   29  O   UNL     1       4.228  28.503  47.720  1.00  0.00    -0.356 OA
HETATM   30  C   UNL     1       5.443  28.009  47.166  1.00  0.00     0.210 C 
ENDBRANCH  15  29
TORSDOF 6
ENDMDL
MODEL 9
REMARK VINA RESULT:      -7.3      3.396      8.449
REMARK  6 active torsions:
REMARK  status: ('A' for Active; 'I' for Inactive)
REMARK    1  A    between atoms: C_2  and  C_3 
REMARK    2  A    between atoms: C_3  and  O_4 
REMARK    3  A    between atoms: O_4  and  C_5 
REMARK    4  A    between atoms: C_6  and  O_7 
REMARK    5  A    between atoms: C_10  and  C_11 
REMARK    6  A    between atoms: C_25  and  O_26 
ROOT
HETATM    1  C   UNL     1       6.369  27.537  53.079  1.00  0.00     0.269 C 
HETATM    2  N   UNL     1       5.904  26.847  51.817  1.00  0.00    -0.061 N 
HETATM    3  H   UNL     1       6.739  26.625  51.266  1.00  0.00     0.278 HD
HETATM    4  H   UNL     1       5.346  27.510  51.269  1.00  0.00     0.278 HD
HETATM    5  C   UNL     1       5.119  25.575  52.035  1.00  0.00     0.238 C 
HETATM    6  C   UNL     1       5.973  24.520  52.762  1.00  0.00     0.069 C 
HETATM    7  C   UNL     1       6.669  25.136  53.926  1.00  0.00    -0.019 A 
HETATM    8  C   UNL     1       6.826  26.504  54.050  1.00  0.00     0.052 A 
HETATM    9  N   UNL     1       7.493  26.751  55.223  1.00  0.00    -0.356 N 
HETATM   10  H   UNL     1       7.738  27.657  55.604  1.00  0.00     0.166 HD
HETATM   11  C   UNL     1       7.799  25.556  55.840  1.00  0.00     0.043 A 
HETATM   12  C   UNL     1       7.299  24.526  55.041  1.00  0.00     0.002 A 
HETATM   13  C   UNL     1       8.481  25.310  57.036  1.00  0.00     0.033 A 
HETATM   14  C   UNL     1       8.678  23.975  57.416  1.00  0.00     0.039 A 
HETATM   15  C   UNL     1       8.206  22.924  56.631  1.00  0.00     0.069 A 
HETATM   16  C   UNL     1       7.505  23.195  55.449  1.00  0.00     0.051 A 
ENDROOT
BRANCH   1  17
HETATM   17  C   UNL     1       5.317  28.503  53.586  1.00  0.00    -0.019 A 
HETATM   18  C   UNL     1       5.212  28.712  54.970  1.00  0.00     0.049 A 
HETATM   19  C   UNL     1       4.285  29.622  55.483  1.00  0.00     0.102 A 
HETATM   20  C   UNL     1       3.458  30.373  54.639  1.00  0.00     0.102 A 
HETATM   21  C   UNL     1       3.563  30.175  53.262  1.00  0.00     0.040 A 
HETATM   22  C   UNL     1       4.484  29.253  52.739  1.00  0.00     0.012 A 
BRANCH  19  23
HETATM   23  O   UNL     1       4.278  29.828  56.838  1.00  0.00    -0.353 OA
HETATM   24  C   UNL     1       5.346  29.110  57.456  1.00  0.00     0.210 C 
ENDBRANCH  19  23
BRANCH  20  25
HETATM   25  O   UNL     1       2.608  31.250  55.253  1.00  0.00    -0.348 OA
BRANCH  25  26
HETATM   26  C   UNL     1       2.861  32.647  55.101  1.00  0.00     0.175 C 
BRANCH  26  27
HETATM   27  C   UNL     1       3.329  33.186  56.450  1.00  0.00     0.022 C 
HETATM   28  C   UNL     1       4.839  33.326  56.514  1.00  0.00     0.007 C 
ENDBRANCH  26  27
ENDBRANCH  25  26
ENDBRANCH  20  25
ENDBRANCH   1  17
BRANCH  15  29
HETATM   29  O   UNL     1       8.355  21.591  56.901  1.00  0.00    -0.356 OA
HETATM   30  C   UNL     1       7.785  20.677  55.970  1.00  0.00     0.210 C 
ENDBRANCH  15  29
TORSDOF 6
ENDMDL
MODEL 10
REMARK VINA RESULT:      -7.2     11.206     14.110
REMARK  6 active torsions:
REMARK  status: ('A' for Active; 'I' for Inactive)
REMARK    1  A    between atoms: C_2  and  C_3 
REMARK    2  A    between atoms: C_3  and  O_4 
REMARK    3  A    between atoms: O_4  and  C_5 
REMARK    4  A    between atoms: C_6  and  O_7 
REMARK    5  A    between atoms: C_10  and  C_11 
REMARK    6  A    between atoms: C_25  and  O_26 
ROOT
HETATM    1  C   UNL     1       5.281  31.998  62.843  1.00  0.00     0.269 C 
HETATM    2  N   UNL     1       6.439  31.118  62.432  1.00  0.00    -0.061 N 
HETATM    3  H   UNL     1       6.044  30.285  61.982  1.00  0.00     0.278 HD
HETATM    4  H   UNL     1       6.927  30.803  63.278  1.00  0.00     0.278 HD
HETATM    5  C   UNL     1       7.423  31.757  61.481  1.00  0.00     0.238 C 
HETATM    6  C   UNL     1       6.737  32.141  60.157  1.00  0.00     0.069 C 
HETATM    7  C   UNL     1       5.450  32.841  60.429  1.00  0.00    -0.019 A 
HETATM    8  C   UNL     1       4.818  32.768  61.655  1.00  0.00     0.052 A 
HETATM    9  N   UNL     1       3.673  33.520  61.588  1.00  0.00    -0.356 N 
HETATM   10  H   UNL     1       3.006  33.681  62.335  1.00  0.00     0.166 HD
HETATM   11  C   UNL     1       3.542  34.049  60.321  1.00  0.00     0.043 A 
HETATM   12  C   UNL     1       4.642  33.631  59.572  1.00  0.00     0.002 A 
HETATM   13  C   UNL     1       2.535  34.859  59.785  1.00  0.00     0.033 A 
HETATM   14  C   UNL     1       2.644  35.233  58.438  1.00  0.00     0.039 A 
HETATM   15  C   UNL     1       3.722  34.817  57.658  1.00  0.00     0.069 A 
HETATM   16  C   UNL     1       4.730  34.027  58.224  1.00  0.00     0.051 A 
ENDROOT
BRANCH   1  17
HETATM   17  C   UNL     1       5.633  32.817  64.068  1.00  0.00    -0.019 A 
HETATM   18  C   UNL     1       4.593  33.250  64.905  1.00  0.00     0.049 A 
HETATM   19  C   UNL     1       4.869  33.975  66.066  1.00  0.00     0.102 A 
HETATM   20  C   UNL     1       6.184  34.264  66.448  1.00  0.00     0.102 A 
HETATM   21  C   UNL     1       7.223  33.831  65.624  1.00  0.00     0.040 A 
HETATM   22  C   UNL     1       6.952  33.112  64.448  1.00  0.00     0.012 A 
BRANCH  19  23
HETATM   23  O   UNL     1       3.813  34.311  66.874  1.00  0.00    -0.353 OA
HETATM   24  C   UNL     1       3.165  35.485  66.384  1.00  0.00     0.210 C 
ENDBRANCH  19  23
BRANCH  20  25
HETATM   25  O   UNL     1       6.333  34.958  67.616  1.00  0.00    -0.348 OA
BRANCH  25  26
HETATM   26  C   UNL     1       6.813  34.250  68.760  1.00  0.00     0.175 C 
BRANCH  26  27
HETATM   27  C   UNL     1       8.046  34.983  69.280  1.00  0.00     0.022 C 
HETATM   28  C   UNL     1       8.496  34.452  70.630  1.00  0.00     0.007 C 
ENDBRANCH  26  27
ENDBRANCH  25  26
ENDBRANCH  20  25
ENDBRANCH   1  17
BRANCH  15  29
HETATM   29  O   UNL     1       3.917  35.112  56.336  1.00  0.00    -0.356 OA
HETATM   30  C   UNL     1       5.029  35.944  56.018  1.00  0.00     0.210 C 
ENDBRANCH  15  29
TORSDOF 6
ENDMDL
