MODEL 1
REMARK VINA RESULT:      -9.4      0.000      0.000
REMARK  9 active torsions:
REMARK  status: ('A' for Active; 'I' for Inactive)
REMARK    1  A    between atoms: C_4  and  C_5 
REMARK    2  A    between atoms: C_7  and  O_8 
REMARK    3  A    between atoms: C_10  and  O_11 
REMARK    4  A    between atoms: C_16  and  C_17 
REMARK    5  A    between atoms: C_20  and  C_21 
REMARK    6  A    between atoms: C_21  and  N_22 
REMARK    7  A    between atoms: N_22  and  C_23 
REMARK    8  A    between atoms: C_23  and  N_24 
REMARK    9  A    between atoms: N_24  and  C_25 
ROOT
HETATM    1  C   UNL     1       4.269  29.071  55.911  1.00  0.00     0.067 C 
HETATM    2  C   UNL     1       5.019  30.368  55.500  1.00  0.00     0.001 C 
HETATM    3  C   UNL     1       6.466  30.348  56.041  1.00  0.00     0.040 C 
HETATM    4  C   UNL     1       6.475  30.324  57.579  1.00  0.00     0.206 C 
HETATM    5  N   UNL     1       5.024  30.138  58.044  1.00  0.00    -0.065 N 
HETATM    6  H   UNL     1       5.011  30.042  59.069  1.00  0.00     0.280 HD
HETATM    7  C   UNL     1       4.371  28.891  57.440  1.00  0.00     0.246 C 
HETATM    8  C   UNL     1       4.292  31.559  56.159  1.00  0.00     0.033 C 
HETATM    9  C   UNL     1       4.212  31.371  57.676  1.00  0.00     0.236 C 
ENDROOT
BRANCH   1  10
HETATM   10  C   UNL     1       4.737  27.879  55.125  1.00  0.00     0.038 A 
HETATM   11  N   UNL     1       4.391  27.655  53.812  1.00  0.00    -0.277 N 
HETATM   12  C   UNL     1       3.502  28.431  52.976  1.00  0.00     0.179 C 
HETATM   13  N   UNL     1       4.996  26.592  53.275  1.00  0.00    -0.172 NA
HETATM   14  C   UNL     1       5.752  26.070  54.250  1.00  0.00     0.089 A 
HETATM   15  C   UNL     1       5.582  26.828  55.440  1.00  0.00     0.061 A 
BRANCH  14  16
HETATM   16  C   UNL     1       6.622  24.911  54.013  1.00  0.00    -0.003 A 
HETATM   17  C   UNL     1       7.087  24.148  55.099  1.00  0.00     0.053 A 
HETATM   18  C   UNL     1       7.890  23.017  54.902  1.00  0.00     0.102 A 
HETATM   19  C   UNL     1       8.248  22.639  53.594  1.00  0.00     0.101 A 
HETATM   20  C   UNL     1       7.790  23.394  52.511  1.00  0.00     0.040 A 
HETATM   21  C   UNL     1       6.985  24.521  52.718  1.00  0.00     0.017 A 
BRANCH  18  22
HETATM   22  O   UNL     1       8.370  22.221  55.912  1.00  0.00    -0.353 OA
HETATM   23  C   UNL     1       8.383  22.757  57.228  1.00  0.00     0.210 C 
ENDBRANCH  18  22
BRANCH  19  24
HETATM   24  O   UNL     1       9.028  21.516  53.483  1.00  0.00    -0.353 OA
HETATM   25  C   UNL     1       8.452  20.370  52.875  1.00  0.00     0.210 C 
ENDBRANCH  19  24
ENDBRANCH  14  16
ENDBRANCH   1  10
BRANCH   4  26
HETATM   26  C   UNL     1       7.406  29.278  58.226  1.00  0.00     0.155 C 
BRANCH  26  27
HETATM   27  N   UNL     1       8.328  29.812  59.220  1.00  0.00    -0.365 N 
HETATM   28  H   UNL     1       8.659  29.193  59.955  1.00  0.00     0.161 HD
BRANCH  27  29
HETATM   29  C   UNL     1       9.208  30.839  58.979  1.00  0.00     0.172 C 
HETATM   30  S   UNL     1      10.385  30.841  57.794  1.00  0.00    -0.041 SA
BRANCH  29  31
HETATM   31  N   UNL     1       9.140  31.906  59.828  1.00  0.00    -0.333 N 
HETATM   32  H   UNL     1       9.741  32.680  59.552  1.00  0.00     0.168 HD
BRANCH  31  33
HETATM   33  C   UNL     1       8.264  32.176  60.898  1.00  0.00     0.034 A 
HETATM   34  C   UNL     1       6.947  32.610  60.723  1.00  0.00     0.031 A 
HETATM   35  C   UNL     1       6.147  32.910  61.831  1.00  0.00     0.026 A 
HETATM   36  C   UNL     1       6.667  32.784  63.117  1.00  0.00     0.034 A 
HETATM   37 CL   UNL     1       5.682  33.154  64.476  1.00  0.00    -0.084 Cl
HETATM   38  C   UNL     1       7.985  32.374  63.303  1.00  0.00     0.026 A 
HETATM   39  C   UNL     1       8.784  32.083  62.193  1.00  0.00     0.031 A 
ENDBRANCH  31  33
ENDBRANCH  29  31
ENDBRANCH  27  29
ENDBRANCH  26  27
ENDBRANCH   4  26
TORSDOF 9
ENDMDL
MODEL 2
REMARK VINA RESULT:      -9.0      4.882     10.134
REMARK  9 active torsions:
REMARK  status: ('A' for Active; 'I' for Inactive)
REMARK    1  A    between atoms: C_4  and  C_5 
REMARK    2  A    between atoms: C_7  and  O_8 
REMARK    3  A    between atoms: C_10  and  O_11 
REMARK    4  A    between atoms: C_16  and  C_17 
REMARK    5  A    between atoms: C_20  and  C_21 
REMARK    6  A    between atoms: C_21  and  N_22 
REMARK    7  A    between atoms: N_22  and  C_23 
REMARK    8  A    between atoms: C_23  and  N_24 
REMARK    9  A    between atoms: N_24  and  C_25 
ROOT
HETATM    1  C   UNL     1       7.873  29.859  56.587  1.00  0.00     0.067 C 
HETATM    2  C   UNL     1       6.370  29.598  56.295  1.00  0.00     0.001 C 
HETATM    3  C   UNL     1       5.876  28.363  57.079  1.00  0.00     0.040 C 
HETATM    4  C   UNL     1       6.621  27.095  56.628  1.00  0.00     0.206 C 
HETATM    5  N   UNL     1       7.741  27.535  55.674  1.00  0.00    -0.065 N 
HETATM    6  H   UNL     1       8.303  26.711  55.417  1.00  0.00     0.280 HD
HETATM    7  C   UNL     1       8.675  28.571  56.307  1.00  0.00     0.246 C 
HETATM    8  C   UNL     1       6.233  29.282  54.791  1.00  0.00     0.033 C 
HETATM    9  C   UNL     1       7.130  28.104  54.403  1.00  0.00     0.236 C 
ENDROOT
BRANCH   1  10
HETATM   10  C   UNL     1       8.088  30.423  57.964  1.00  0.00     0.038 A 
HETATM   11  N   UNL     1       9.305  30.881  58.413  1.00  0.00    -0.277 N 
HETATM   12  C   UNL     1      10.578  30.858  57.728  1.00  0.00     0.179 C 
HETATM   13  N   UNL     1       9.251  31.433  59.629  1.00  0.00    -0.172 NA
HETATM   14  C   UNL     1       7.976  31.327  60.023  1.00  0.00     0.089 A 
HETATM   15  C   UNL     1       7.223  30.659  59.019  1.00  0.00     0.061 A 
BRANCH  14  16
HETATM   16  C   UNL     1       7.515  31.885  61.301  1.00  0.00    -0.003 A 
HETATM   17  C   UNL     1       6.145  32.121  61.511  1.00  0.00     0.053 A 
HETATM   18  C   UNL     1       5.672  32.620  62.731  1.00  0.00     0.102 A 
HETATM   19  C   UNL     1       6.584  32.901  63.767  1.00  0.00     0.101 A 
HETATM   20  C   UNL     1       7.947  32.670  63.563  1.00  0.00     0.040 A 
HETATM   21  C   UNL     1       8.409  32.168  62.341  1.00  0.00     0.017 A 
BRANCH  18  22
HETATM   22  O   UNL     1       4.351  32.864  63.010  1.00  0.00    -0.353 OA
HETATM   23  C   UNL     1       3.408  32.683  61.962  1.00  0.00     0.210 C 
ENDBRANCH  18  22
BRANCH  19  24
HETATM   24  O   UNL     1       6.043  33.378  64.934  1.00  0.00    -0.353 OA
HETATM   25  C   UNL     1       6.939  33.813  65.947  1.00  0.00     0.210 C 
ENDBRANCH  19  24
ENDBRANCH  14  16
ENDBRANCH   1  10
BRANCH   4  26
HETATM   26  C   UNL     1       7.170  26.203  57.760  1.00  0.00     0.155 C 
BRANCH  26  27
HETATM   27  N   UNL     1       7.025  24.771  57.535  1.00  0.00    -0.365 N 
HETATM   28  H   UNL     1       6.170  24.317  57.844  1.00  0.00     0.161 HD
BRANCH  27  29
HETATM   29  C   UNL     1       7.624  24.090  56.503  1.00  0.00     0.172 C 
HETATM   30  S   UNL     1       9.261  23.788  56.369  1.00  0.00    -0.041 SA
BRANCH  29  31
HETATM   31  N   UNL     1       6.806  23.693  55.485  1.00  0.00    -0.333 N 
HETATM   32  H   UNL     1       6.220  22.896  55.724  1.00  0.00     0.168 HD
BRANCH  31  33
HETATM   33  C   UNL     1       6.517  24.301  54.246  1.00  0.00     0.034 A 
HETATM   34  C   UNL     1       7.458  24.442  53.221  1.00  0.00     0.031 A 
HETATM   35  C   UNL     1       7.118  25.103  52.036  1.00  0.00     0.026 A 
HETATM   36  C   UNL     1       5.839  25.628  51.876  1.00  0.00     0.034 A 
HETATM   37 CL   UNL     1       5.425  26.439  50.418  1.00  0.00    -0.084 Cl
HETATM   38  C   UNL     1       4.900  25.513  52.898  1.00  0.00     0.026 A 
HETATM   39  C   UNL     1       5.245  24.860  54.085  1.00  0.00     0.031 A 
ENDBRANCH  31  33
ENDBRANCH  29  31
ENDBRANCH  27  29
ENDBRANCH  26  27
ENDBRANCH   4  26
TORSDOF 9
ENDMDL
MODEL 3
REMARK VINA RESULT:      -8.9      3.736      6.028
REMARK  9 active torsions:
REMARK  status: ('A' for Active; 'I' for Inactive)
REMARK    1  A    between atoms: C_4  and  C_5 
REMARK    2  A    between atoms: C_7  and  O_8 
REMARK    3  A    between atoms: C_10  and  O_11 
REMARK    4  A    between atoms: C_16  and  C_17 
REMARK    5  A    between atoms: C_20  and  C_21 
REMARK    6  A    between atoms: C_21  and  N_22 
REMARK    7  A    between atoms: N_22  and  C_23 
REMARK    8  A    between atoms: C_23  and  N_24 
REMARK    9  A    between atoms: N_24  and  C_25 
ROOT
HETATM    1  C   UNL     1       7.546  25.871  54.900  1.00  0.00     0.067 C 
HETATM    2  C   UNL     1       6.736  24.846  55.743  1.00  0.00     0.001 C 
HETATM    3  C   UNL     1       5.385  25.454  56.177  1.00  0.00     0.040 C 
HETATM    4  C   UNL     1       5.601  26.675  57.088  1.00  0.00     0.206 C 
HETATM    5  N   UNL     1       7.106  26.979  57.099  1.00  0.00    -0.065 N 
HETATM    6  H   UNL     1       7.269  27.839  57.642  1.00  0.00     0.280 HD
HETATM    7  C   UNL     1       7.670  27.190  55.690  1.00  0.00     0.246 C 
HETATM    8  C   UNL     1       7.546  24.549  57.022  1.00  0.00     0.033 C 
HETATM    9  C   UNL     1       7.848  25.842  57.784  1.00  0.00     0.236 C 
ENDROOT
BRANCH   1  10
HETATM   10  C   UNL     1       6.974  26.038  53.521  1.00  0.00     0.038 A 
HETATM   11  N   UNL     1       7.149  25.119  52.511  1.00  0.00    -0.277 N 
HETATM   12  C   UNL     1       7.929  23.902  52.536  1.00  0.00     0.179 C 
HETATM   13  N   UNL     1       6.474  25.416  51.397  1.00  0.00    -0.172 NA
HETATM   14  C   UNL     1       5.845  26.571  51.646  1.00  0.00     0.089 A 
HETATM   15  C   UNL     1       6.170  27.016  52.958  1.00  0.00     0.061 A 
BRANCH  14  16
HETATM   16  C   UNL     1       4.945  27.187  50.663  1.00  0.00    -0.003 A 
HETATM   17  C   UNL     1       4.736  26.567  49.418  1.00  0.00     0.053 A 
HETATM   18  C   UNL     1       3.856  27.112  48.474  1.00  0.00     0.102 A 
HETATM   19  C   UNL     1       3.173  28.307  48.769  1.00  0.00     0.101 A 
HETATM   20  C   UNL     1       3.378  28.928  50.005  1.00  0.00     0.040 A 
HETATM   21  C   UNL     1       4.256  28.373  50.943  1.00  0.00     0.017 A 
BRANCH  18  22
HETATM   22  O   UNL     1       3.596  26.558  47.245  1.00  0.00    -0.353 OA
HETATM   23  C   UNL     1       2.933  25.301  47.212  1.00  0.00     0.210 C 
ENDBRANCH  18  22
BRANCH  19  24
HETATM   24  O   UNL     1       2.323  28.772  47.798  1.00  0.00    -0.353 OA
HETATM   25  C   UNL     1       1.271  29.637  48.201  1.00  0.00     0.210 C 
ENDBRANCH  19  24
ENDBRANCH  14  16
ENDBRANCH   1  10
BRANCH   4  26
HETATM   26  C   UNL     1       4.780  27.930  56.730  1.00  0.00     0.155 C 
BRANCH  26  27
HETATM   27  N   UNL     1       5.027  29.085  57.583  1.00  0.00    -0.365 N 
HETATM   28  H   UNL     1       5.181  28.930  58.576  1.00  0.00     0.161 HD
BRANCH  27  29
HETATM   29  C   UNL     1       5.612  30.250  57.150  1.00  0.00     0.172 C 
HETATM   30  S   UNL     1       4.955  31.298  56.028  1.00  0.00    -0.041 SA
BRANCH  29  31
HETATM   31  N   UNL     1       6.856  30.522  57.641  1.00  0.00    -0.333 N 
HETATM   32  H   UNL     1       7.580  30.529  56.925  1.00  0.00     0.168 HD
BRANCH  31  33
HETATM   33  C   UNL     1       7.267  30.960  58.915  1.00  0.00     0.034 A 
HETATM   34  C   UNL     1       8.314  30.370  59.631  1.00  0.00     0.031 A 
HETATM   35  C   UNL     1       8.637  30.822  60.915  1.00  0.00     0.026 A 
HETATM   36  C   UNL     1       7.908  31.861  61.489  1.00  0.00     0.034 A 
HETATM   37 CL   UNL     1       8.307  32.413  63.067  1.00  0.00    -0.084 Cl
HETATM   38  C   UNL     1       6.849  32.441  60.795  1.00  0.00     0.026 A 
HETATM   39  C   UNL     1       6.524  31.982  59.515  1.00  0.00     0.031 A 
ENDBRANCH  31  33
ENDBRANCH  29  31
ENDBRANCH  27  29
ENDBRANCH  26  27
ENDBRANCH   4  26
TORSDOF 9
ENDMDL
MODEL 4
REMARK VINA RESULT:      -8.7      5.142     10.001
REMARK  9 active torsions:
REMARK  status: ('A' for Active; 'I' for Inactive)
REMARK    1  A    between atoms: C_4  and  C_5 
REMARK    2  A    between atoms: C_7  and  O_8 
REMARK    3  A    between atoms: C_10  and  O_11 
REMARK    4  A    between atoms: C_16  and  C_17 
REMARK    5  A    between atoms: C_20  and  C_21 
REMARK    6  A    between atoms: C_21  and  N_22 
REMARK    7  A    between atoms: N_22  and  C_23 
REMARK    8  A    between atoms: C_23  and  N_24 
REMARK    9  A    between atoms: N_24  and  C_25 
ROOT
HETATM    1  C   UNL     1       6.584  25.422  54.365  1.00  0.00     0.067 C 
HETATM    2  C   UNL     1       7.017  25.989  52.985  1.00  0.00     0.001 C 
HETATM    3  C   UNL     1       6.246  27.290  52.672  1.00  0.00     0.040 C 
HETATM    4  C   UNL     1       4.735  27.018  52.562  1.00  0.00     0.206 C 
HETATM    5  N   UNL     1       4.499  25.563  52.991  1.00  0.00    -0.065 N 
HETATM    6  H   UNL     1       3.486  25.378  53.000  1.00  0.00     0.280 HD
HETATM    7  C   UNL     1       5.049  25.269  54.391  1.00  0.00     0.246 C 
HETATM    8  C   UNL     1       6.635  24.950  51.911  1.00  0.00     0.033 C 
HETATM    9  C   UNL     1       5.140  24.625  51.980  1.00  0.00     0.236 C 
ENDROOT
BRANCH   1  10
HETATM   10  C   UNL     1       7.134  26.235  55.503  1.00  0.00     0.038 A 
HETATM   11  N   UNL     1       7.951  25.714  56.480  1.00  0.00    -0.277 N 
HETATM   12  C   UNL     1       8.377  24.343  56.653  1.00  0.00     0.179 C 
HETATM   13  N   UNL     1       8.407  26.631  57.339  1.00  0.00    -0.172 NA
HETATM   14  C   UNL     1       7.870  27.795  56.951  1.00  0.00     0.089 A 
HETATM   15  C   UNL     1       7.029  27.578  55.825  1.00  0.00     0.061 A 
BRANCH  14  16
HETATM   16  C   UNL     1       8.194  29.057  57.628  1.00  0.00    -0.003 A 
HETATM   17  C   UNL     1       7.164  29.864  58.142  1.00  0.00     0.053 A 
HETATM   18  C   UNL     1       7.445  31.055  58.822  1.00  0.00     0.102 A 
HETATM   19  C   UNL     1       8.783  31.461  58.990  1.00  0.00     0.101 A 
HETATM   20  C   UNL     1       9.811  30.664  58.480  1.00  0.00     0.040 A 
HETATM   21  C   UNL     1       9.520  29.473  57.804  1.00  0.00     0.017 A 
BRANCH  18  22
HETATM   22  O   UNL     1       6.492  31.886  59.358  1.00  0.00    -0.353 OA
HETATM   23  C   UNL     1       5.184  31.837  58.806  1.00  0.00     0.210 C 
ENDBRANCH  18  22
BRANCH  19  24
HETATM   24  O   UNL     1       8.976  32.634  59.674  1.00  0.00    -0.353 OA
HETATM   25  C   UNL     1       9.323  32.546  61.049  1.00  0.00     0.210 C 
ENDBRANCH  19  24
ENDBRANCH  14  16
ENDBRANCH   1  10
BRANCH   4  26
HETATM   26  C   UNL     1       3.823  27.986  53.343  1.00  0.00     0.155 C 
BRANCH  26  27
HETATM   27  N   UNL     1       2.877  28.729  52.522  1.00  0.00    -0.365 N 
HETATM   28  H   UNL     1       1.893  28.705  52.775  1.00  0.00     0.161 HD
BRANCH  27  29
HETATM   29  C   UNL     1       3.197  29.864  51.817  1.00  0.00     0.172 C 
HETATM   30  S   UNL     1       3.042  31.427  52.385  1.00  0.00    -0.041 SA
BRANCH  29  31
HETATM   31  N   UNL     1       3.612  29.681  50.530  1.00  0.00    -0.333 N 
HETATM   32  H   UNL     1       4.262  30.395  50.209  1.00  0.00     0.168 HD
BRANCH  31  33
HETATM   33  C   UNL     1       3.431  28.595  49.650  1.00  0.00     0.034 A 
HETATM   34  C   UNL     1       4.485  27.815  49.163  1.00  0.00     0.031 A 
HETATM   35  C   UNL     1       4.239  26.784  48.251  1.00  0.00     0.026 A 
HETATM   36  C   UNL     1       2.939  26.534  47.820  1.00  0.00     0.034 A 
HETATM   37 CL   UNL     1       2.640  25.265  46.699  1.00  0.00    -0.084 Cl
HETATM   38  C   UNL     1       1.884  27.317  48.281  1.00  0.00     0.026 A 
HETATM   39  C   UNL     1       2.134  28.353  49.185  1.00  0.00     0.031 A 
ENDBRANCH  31  33
ENDBRANCH  29  31
ENDBRANCH  27  29
ENDBRANCH  26  27
ENDBRANCH   4  26
TORSDOF 9
ENDMDL
MODEL 5
REMARK VINA RESULT:      -8.7      5.400     10.584
REMARK  9 active torsions:
REMARK  status: ('A' for Active; 'I' for Inactive)
REMARK    1  A    between atoms: C_4  and  C_5 
REMARK    2  A    between atoms: C_7  and  O_8 
REMARK    3  A    between atoms: C_10  and  O_11 
REMARK    4  A    between atoms: C_16  and  C_17 
REMARK    5  A    between atoms: C_20  and  C_21 
REMARK    6  A    between atoms: C_21  and  N_22 
REMARK    7  A    between atoms: N_22  and  C_23 
REMARK    8  A    between atoms: C_23  and  N_24 
REMARK    9  A    between atoms: N_24  and  C_25 
ROOT
HETATM    1  C   UNL     1       7.003  24.562  55.115  1.00  0.00     0.067 C 
HETATM    2  C   UNL     1       8.239  24.537  54.175  1.00  0.00     0.001 C 
HETATM    3  C   UNL     1       8.121  25.640  53.101  1.00  0.00     0.040 C 
HETATM    4  C   UNL     1       6.898  25.398  52.199  1.00  0.00     0.206 C 
HETATM    5  N   UNL     1       6.106  24.231  52.804  1.00  0.00    -0.065 N 
HETATM    6  H   UNL     1       5.240  24.097  52.262  1.00  0.00     0.280 HD
HETATM    7  C   UNL     1       5.718  24.482  54.265  1.00  0.00     0.246 C 
HETATM    8  C   UNL     1       8.246  23.177  53.447  1.00  0.00     0.033 C 
HETATM    9  C   UNL     1       6.926  22.954  52.704  1.00  0.00     0.236 C 
ENDROOT
BRANCH   1  10
HETATM   10  C   UNL     1       7.038  25.733  56.057  1.00  0.00     0.038 A 
HETATM   11  N   UNL     1       7.889  25.812  57.136  1.00  0.00    -0.277 N 
HETATM   12  C   UNL     1       8.827  24.818  57.610  1.00  0.00     0.179 C 
HETATM   13  N   UNL     1       7.825  26.980  57.781  1.00  0.00    -0.172 NA
HETATM   14  C   UNL     1       6.896  27.701  57.141  1.00  0.00     0.089 A 
HETATM   15  C   UNL     1       6.348  26.934  56.077  1.00  0.00     0.061 A 
BRANCH  14  16
HETATM   16  C   UNL     1       6.590  29.084  57.532  1.00  0.00    -0.003 A 
HETATM   17  C   UNL     1       7.592  29.892  58.097  1.00  0.00     0.053 A 
HETATM   18  C   UNL     1       7.340  31.224  58.448  1.00  0.00     0.102 A 
HETATM   19  C   UNL     1       6.057  31.766  58.239  1.00  0.00     0.101 A 
HETATM   20  C   UNL     1       5.057  30.967  57.678  1.00  0.00     0.040 A 
HETATM   21  C   UNL     1       5.321  29.637  57.328  1.00  0.00     0.017 A 
BRANCH  18  22
HETATM   22  O   UNL     1       8.270  32.073  58.993  1.00  0.00    -0.353 OA
HETATM   23  C   UNL     1       9.624  31.645  59.017  1.00  0.00     0.210 C 
ENDBRANCH  18  22
BRANCH  19  24
HETATM   24  O   UNL     1       5.891  33.080  58.598  1.00  0.00    -0.353 OA
HETATM   25  C   UNL     1       4.580  33.511  58.934  1.00  0.00     0.210 C 
ENDBRANCH  19  24
ENDBRANCH  14  16
ENDBRANCH   1  10
BRANCH   4  26
HETATM   26  C   UNL     1       5.992  26.622  51.957  1.00  0.00     0.155 C 
BRANCH  26  27
HETATM   27  N   UNL     1       5.638  26.855  50.563  1.00  0.00    -0.365 N 
HETATM   28  H   UNL     1       5.534  26.051  49.950  1.00  0.00     0.161 HD
BRANCH  27  29
HETATM   29  C   UNL     1       4.909  27.933  50.125  1.00  0.00     0.172 C 
HETATM   30  S   UNL     1       5.545  29.417  49.697  1.00  0.00    -0.041 SA
BRANCH  29  31
HETATM   31  N   UNL     1       3.552  27.779  50.106  1.00  0.00    -0.333 N 
HETATM   32  H   UNL     1       3.124  27.857  51.025  1.00  0.00     0.168 HD
BRANCH  31  33
HETATM   33  C   UNL     1       2.650  27.708  49.026  1.00  0.00     0.034 A 
HETATM   34  C   UNL     1       2.617  26.645  48.119  1.00  0.00     0.031 A 
HETATM   35  C   UNL     1       1.729  26.663  47.038  1.00  0.00     0.026 A 
HETATM   36  C   UNL     1       0.876  27.750  46.859  1.00  0.00     0.034 A 
HETATM   37 CL   UNL     1      -0.214  27.769  45.530  1.00  0.00    -0.084 Cl
HETATM   38  C   UNL     1       0.915  28.824  47.743  1.00  0.00     0.026 A 
HETATM   39  C   UNL     1       1.809  28.807  48.818  1.00  0.00     0.031 A 
ENDBRANCH  31  33
ENDBRANCH  29  31
ENDBRANCH  27  29
ENDBRANCH  26  27
ENDBRANCH   4  26
TORSDOF 9
ENDMDL
MODEL 6
REMARK VINA RESULT:      -8.7      3.432      5.360
REMARK  9 active torsions:
REMARK  status: ('A' for Active; 'I' for Inactive)
REMARK    1  A    between atoms: C_4  and  C_5 
REMARK    2  A    between atoms: C_7  and  O_8 
REMARK    3  A    between atoms: C_10  and  O_11 
REMARK    4  A    between atoms: C_16  and  C_17 
REMARK    5  A    between atoms: C_20  and  C_21 
REMARK    6  A    between atoms: C_21  and  N_22 
REMARK    7  A    between atoms: N_22  and  C_23 
REMARK    8  A    between atoms: C_23  and  N_24 
REMARK    9  A    between atoms: N_24  and  C_25 
ROOT
HETATM    1  C   UNL     1       3.650  28.927  50.351  1.00  0.00     0.067 C 
HETATM    2  C   UNL     1       4.575  30.166  50.202  1.00  0.00     0.001 C 
HETATM    3  C   UNL     1       4.912  30.755  51.590  1.00  0.00     0.040 C 
HETATM    4  C   UNL     1       3.641  31.259  52.294  1.00  0.00     0.206 C 
HETATM    5  N   UNL     1       2.441  30.826  51.440  1.00  0.00    -0.065 N 
HETATM    6  H   UNL     1       1.572  31.085  51.929  1.00  0.00     0.280 HD
HETATM    7  C   UNL     1       2.415  29.315  51.190  1.00  0.00     0.246 C 
HETATM    8  C   UNL     1       3.796  31.241  49.416  1.00  0.00     0.033 C 
HETATM    9  C   UNL     1       2.471  31.565  50.112  1.00  0.00     0.236 C 
ENDROOT
BRANCH   1  10
HETATM   10  C   UNL     1       4.393  27.732  50.877  1.00  0.00     0.038 A 
HETATM   11  N   UNL     1       4.724  26.644  50.101  1.00  0.00    -0.277 N 
HETATM   12  C   UNL     1       4.390  26.399  48.715  1.00  0.00     0.179 C 
HETATM   13  N   UNL     1       5.470  25.740  50.741  1.00  0.00    -0.172 NA
HETATM   14  C   UNL     1       5.630  26.211  51.984  1.00  0.00     0.089 A 
HETATM   15  C   UNL     1       4.931  27.442  52.119  1.00  0.00     0.061 A 
BRANCH  14  16
HETATM   16  C   UNL     1       6.457  25.509  52.974  1.00  0.00    -0.003 A 
HETATM   17  C   UNL     1       7.160  24.348  52.606  1.00  0.00     0.053 A 
HETATM   18  C   UNL     1       7.983  23.676  53.518  1.00  0.00     0.102 A 
HETATM   19  C   UNL     1       8.105  24.165  54.834  1.00  0.00     0.101 A 
HETATM   20  C   UNL     1       7.407  25.317  55.206  1.00  0.00     0.040 A 
HETATM   21  C   UNL     1       6.590  25.982  54.285  1.00  0.00     0.017 A 
BRANCH  18  22
HETATM   22  O   UNL     1       8.706  22.546  53.226  1.00  0.00    -0.353 OA
HETATM   23  C   UNL     1       7.993  21.328  53.063  1.00  0.00     0.210 C 
ENDBRANCH  18  22
BRANCH  19  24
HETATM   24  O   UNL     1       8.937  23.458  55.665  1.00  0.00    -0.353 OA
HETATM   25  C   UNL     1       8.354  22.812  56.788  1.00  0.00     0.210 C 
ENDBRANCH  19  24
ENDBRANCH  14  16
ENDBRANCH   1  10
BRANCH   4  26
HETATM   26  C   UNL     1       3.470  30.817  53.762  1.00  0.00     0.155 C 
BRANCH  26  27
HETATM   27  N   UNL     1       4.701  30.407  54.424  1.00  0.00    -0.365 N 
HETATM   28  H   UNL     1       5.568  30.867  54.161  1.00  0.00     0.161 HD
BRANCH  27  29
HETATM   29  C   UNL     1       4.755  29.901  55.700  1.00  0.00     0.172 C 
HETATM   30  S   UNL     1       3.770  30.367  56.965  1.00  0.00    -0.041 SA
BRANCH  29  31
HETATM   31  N   UNL     1       5.743  28.991  55.949  1.00  0.00    -0.333 N 
HETATM   32  H   UNL     1       5.492  28.041  55.686  1.00  0.00     0.168 HD
BRANCH  31  33
HETATM   33  C   UNL     1       7.085  29.173  56.337  1.00  0.00     0.034 A 
HETATM   34  C   UNL     1       7.470  29.532  57.632  1.00  0.00     0.031 A 
HETATM   35  C   UNL     1       8.818  29.747  57.936  1.00  0.00     0.026 A 
HETATM   36  C   UNL     1       9.784  29.611  56.942  1.00  0.00     0.034 A 
HETATM   37 CL   UNL     1      11.440  29.876  57.319  1.00  0.00    -0.084 Cl
HETATM   38  C   UNL     1       9.411  29.275  55.644  1.00  0.00     0.026 A 
HETATM   39  C   UNL     1       8.062  29.069  55.341  1.00  0.00     0.031 A 
ENDBRANCH  31  33
ENDBRANCH  29  31
ENDBRANCH  27  29
ENDBRANCH  26  27
ENDBRANCH   4  26
TORSDOF 9
ENDMDL
MODEL 7
REMARK VINA RESULT:      -8.6      4.612      7.926
REMARK  9 active torsions:
REMARK  status: ('A' for Active; 'I' for Inactive)
REMARK    1  A    between atoms: C_4  and  C_5 
REMARK    2  A    between atoms: C_7  and  O_8 
REMARK    3  A    between atoms: C_10  and  O_11 
REMARK    4  A    between atoms: C_16  and  C_17 
REMARK    5  A    between atoms: C_20  and  C_21 
REMARK    6  A    between atoms: C_21  and  N_22 
REMARK    7  A    between atoms: N_22  and  C_23 
REMARK    8  A    between atoms: C_23  and  N_24 
REMARK    9  A    between atoms: N_24  and  C_25 
ROOT
HETATM    1  C   UNL     1       3.843  31.172  55.700  1.00  0.00     0.067 C 
HETATM    2  C   UNL     1       5.288  31.523  56.151  1.00  0.00     0.001 C 
HETATM    3  C   UNL     1       6.135  30.239  56.292  1.00  0.00     0.040 C 
HETATM    4  C   UNL     1       5.561  29.322  57.385  1.00  0.00     0.206 C 
HETATM    5  N   UNL     1       4.222  29.925  57.835  1.00  0.00    -0.065 N 
HETATM    6  H   UNL     1       3.780  29.288  58.513  1.00  0.00     0.280 HD
HETATM    7  C   UNL     1       3.250  30.126  56.667  1.00  0.00     0.246 C 
HETATM    8  C   UNL     1       5.197  32.177  57.546  1.00  0.00     0.033 C 
HETATM    9  C   UNL     1       4.472  31.254  58.529  1.00  0.00     0.236 C 
ENDROOT
BRANCH   1  10
HETATM   10  C   UNL     1       3.790  30.765  54.255  1.00  0.00     0.038 A 
HETATM   11  N   UNL     1       3.791  31.664  53.214  1.00  0.00    -0.277 N 
HETATM   12  C   UNL     1       3.775  33.109  53.280  1.00  0.00     0.179 C 
HETATM   13  N   UNL     1       3.841  31.087  52.010  1.00  0.00    -0.172 NA
HETATM   14  C   UNL     1       3.851  29.767  52.237  1.00  0.00     0.089 A 
HETATM   15  C   UNL     1       3.777  29.525  53.636  1.00  0.00     0.061 A 
BRANCH  14  16
HETATM   16  C   UNL     1       3.965  28.797  51.140  1.00  0.00    -0.003 A 
HETATM   17  C   UNL     1       3.446  29.108  49.871  1.00  0.00     0.053 A 
HETATM   18  C   UNL     1       3.570  28.218  48.797  1.00  0.00     0.102 A 
HETATM   19  C   UNL     1       4.219  26.983  48.990  1.00  0.00     0.101 A 
HETATM   20  C   UNL     1       4.735  26.668  50.250  1.00  0.00     0.040 A 
HETATM   21  C   UNL     1       4.609  27.567  51.316  1.00  0.00     0.017 A 
BRANCH  18  22
HETATM   22  O   UNL     1       3.099  28.459  47.531  1.00  0.00    -0.353 OA
HETATM   23  C   UNL     1       2.386  29.667  47.308  1.00  0.00     0.210 C 
ENDBRANCH  18  22
BRANCH  19  24
HETATM   24  O   UNL     1       4.309  26.170  47.888  1.00  0.00    -0.353 OA
HETATM   25  C   UNL     1       3.311  25.174  47.720  1.00  0.00     0.210 C 
ENDBRANCH  19  24
ENDBRANCH  14  16
ENDBRANCH   1  10
BRANCH   4  26
HETATM   26  C   UNL     1       5.403  27.837  56.998  1.00  0.00     0.155 C 
BRANCH  26  27
HETATM   27  N   UNL     1       6.612  27.208  56.485  1.00  0.00    -0.365 N 
HETATM   28  H   UNL     1       7.198  26.685  57.132  1.00  0.00     0.161 HD
BRANCH  27  29
HETATM   29  C   UNL     1       6.763  26.772  55.191  1.00  0.00     0.172 C 
HETATM   30  S   UNL     1       7.452  27.655  53.952  1.00  0.00    -0.041 SA
BRANCH  29  31
HETATM   31  N   UNL     1       6.245  25.543  54.901  1.00  0.00    -0.333 N 
HETATM   32  H   UNL     1       5.227  25.528  54.880  1.00  0.00     0.168 HD
BRANCH  31  33
HETATM   33  C   UNL     1       6.872  24.360  54.463  1.00  0.00     0.034 A 
HETATM   34  C   UNL     1       7.138  24.083  53.118  1.00  0.00     0.031 A 
HETATM   35  C   UNL     1       7.717  22.865  52.748  1.00  0.00     0.026 A 
HETATM   36  C   UNL     1       8.026  21.919  53.721  1.00  0.00     0.034 A 
HETATM   37 CL   UNL     1       8.738  20.423  53.263  1.00  0.00    -0.084 Cl
HETATM   38  C   UNL     1       7.746  22.174  55.061  1.00  0.00     0.026 A 
HETATM   39  C   UNL     1       7.159  23.389  55.427  1.00  0.00     0.031 A 
ENDBRANCH  31  33
ENDBRANCH  29  31
ENDBRANCH  27  29
ENDBRANCH  26  27
ENDBRANCH   4  26
TORSDOF 9
ENDMDL
MODEL 8
REMARK VINA RESULT:      -8.5      5.167      9.952
REMARK  9 active torsions:
REMARK  status: ('A' for Active; 'I' for Inactive)
REMARK    1  A    between atoms: C_4  and  C_5 
REMARK    2  A    between atoms: C_7  and  O_8 
REMARK    3  A    between atoms: C_10  and  O_11 
REMARK    4  A    between atoms: C_16  and  C_17 
REMARK    5  A    between atoms: C_20  and  C_21 
REMARK    6  A    between atoms: C_21  and  N_22 
REMARK    7  A    between atoms: N_22  and  C_23 
REMARK    8  A    between atoms: C_23  and  N_24 
REMARK    9  A    between atoms: N_24  and  C_25 
ROOT
HETATM    1  C   UNL     1       6.852  24.787  55.054  1.00  0.00     0.067 C 
HETATM    2  C   UNL     1       8.065  24.823  54.084  1.00  0.00     0.001 C 
HETATM    3  C   UNL     1       7.895  25.959  53.051  1.00  0.00     0.040 C 
HETATM    4  C   UNL     1       6.656  25.719  52.172  1.00  0.00     0.206 C 
HETATM    5  N   UNL     1       5.905  24.514  52.756  1.00  0.00    -0.065 N 
HETATM    6  H   UNL     1       5.030  24.379  52.230  1.00  0.00     0.280 HD
HETATM    7  C   UNL     1       5.548  24.707  54.233  1.00  0.00     0.246 C 
HETATM    8  C   UNL     1       8.084  23.488  53.310  1.00  0.00     0.033 C 
HETATM    9  C   UNL     1       6.751  23.261  52.591  1.00  0.00     0.236 C 
ENDROOT
BRANCH   1  10
HETATM   10  C   UNL     1       6.885  25.926  56.035  1.00  0.00     0.038 A 
HETATM   11  N   UNL     1       7.718  25.959  57.129  1.00  0.00    -0.277 N 
HETATM   12  C   UNL     1       8.637  24.939  57.585  1.00  0.00     0.179 C 
HETATM   13  N   UNL     1       7.657  27.106  57.812  1.00  0.00    -0.172 NA
HETATM   14  C   UNL     1       6.748  27.859  57.181  1.00  0.00     0.089 A 
HETATM   15  C   UNL     1       6.209  27.133  56.083  1.00  0.00     0.061 A 
BRANCH  14  16
HETATM   16  C   UNL     1       6.451  29.231  57.612  1.00  0.00    -0.003 A 
HETATM   17  C   UNL     1       7.463  30.023  58.182  1.00  0.00     0.053 A 
HETATM   18  C   UNL     1       7.220  31.346  58.571  1.00  0.00     0.102 A 
HETATM   19  C   UNL     1       5.935  31.896  58.396  1.00  0.00     0.101 A 
HETATM   20  C   UNL     1       4.924  31.113  57.831  1.00  0.00     0.040 A 
HETATM   21  C   UNL     1       5.180  29.793  57.443  1.00  0.00     0.017 A 
BRANCH  18  22
HETATM   22  O   UNL     1       8.160  32.179  59.124  1.00  0.00    -0.353 OA
HETATM   23  C   UNL     1       9.503  31.718  59.176  1.00  0.00     0.210 C 
ENDBRANCH  18  22
BRANCH  19  24
HETATM   24  O   UNL     1       5.778  33.200  58.792  1.00  0.00    -0.353 OA
HETATM   25  C   UNL     1       4.956  33.451  59.922  1.00  0.00     0.210 C 
ENDBRANCH  19  24
ENDBRANCH  14  16
ENDBRANCH   1  10
BRANCH   4  26
HETATM   26  C   UNL     1       5.717  26.929  51.994  1.00  0.00     0.155 C 
BRANCH  26  27
HETATM   27  N   UNL     1       4.583  26.699  51.110  1.00  0.00    -0.365 N 
HETATM   28  H   UNL     1       3.646  26.855  51.472  1.00  0.00     0.161 HD
BRANCH  27  29
HETATM   29  C   UNL     1       4.633  26.836  49.744  1.00  0.00     0.172 C 
HETATM   30  S   UNL     1       3.762  25.920  48.651  1.00  0.00    -0.041 SA
BRANCH  29  31
HETATM   31  N   UNL     1       5.518  27.755  49.259  1.00  0.00    -0.333 N 
HETATM   32  H   UNL     1       6.417  27.354  49.002  1.00  0.00     0.168 HD
BRANCH  31  33
HETATM   33  C   UNL     1       5.337  29.105  48.898  1.00  0.00     0.034 A 
HETATM   34  C   UNL     1       4.713  29.507  47.713  1.00  0.00     0.031 A 
HETATM   35  C   UNL     1       4.613  30.865  47.391  1.00  0.00     0.026 A 
HETATM   36  C   UNL     1       5.143  31.823  48.252  1.00  0.00     0.034 A 
HETATM   37 CL   UNL     1       5.019  33.490  47.853  1.00  0.00    -0.084 Cl
HETATM   38  C   UNL     1       5.786  31.433  49.424  1.00  0.00     0.026 A 
HETATM   39  C   UNL     1       5.892  30.076  49.738  1.00  0.00     0.031 A 
ENDBRANCH  31  33
ENDBRANCH  29  31
ENDBRANCH  27  29
ENDBRANCH  26  27
ENDBRANCH   4  26
TORSDOF 9
ENDMDL
MODEL 9
REMARK VINA RESULT:      -8.3      3.810      5.975
REMARK  9 active torsions:
REMARK  status: ('A' for Active; 'I' for Inactive)
REMARK    1  A    between atoms: C_4  and  C_5 
REMARK    2  A    between atoms: C_7  and  O_8 
REMARK    3  A    between atoms: C_10  and  O_11 
REMARK    4  A    between atoms: C_16  and  C_17 
REMARK    5  A    between atoms: C_20  and  C_21 
REMARK    6  A    between atoms: C_21  and  N_22 
REMARK    7  A    between atoms: N_22  and  C_23 
REMARK    8  A    between atoms: C_23  and  N_24 
REMARK    9  A    between atoms: N_24  and  C_25 
ROOT
HETATM    1  C   UNL     1       7.437  26.212  54.934  1.00  0.00     0.067 C 
HETATM    2  C   UNL     1       6.607  25.285  55.864  1.00  0.00     0.001 C 
HETATM    3  C   UNL     1       5.287  25.974  56.273  1.00  0.00     0.040 C 
HETATM    4  C   UNL     1       5.565  27.250  57.086  1.00  0.00     0.206 C 
HETATM    5  N   UNL     1       7.080  27.497  57.050  1.00  0.00    -0.065 N 
HETATM    6  H   UNL     1       7.284  28.389  57.523  1.00  0.00     0.280 HD
HETATM    7  C   UNL     1       7.625  27.582  55.620  1.00  0.00     0.246 C 
HETATM    8  C   UNL     1       7.430  25.053  57.149  1.00  0.00     0.033 C 
HETATM    9  C   UNL     1       7.793  26.388  57.806  1.00  0.00     0.236 C 
ENDROOT
BRANCH   1  10
HETATM   10  C   UNL     1       6.846  26.298  53.555  1.00  0.00     0.038 A 
HETATM   11  N   UNL     1       7.084  25.367  52.570  1.00  0.00    -0.277 N 
HETATM   12  C   UNL     1       7.954  24.213  52.621  1.00  0.00     0.179 C 
HETATM   13  N   UNL     1       6.381  25.581  51.453  1.00  0.00    -0.172 NA
HETATM   14  C   UNL     1       5.669  26.692  51.676  1.00  0.00     0.089 A 
HETATM   15  C   UNL     1       5.967  27.196  52.972  1.00  0.00     0.061 A 
BRANCH  14  16
HETATM   16  C   UNL     1       4.718  27.210  50.684  1.00  0.00    -0.003 A 
HETATM   17  C   UNL     1       3.974  28.370  50.962  1.00  0.00     0.053 A 
HETATM   18  C   UNL     1       3.086  28.907  50.023  1.00  0.00     0.102 A 
HETATM   19  C   UNL     1       2.925  28.271  48.777  1.00  0.00     0.101 A 
HETATM   20  C   UNL     1       3.660  27.117  48.495  1.00  0.00     0.040 A 
HETATM   21  C   UNL     1       4.548  26.590  49.440  1.00  0.00     0.017 A 
BRANCH  18  22
HETATM   22  O   UNL     1       2.336  30.040  50.221  1.00  0.00    -0.353 OA
HETATM   23  C   UNL     1       2.993  31.185  50.746  1.00  0.00     0.210 C 
ENDBRANCH  18  22
BRANCH  19  24
HETATM   24  O   UNL     1       2.044  28.863  47.907  1.00  0.00    -0.353 OA
HETATM   25  C   UNL     1       2.583  29.550  46.787  1.00  0.00     0.210 C 
ENDBRANCH  19  24
ENDBRANCH  14  16
ENDBRANCH   1  10
BRANCH   4  26
HETATM   26  C   UNL     1       4.784  28.506  56.648  1.00  0.00     0.155 C 
BRANCH  26  27
HETATM   27  N   UNL     1       4.627  29.520  57.682  1.00  0.00    -0.365 N 
HETATM   28  H   UNL     1       4.607  29.222  58.653  1.00  0.00     0.161 HD
BRANCH  27  29
HETATM   29  C   UNL     1       5.051  30.821  57.554  1.00  0.00     0.172 C 
HETATM   30  S   UNL     1       4.155  32.064  56.890  1.00  0.00    -0.041 SA
BRANCH  29  31
HETATM   31  N   UNL     1       6.331  31.083  57.947  1.00  0.00    -0.333 N 
HETATM   32  H   UNL     1       6.985  31.160  57.171  1.00  0.00     0.168 HD
BRANCH  31  33
HETATM   33  C   UNL     1       6.853  31.431  59.209  1.00  0.00     0.034 A 
HETATM   34  C   UNL     1       7.989  30.832  59.764  1.00  0.00     0.031 A 
HETATM   35  C   UNL     1       8.422  31.189  61.045  1.00  0.00     0.026 A 
HETATM   36  C   UNL     1       7.717  32.142  61.776  1.00  0.00     0.034 A 
HETATM   37 CL   UNL     1       8.253  32.578  63.350  1.00  0.00    -0.084 Cl
HETATM   38  C   UNL     1       6.573  32.729  61.243  1.00  0.00     0.026 A 
HETATM   39  C   UNL     1       6.137  32.364  59.966  1.00  0.00     0.031 A 
ENDBRANCH  31  33
ENDBRANCH  29  31
ENDBRANCH  27  29
ENDBRANCH  26  27
ENDBRANCH   4  26
TORSDOF 9
ENDMDL
MODEL 10
REMARK VINA RESULT:      -8.3      2.816      4.635
REMARK  9 active torsions:
REMARK  status: ('A' for Active; 'I' for Inactive)
REMARK    1  A    between atoms: C_4  and  C_5 
REMARK    2  A    between atoms: C_7  and  O_8 
REMARK    3  A    between atoms: C_10  and  O_11 
REMARK    4  A    between atoms: C_16  and  C_17 
REMARK    5  A    between atoms: C_20  and  C_21 
REMARK    6  A    between atoms: C_21  and  N_22 
REMARK    7  A    between atoms: N_22  and  C_23 
REMARK    8  A    between atoms: C_23  and  N_24 
REMARK    9  A    between atoms: N_24  and  C_25 
ROOT
HETATM    1  C   UNL     1       3.454  29.044  50.369  1.00  0.00     0.067 C 
HETATM    2  C   UNL     1       4.343  30.298  50.144  1.00  0.00     0.001 C 
HETATM    3  C   UNL     1       4.832  30.860  51.497  1.00  0.00     0.040 C 
HETATM    4  C   UNL     1       3.646  31.331  52.356  1.00  0.00     0.206 C 
HETATM    5  N   UNL     1       2.360  30.902  51.636  1.00  0.00    -0.065 N 
HETATM    6  H   UNL     1       1.551  31.138  52.229  1.00  0.00     0.280 HD
HETATM    7  C   UNL     1       2.320  29.396  51.355  1.00  0.00     0.246 C 
HETATM    8  C   UNL     1       3.466  31.380  49.479  1.00  0.00     0.033 C 
HETATM    9  C   UNL     1       2.228  31.671  50.331  1.00  0.00     0.236 C 
ENDROOT
BRANCH   1  10
HETATM   10  C   UNL     1       4.265  27.847  50.776  1.00  0.00     0.038 A 
HETATM   11  N   UNL     1       4.644  26.855  49.901  1.00  0.00    -0.277 N 
HETATM   12  C   UNL     1       4.307  26.721  48.501  1.00  0.00     0.179 C 
HETATM   13  N   UNL     1       5.444  25.936  50.449  1.00  0.00    -0.172 NA
HETATM   14  C   UNL     1       5.595  26.299  51.729  1.00  0.00     0.089 A 
HETATM   15  C   UNL     1       4.833  27.473  51.983  1.00  0.00     0.061 A 
BRANCH  14  16
HETATM   16  C   UNL     1       6.469  25.554  52.644  1.00  0.00    -0.003 A 
HETATM   17  C   UNL     1       6.370  25.757  54.032  1.00  0.00     0.053 A 
HETATM   18  C   UNL     1       7.166  25.036  54.931  1.00  0.00     0.102 A 
HETATM   19  C   UNL     1       8.091  24.094  54.439  1.00  0.00     0.101 A 
HETATM   20  C   UNL     1       8.194  23.890  53.060  1.00  0.00     0.040 A 
HETATM   21  C   UNL     1       7.391  24.613  52.171  1.00  0.00     0.017 A 
BRANCH  18  22
HETATM   22  O   UNL     1       7.116  25.174  56.295  1.00  0.00    -0.353 OA
HETATM   23  C   UNL     1       5.837  25.184  56.914  1.00  0.00     0.210 C 
ENDBRANCH  18  22
BRANCH  19  24
HETATM   24  O   UNL     1       8.827  23.422  55.381  1.00  0.00    -0.353 OA
HETATM   25  C   UNL     1       9.255  22.105  55.068  1.00  0.00     0.210 C 
ENDBRANCH  19  24
ENDBRANCH  14  16
ENDBRANCH   1  10
BRANCH   4  26
HETATM   26  C   UNL     1       3.652  30.853  53.822  1.00  0.00     0.155 C 
BRANCH  26  27
HETATM   27  N   UNL     1       4.976  30.655  54.396  1.00  0.00    -0.365 N 
HETATM   28  H   UNL     1       5.595  31.457  54.474  1.00  0.00     0.161 HD
BRANCH  27  29
HETATM   29  C   UNL     1       5.276  29.684  55.320  1.00  0.00     0.172 C 
HETATM   30  S   UNL     1       4.208  28.531  55.887  1.00  0.00    -0.041 SA
BRANCH  29  31
HETATM   31  N   UNL     1       6.532  29.721  55.853  1.00  0.00    -0.333 N 
HETATM   32  H   UNL     1       7.263  29.503  55.179  1.00  0.00     0.168 HD
BRANCH  31  33
HETATM   33  C   UNL     1       6.987  30.175  57.107  1.00  0.00     0.034 A 
HETATM   34  C   UNL     1       8.058  29.594  57.793  1.00  0.00     0.031 A 
HETATM   35  C   UNL     1       8.424  30.061  59.059  1.00  0.00     0.026 A 
HETATM   36  C   UNL     1       7.714  31.106  59.646  1.00  0.00     0.034 A 
HETATM   37 CL   UNL     1       8.167  31.678  61.202  1.00  0.00    -0.084 Cl
HETATM   38  C   UNL     1       6.632  31.678  58.982  1.00  0.00     0.026 A 
HETATM   39  C   UNL     1       6.263  31.203  57.720  1.00  0.00     0.031 A 
ENDBRANCH  31  33
ENDBRANCH  29  31
ENDBRANCH  27  29
ENDBRANCH  26  27
ENDBRANCH   4  26
TORSDOF 9
ENDMDL
