MODEL 1
REMARK VINA RESULT:      -8.4      0.000      0.000
REMARK  6 active torsions:
REMARK  status: ('A' for Active; 'I' for Inactive)
REMARK    1  A    between atoms: C_3  and  N_4 
REMARK    2  A    between atoms: N_4  and  C_5 
REMARK    3  A    between atoms: C_5  and  C_6 
REMARK    4  A    between atoms: N_8  and  C_10 
REMARK    5  A    between atoms: C_10  and  C_11 
REMARK    6  A    between atoms: C_12  and  O_13 
ROOT
HETATM    1  C   UNL     1       8.365  30.471  58.168  1.00  0.00     0.026 C 
HETATM    2  C   UNL     1       7.880  29.076  58.544  1.00  0.00     0.241 C 
HETATM    3  N   UNL     1       8.402  28.197  57.433  1.00  0.00    -0.067 N 
HETATM    4  H   UNL     1       8.821  27.348  57.859  1.00  0.00     0.280 HD
HETATM    5  C   UNL     1       9.486  28.953  56.703  1.00  0.00     0.235 C 
HETATM    6  C   UNL     1       9.740  30.175  57.573  1.00  0.00     0.035 C 
ENDROOT
BRANCH   3   7
HETATM    7  C   UNL     1       7.347  27.620  56.518  1.00  0.00     0.276 C 
BRANCH   7   8
HETATM    8  C   UNL     1       7.586  26.176  56.173  1.00  0.00     0.002 A 
HETATM    9  C   UNL     1       7.870  25.230  57.168  1.00  0.00     0.073 A 
HETATM   10  C   UNL     1       8.121  23.896  56.852  1.00  0.00     0.038 A 
HETATM   11  C   UNL     1       8.087  23.489  55.518  1.00  0.00     0.022 A 
HETATM   12  C   UNL     1       7.810  24.417  54.517  1.00  0.00     0.011 A 
HETATM   13 BR   UNL     1       7.754  23.865  52.711  1.00  0.00    -0.051 Br
HETATM   14  C   UNL     1       7.567  25.754  54.835  1.00  0.00     0.030 A 
BRANCH   9  15
HETATM   15  O   UNL     1       7.871  25.644  58.474  1.00  0.00    -0.360 OA
HETATM   16  H   UNL     1       7.067  25.275  58.899  1.00  0.00     0.217 HD
ENDBRANCH   9  15
ENDBRANCH   7   8
ENDBRANCH   3   7
BRANCH   1  17
HETATM   17  C   UNL     1       8.383  31.449  59.351  1.00  0.00     0.100 C 
BRANCH  17  18
HETATM   18  N   UNL     1       7.778  30.812  60.517  1.00  0.00    -0.279 NA
HETATM   19  H   UNL     1       8.282  29.969  60.809  1.00  0.00     0.129 HD
BRANCH  18  20
HETATM   20  C   UNL     1       7.388  31.522  61.653  1.00  0.00     0.079 A 
HETATM   21  C   UNL     1       8.369  32.112  62.465  1.00  0.00     0.042 A 
HETATM   22  C   UNL     1       8.011  32.794  63.625  1.00  0.00     0.005 A 
HETATM   23  C   UNL     1       6.675  32.864  63.987  1.00  0.00     0.017 A 
HETATM   24  C   UNL     1       5.733  32.239  63.186  1.00  0.00     0.089 A 
HETATM   25  N   UNL     1       6.112  31.591  62.071  1.00  0.00    -0.357 N 
HETATM   26  H   UNL     1       5.396  31.122  61.531  1.00  0.00     0.166 HD
ENDBRANCH  18  20
ENDBRANCH  17  18
ENDBRANCH   1  17
TORSDOF 6
ENDMDL
MODEL 2
REMARK VINA RESULT:      -8.3      2.111      2.940
REMARK  6 active torsions:
REMARK  status: ('A' for Active; 'I' for Inactive)
REMARK    1  A    between atoms: C_3  and  N_4 
REMARK    2  A    between atoms: N_4  and  C_5 
REMARK    3  A    between atoms: C_5  and  C_6 
REMARK    4  A    between atoms: N_8  and  C_10 
REMARK    5  A    between atoms: C_10  and  C_11 
REMARK    6  A    between atoms: C_12  and  O_13 
ROOT
HETATM    1  C   UNL     1       7.312  28.501  57.300  1.00  0.00     0.026 C 
HETATM    2  C   UNL     1       7.954  27.254  56.703  1.00  0.00     0.241 C 
HETATM    3  N   UNL     1       7.207  27.044  55.408  1.00  0.00    -0.067 N 
HETATM    4  H   UNL     1       7.900  26.843  54.661  1.00  0.00     0.280 HD
HETATM    5  C   UNL     1       6.489  28.328  55.064  1.00  0.00     0.235 C 
HETATM    6  C   UNL     1       7.042  29.342  56.054  1.00  0.00     0.035 C 
ENDROOT
BRANCH   3   7
HETATM    7  C   UNL     1       6.316  25.825  55.368  1.00  0.00     0.276 C 
BRANCH   7   8
HETATM    8  C   UNL     1       6.962  24.640  54.705  1.00  0.00     0.002 A 
HETATM    9  C   UNL     1       7.400  24.700  53.375  1.00  0.00     0.073 A 
HETATM   10  C   UNL     1       7.974  23.597  52.748  1.00  0.00     0.038 A 
HETATM   11  C   UNL     1       8.120  22.404  53.455  1.00  0.00     0.022 A 
HETATM   12  C   UNL     1       7.687  22.325  54.777  1.00  0.00     0.011 A 
HETATM   13 BR   UNL     1       7.894  20.714  55.741  1.00  0.00    -0.051 Br
HETATM   14  C   UNL     1       7.105  23.430  55.401  1.00  0.00     0.030 A 
BRANCH   9  15
HETATM   15  O   UNL     1       7.273  25.889  52.706  1.00  0.00    -0.360 OA
HETATM   16  H   UNL     1       7.500  25.723  51.765  1.00  0.00     0.217 HD
ENDBRANCH   9  15
ENDBRANCH   7   8
ENDBRANCH   3   7
BRANCH   1  17
HETATM   17  C   UNL     1       8.188  29.192  58.354  1.00  0.00     0.100 C 
BRANCH  17  18
HETATM   18  N   UNL     1       7.467  30.333  58.912  1.00  0.00    -0.279 NA
HETATM   19  H   UNL     1       6.452  30.198  58.903  1.00  0.00     0.129 HD
BRANCH  18  20
HETATM   20  C   UNL     1       7.831  30.949  60.110  1.00  0.00     0.079 A 
HETATM   21  C   UNL     1       9.181  31.258  60.340  1.00  0.00     0.042 A 
HETATM   22  C   UNL     1       9.579  31.838  61.543  1.00  0.00     0.005 A 
HETATM   23  C   UNL     1       8.631  32.085  62.524  1.00  0.00     0.017 A 
HETATM   24  C   UNL     1       7.313  31.733  62.282  1.00  0.00     0.089 A 
HETATM   25  N   UNL     1       6.962  31.178  61.109  1.00  0.00    -0.357 N 
HETATM   26  H   UNL     1       5.994  30.908  60.985  1.00  0.00     0.166 HD
ENDBRANCH  18  20
ENDBRANCH  17  18
ENDBRANCH   1  17
TORSDOF 6
ENDMDL
MODEL 3
REMARK VINA RESULT:      -8.2      1.265      1.815
REMARK  6 active torsions:
REMARK  status: ('A' for Active; 'I' for Inactive)
REMARK    1  A    between atoms: C_3  and  N_4 
REMARK    2  A    between atoms: N_4  and  C_5 
REMARK    3  A    between atoms: C_5  and  C_6 
REMARK    4  A    between atoms: N_8  and  C_10 
REMARK    5  A    between atoms: C_10  and  C_11 
REMARK    6  A    between atoms: C_12  and  O_13 
ROOT
HETATM    1  C   UNL     1       7.606  28.941  58.323  1.00  0.00     0.026 C 
HETATM    2  C   UNL     1       8.388  28.001  57.413  1.00  0.00     0.241 C 
HETATM    3  N   UNL     1       7.325  27.127  56.791  1.00  0.00    -0.067 N 
HETATM    4  H   UNL     1       7.516  27.058  55.773  1.00  0.00     0.280 HD
HETATM    5  C   UNL     1       5.988  27.802  56.985  1.00  0.00     0.235 C 
HETATM    6  C   UNL     1       6.339  29.186  57.506  1.00  0.00     0.035 C 
ENDROOT
BRANCH   3   7
HETATM    7  C   UNL     1       7.341  25.681  57.229  1.00  0.00     0.276 C 
BRANCH   7   8
HETATM    8  C   UNL     1       7.672  24.728  56.114  1.00  0.00     0.002 A 
HETATM    9  C   UNL     1       8.175  23.446  56.378  1.00  0.00     0.073 A 
HETATM   10  C   UNL     1       8.510  22.570  55.349  1.00  0.00     0.038 A 
HETATM   11  C   UNL     1       8.341  22.972  54.023  1.00  0.00     0.022 A 
HETATM   12  C   UNL     1       7.847  24.244  53.742  1.00  0.00     0.011 A 
HETATM   13 BR   UNL     1       7.608  24.785  51.948  1.00  0.00    -0.051 Br
HETATM   14  C   UNL     1       7.520  25.123  54.776  1.00  0.00     0.030 A 
BRANCH   9  15
HETATM   15  O   UNL     1       8.306  23.061  57.686  1.00  0.00    -0.360 OA
HETATM   16  H   UNL     1       9.266  22.982  57.875  1.00  0.00     0.217 HD
ENDBRANCH   9  15
ENDBRANCH   7   8
ENDBRANCH   3   7
BRANCH   1  17
HETATM   17  C   UNL     1       8.379  30.213  58.695  1.00  0.00     0.100 C 
BRANCH  17  18
HETATM   18  N   UNL     1       8.651  30.214  60.129  1.00  0.00    -0.279 NA
HETATM   19  H   UNL     1       9.652  30.157  60.339  1.00  0.00     0.129 HD
BRANCH  18  20
HETATM   20  C   UNL     1       8.054  31.114  61.014  1.00  0.00     0.079 A 
HETATM   21  C   UNL     1       8.744  31.494  62.175  1.00  0.00     0.042 A 
HETATM   22  C   UNL     1       8.158  32.361  63.095  1.00  0.00     0.005 A 
HETATM   23  C   UNL     1       6.872  32.826  62.866  1.00  0.00     0.017 A 
HETATM   24  C   UNL     1       6.202  32.402  61.730  1.00  0.00     0.089 A 
HETATM   25  N   UNL     1       6.798  31.567  60.861  1.00  0.00    -0.357 N 
HETATM   26  H   UNL     1       6.262  31.258  60.060  1.00  0.00     0.166 HD
ENDBRANCH  18  20
ENDBRANCH  17  18
ENDBRANCH   1  17
TORSDOF 6
ENDMDL
MODEL 4
REMARK VINA RESULT:      -8.1      4.016      9.270
REMARK  6 active torsions:
REMARK  status: ('A' for Active; 'I' for Inactive)
REMARK    1  A    between atoms: C_3  and  N_4 
REMARK    2  A    between atoms: N_4  and  C_5 
REMARK    3  A    between atoms: C_5  and  C_6 
REMARK    4  A    between atoms: N_8  and  C_10 
REMARK    5  A    between atoms: C_10  and  C_11 
REMARK    6  A    between atoms: C_12  and  O_13 
ROOT
HETATM    1  C   UNL     1       6.543  25.483  55.730  1.00  0.00     0.026 C 
HETATM    2  C   UNL     1       7.480  26.651  55.447  1.00  0.00     0.241 C 
HETATM    3  N   UNL     1       7.854  27.159  56.819  1.00  0.00    -0.067 N 
HETATM    4  H   UNL     1       8.880  27.318  56.838  1.00  0.00     0.280 HD
HETATM    5  C   UNL     1       7.514  26.088  57.827  1.00  0.00     0.235 C 
HETATM    6  C   UNL     1       7.173  24.872  56.980  1.00  0.00     0.035 C 
ENDROOT
BRANCH   3   7
HETATM    7  C   UNL     1       7.303  28.520  57.175  1.00  0.00     0.276 C 
BRANCH   7   8
HETATM    8  C   UNL     1       8.354  29.473  57.674  1.00  0.00     0.002 A 
HETATM    9  C   UNL     1       9.439  29.845  56.869  1.00  0.00     0.073 A 
HETATM   10  C   UNL     1      10.430  30.704  57.336  1.00  0.00     0.038 A 
HETATM   11  C   UNL     1      10.344  31.211  58.633  1.00  0.00     0.022 A 
HETATM   12  C   UNL     1       9.273  30.849  59.448  1.00  0.00     0.011 A 
HETATM   13 BR   UNL     1       9.149  31.543  61.201  1.00  0.00    -0.051 Br
HETATM   14  C   UNL     1       8.286  29.981  58.980  1.00  0.00     0.030 A 
BRANCH   9  15
HETATM   15  O   UNL     1       9.491  29.359  55.589  1.00  0.00    -0.360 OA
HETATM   16  H   UNL     1       8.934  28.551  55.558  1.00  0.00     0.217 HD
ENDBRANCH   9  15
ENDBRANCH   7   8
ENDBRANCH   3   7
BRANCH   1  17
HETATM   17  C   UNL     1       6.404  24.512  54.549  1.00  0.00     0.100 C 
BRANCH  17  18
HETATM   18  N   UNL     1       7.731  24.078  54.120  1.00  0.00    -0.279 NA
HETATM   19  H   UNL     1       8.480  24.650  54.521  1.00  0.00     0.129 HD
BRANCH  18  20
HETATM   20  C   UNL     1       8.131  22.741  54.125  1.00  0.00     0.079 A 
HETATM   21  C   UNL     1       7.843  21.935  53.013  1.00  0.00     0.042 A 
HETATM   22  C   UNL     1       8.196  20.587  53.006  1.00  0.00     0.005 A 
HETATM   23  C   UNL     1       8.814  20.042  54.121  1.00  0.00     0.017 A 
HETATM   24  C   UNL     1       9.050  20.854  55.218  1.00  0.00     0.089 A 
HETATM   25  N   UNL     1       8.699  22.152  55.190  1.00  0.00    -0.357 N 
HETATM   26  H   UNL     1       8.863  22.702  56.024  1.00  0.00     0.166 HD
ENDBRANCH  18  20
ENDBRANCH  17  18
ENDBRANCH   1  17
TORSDOF 6
ENDMDL
MODEL 5
REMARK VINA RESULT:      -8.0      3.181      5.243
REMARK  6 active torsions:
REMARK  status: ('A' for Active; 'I' for Inactive)
REMARK    1  A    between atoms: C_3  and  N_4 
REMARK    2  A    between atoms: N_4  and  C_5 
REMARK    3  A    between atoms: C_5  and  C_6 
REMARK    4  A    between atoms: N_8  and  C_10 
REMARK    5  A    between atoms: C_10  and  C_11 
REMARK    6  A    between atoms: C_12  and  O_13 
ROOT
HETATM    1  C   UNL     1       7.951  32.398  62.730  1.00  0.00     0.026 C 
HETATM    2  C   UNL     1       6.825  32.031  61.771  1.00  0.00     0.241 C 
HETATM    3  N   UNL     1       7.467  31.056  60.813  1.00  0.00    -0.067 N 
HETATM    4  H   UNL     1       6.822  30.251  60.687  1.00  0.00     0.280 HD
HETATM    5  C   UNL     1       8.746  30.554  61.438  1.00  0.00     0.235 C 
HETATM    6  C   UNL     1       8.692  31.070  62.867  1.00  0.00     0.035 C 
ENDROOT
BRANCH   3   7
HETATM    7  C   UNL     1       7.642  31.561  59.400  1.00  0.00     0.276 C 
BRANCH   7   8
HETATM    8  C   UNL     1       8.462  30.640  58.539  1.00  0.00     0.002 A 
HETATM    9  C   UNL     1       9.732  31.015  58.078  1.00  0.00     0.073 A 
HETATM   10  C   UNL     1      10.483  30.177  57.257  1.00  0.00     0.038 A 
HETATM   11  C   UNL     1       9.966  28.936  56.885  1.00  0.00     0.022 A 
HETATM   12  C   UNL     1       8.704  28.549  57.331  1.00  0.00     0.011 A 
HETATM   13 BR   UNL     1       8.008  26.865  56.836  1.00  0.00    -0.051 Br
HETATM   14  C   UNL     1       7.949  29.394  58.147  1.00  0.00     0.030 A 
BRANCH   9  15
HETATM   15  O   UNL     1      10.233  32.225  58.477  1.00  0.00    -0.360 OA
HETATM   16  H   UNL     1       9.533  32.677  58.996  1.00  0.00     0.217 HD
ENDBRANCH   9  15
ENDBRANCH   7   8
ENDBRANCH   3   7
BRANCH   1  17
HETATM   17  C   UNL     1       7.453  32.987  64.057  1.00  0.00     0.100 C 
BRANCH  17  18
HETATM   18  N   UNL     1       5.999  32.871  64.124  1.00  0.00    -0.279 NA
HETATM   19  H   UNL     1       5.682  31.896  64.118  1.00  0.00     0.129 HD
BRANCH  18  20
HETATM   20  C   UNL     1       5.221  33.593  65.030  1.00  0.00     0.079 A 
HETATM   21  C   UNL     1       4.102  34.300  64.562  1.00  0.00     0.042 A 
HETATM   22  C   UNL     1       3.328  35.060  65.436  1.00  0.00     0.005 A 
HETATM   23  C   UNL     1       3.689  35.134  66.773  1.00  0.00     0.017 A 
HETATM   24  C   UNL     1       4.822  34.457  67.197  1.00  0.00     0.089 A 
HETATM   25  N   UNL     1       5.544  33.729  66.327  1.00  0.00    -0.357 N 
HETATM   26  H   UNL     1       6.380  33.276  66.672  1.00  0.00     0.166 HD
ENDBRANCH  18  20
ENDBRANCH  17  18
ENDBRANCH   1  17
TORSDOF 6
ENDMDL
MODEL 6
REMARK VINA RESULT:      -7.7      1.679      2.474
REMARK  6 active torsions:
REMARK  status: ('A' for Active; 'I' for Inactive)
REMARK    1  A    between atoms: C_3  and  N_4 
REMARK    2  A    between atoms: N_4  and  C_5 
REMARK    3  A    between atoms: C_5  and  C_6 
REMARK    4  A    between atoms: N_8  and  C_10 
REMARK    5  A    between atoms: C_10  and  C_11 
REMARK    6  A    between atoms: C_12  and  O_13 
ROOT
HETATM    1  C   UNL     1       6.163  29.231  57.522  1.00  0.00     0.026 C 
HETATM    2  C   UNL     1       6.857  28.148  56.702  1.00  0.00     0.241 C 
HETATM    3  N   UNL     1       5.719  27.324  56.150  1.00  0.00    -0.067 N 
HETATM    4  H   UNL     1       5.903  27.149  55.143  1.00  0.00     0.280 HD
HETATM    5  C   UNL     1       4.448  28.131  56.273  1.00  0.00     0.235 C 
HETATM    6  C   UNL     1       4.924  29.518  56.676  1.00  0.00     0.035 C 
ENDROOT
BRANCH   3   7
HETATM    7  C   UNL     1       5.603  25.926  56.711  1.00  0.00     0.276 C 
BRANCH   7   8
HETATM    8  C   UNL     1       6.758  25.039  56.335  1.00  0.00     0.002 A 
HETATM    9  C   UNL     1       7.824  24.821  57.218  1.00  0.00     0.073 A 
HETATM   10  C   UNL     1       8.910  24.023  56.864  1.00  0.00     0.038 A 
HETATM   11  C   UNL     1       8.940  23.425  55.605  1.00  0.00     0.022 A 
HETATM   12  C   UNL     1       7.890  23.634  54.713  1.00  0.00     0.011 A 
HETATM   13 BR   UNL     1       7.925  22.816  53.010  1.00  0.00    -0.051 Br
HETATM   14  C   UNL     1       6.807  24.441  55.067  1.00  0.00     0.030 A 
BRANCH   9  15
HETATM   15  O   UNL     1       7.762  25.394  58.461  1.00  0.00    -0.360 OA
HETATM   16  H   UNL     1       8.448  24.965  59.017  1.00  0.00     0.217 HD
ENDBRANCH   9  15
ENDBRANCH   7   8
ENDBRANCH   3   7
BRANCH   1  17
HETATM   17  C   UNL     1       7.048  30.455  57.788  1.00  0.00     0.100 C 
BRANCH  17  18
HETATM   18  N   UNL     1       6.499  31.218  58.906  1.00  0.00    -0.279 NA
HETATM   19  H   UNL     1       5.530  30.961  59.117  1.00  0.00     0.129 HD
BRANCH  18  20
HETATM   20  C   UNL     1       7.188  31.411  60.104  1.00  0.00     0.079 A 
HETATM   21  C   UNL     1       6.918  32.552  60.874  1.00  0.00     0.042 A 
HETATM   22  C   UNL     1       7.617  32.790  62.056  1.00  0.00     0.005 A 
HETATM   23  C   UNL     1       8.603  31.900  62.452  1.00  0.00     0.017 A 
HETATM   24  C   UNL     1       8.873  30.802  61.651  1.00  0.00     0.089 A 
HETATM   25  N   UNL     1       8.177  30.601  60.518  1.00  0.00    -0.357 N 
HETATM   26  H   UNL     1       8.427  29.803  59.947  1.00  0.00     0.166 HD
ENDBRANCH  18  20
ENDBRANCH  17  18
ENDBRANCH   1  17
TORSDOF 6
ENDMDL
MODEL 7
REMARK VINA RESULT:      -7.6      6.334      9.801
REMARK  6 active torsions:
REMARK  status: ('A' for Active; 'I' for Inactive)
REMARK    1  A    between atoms: C_3  and  N_4 
REMARK    2  A    between atoms: N_4  and  C_5 
REMARK    3  A    between atoms: C_5  and  C_6 
REMARK    4  A    between atoms: N_8  and  C_10 
REMARK    5  A    between atoms: C_10  and  C_11 
REMARK    6  A    between atoms: C_12  and  O_13 
ROOT
HETATM    1  C   UNL     1       5.163  27.737  52.301  1.00  0.00     0.026 C 
HETATM    2  C   UNL     1       5.447  26.243  52.404  1.00  0.00     0.241 C 
HETATM    3  N   UNL     1       5.970  26.068  53.810  1.00  0.00    -0.067 N 
HETATM    4  H   UNL     1       5.499  25.244  54.232  1.00  0.00     0.280 HD
HETATM    5  C   UNL     1       5.597  27.295  54.608  1.00  0.00     0.235 C 
HETATM    6  C   UNL     1       4.642  28.055  53.700  1.00  0.00     0.035 C 
ENDROOT
BRANCH   3   7
HETATM    7  C   UNL     1       7.431  25.701  53.913  1.00  0.00     0.276 C 
BRANCH   7   8
HETATM    8  C   UNL     1       7.659  24.323  54.472  1.00  0.00     0.002 A 
HETATM    9  C   UNL     1       7.715  24.100  55.855  1.00  0.00     0.073 A 
HETATM   10  C   UNL     1       7.954  22.831  56.376  1.00  0.00     0.038 A 
HETATM   11  C   UNL     1       8.139  21.755  55.508  1.00  0.00     0.022 A 
HETATM   12  C   UNL     1       8.089  21.960  54.131  1.00  0.00     0.011 A 
HETATM   13 BR   UNL     1       8.329  20.502  52.954  1.00  0.00    -0.051 Br
HETATM   14  C   UNL     1       7.859  23.234  53.610  1.00  0.00     0.030 A 
BRANCH   9  15
HETATM   15  O   UNL     1       7.503  25.165  56.691  1.00  0.00    -0.360 OA
HETATM   16  H   UNL     1       6.533  25.297  56.757  1.00  0.00     0.217 HD
ENDBRANCH   9  15
ENDBRANCH   7   8
ENDBRANCH   3   7
BRANCH   1  17
HETATM   17  C   UNL     1       4.195  28.097  51.166  1.00  0.00     0.100 C 
BRANCH  17  18
HETATM   18  N   UNL     1       4.237  27.055  50.144  1.00  0.00    -0.279 NA
HETATM   19  H   UNL     1       4.397  26.123  50.539  1.00  0.00     0.129 HD
BRANCH  18  20
HETATM   20  C   UNL     1       3.291  26.955  49.122  1.00  0.00     0.079 A 
HETATM   21  C   UNL     1       3.570  26.153  48.005  1.00  0.00     0.042 A 
HETATM   22  C   UNL     1       2.661  26.064  46.953  1.00  0.00     0.005 A 
HETATM   23  C   UNL     1       1.487  26.799  47.006  1.00  0.00     0.017 A 
HETATM   24  C   UNL     1       1.258  27.612  48.104  1.00  0.00     0.089 A 
HETATM   25  N   UNL     1       2.154  27.671  49.105  1.00  0.00    -0.357 N 
HETATM   26  H   UNL     1       1.962  28.301  49.874  1.00  0.00     0.166 HD
ENDBRANCH  18  20
ENDBRANCH  17  18
ENDBRANCH   1  17
TORSDOF 6
ENDMDL
MODEL 8
REMARK VINA RESULT:      -7.5      4.306      9.110
REMARK  6 active torsions:
REMARK  status: ('A' for Active; 'I' for Inactive)
REMARK    1  A    between atoms: C_3  and  N_4 
REMARK    2  A    between atoms: N_4  and  C_5 
REMARK    3  A    between atoms: C_5  and  C_6 
REMARK    4  A    between atoms: N_8  and  C_10 
REMARK    5  A    between atoms: C_10  and  C_11 
REMARK    6  A    between atoms: C_12  and  O_13 
ROOT
HETATM    1  C   UNL     1       7.598  25.751  53.953  1.00  0.00     0.026 C 
HETATM    2  C   UNL     1       6.307  25.776  54.764  1.00  0.00     0.241 C 
HETATM    3  N   UNL     1       6.268  27.169  55.345  1.00  0.00    -0.067 N 
HETATM    4  H   UNL     1       5.310  27.549  55.216  1.00  0.00     0.280 HD
HETATM    5  C   UNL     1       7.235  28.031  54.568  1.00  0.00     0.235 C 
HETATM    6  C   UNL     1       7.636  27.167  53.382  1.00  0.00     0.035 C 
ENDROOT
BRANCH   3   7
HETATM    7  C   UNL     1       6.456  27.249  56.842  1.00  0.00     0.276 C 
BRANCH   7   8
HETATM    8  C   UNL     1       6.338  28.648  57.380  1.00  0.00     0.002 A 
HETATM    9  C   UNL     1       5.137  29.366  57.280  1.00  0.00     0.073 A 
HETATM   10  C   UNL     1       5.030  30.672  57.751  1.00  0.00     0.038 A 
HETATM   11  C   UNL     1       6.138  31.283  58.339  1.00  0.00     0.022 A 
HETATM   12  C   UNL     1       7.340  30.585  58.443  1.00  0.00     0.011 A 
HETATM   13 BR   UNL     1       8.838  31.408  59.248  1.00  0.00    -0.051 Br
HETATM   14  C   UNL     1       7.448  29.279  57.962  1.00  0.00     0.030 A 
BRANCH   9  15
HETATM   15  O   UNL     1       4.053  28.738  56.726  1.00  0.00    -0.360 OA
HETATM   16  H   UNL     1       4.360  28.284  55.912  1.00  0.00     0.217 HD
ENDBRANCH   9  15
ENDBRANCH   7   8
ENDBRANCH   3   7
BRANCH   1  17
HETATM   17  C   UNL     1       7.632  24.639  52.896  1.00  0.00     0.100 C 
BRANCH  17  18
HETATM   18  N   UNL     1       6.913  23.471  53.397  1.00  0.00    -0.279 NA
HETATM   19  H   UNL     1       6.250  23.095  52.712  1.00  0.00     0.129 HD
BRANCH  18  20
HETATM   20  C   UNL     1       7.546  22.409  54.044  1.00  0.00     0.079 A 
HETATM   21  C   UNL     1       8.041  21.339  53.282  1.00  0.00     0.042 A 
HETATM   22  C   UNL     1       8.645  20.248  53.904  1.00  0.00     0.005 A 
HETATM   23  C   UNL     1       8.730  20.216  55.288  1.00  0.00     0.017 A 
HETATM   24  C   UNL     1       8.197  21.269  56.013  1.00  0.00     0.089 A 
HETATM   25  N   UNL     1       7.625  22.309  55.382  1.00  0.00    -0.357 N 
HETATM   26  H   UNL     1       7.221  23.043  55.951  1.00  0.00     0.166 HD
ENDBRANCH  18  20
ENDBRANCH  17  18
ENDBRANCH   1  17
TORSDOF 6
ENDMDL
MODEL 9
REMARK VINA RESULT:      -7.4      3.259      5.457
REMARK  6 active torsions:
REMARK  status: ('A' for Active; 'I' for Inactive)
REMARK    1  A    between atoms: C_3  and  N_4 
REMARK    2  A    between atoms: N_4  and  C_5 
REMARK    3  A    between atoms: C_5  and  C_6 
REMARK    4  A    between atoms: N_8  and  C_10 
REMARK    5  A    between atoms: C_10  and  C_11 
REMARK    6  A    between atoms: C_12  and  O_13 
ROOT
HETATM    1  C   UNL     1       7.418  32.795  62.655  1.00  0.00     0.026 C 
HETATM    2  C   UNL     1       6.443  32.217  61.635  1.00  0.00     0.241 C 
HETATM    3  N   UNL     1       7.296  31.290  60.802  1.00  0.00    -0.067 N 
HETATM    4  H   UNL     1       6.782  30.396  60.681  1.00  0.00     0.280 HD
HETATM    5  C   UNL     1       8.571  31.011  61.563  1.00  0.00     0.235 C 
HETATM    6  C   UNL     1       8.318  31.596  62.943  1.00  0.00     0.035 C 
ENDROOT
BRANCH   3   7
HETATM    7  C   UNL     1       7.527  31.733  59.377  1.00  0.00     0.276 C 
BRANCH   7   8
HETATM    8  C   UNL     1       8.368  30.770  58.586  1.00  0.00     0.002 A 
HETATM    9  C   UNL     1       9.663  31.108  58.168  1.00  0.00     0.073 A 
HETATM   10  C   UNL     1      10.435  30.231  57.411  1.00  0.00     0.038 A 
HETATM   11  C   UNL     1       9.914  28.985  57.060  1.00  0.00     0.022 A 
HETATM   12  C   UNL     1       8.628  28.634  57.464  1.00  0.00     0.011 A 
HETATM   13 BR   UNL     1       7.925  26.943  56.998  1.00  0.00    -0.051 Br
HETATM   14  C   UNL     1       7.852  29.518  58.215  1.00  0.00     0.030 A 
BRANCH   9  15
HETATM   15  O   UNL     1      10.167  32.325  58.547  1.00  0.00    -0.360 OA
HETATM   16  H   UNL     1      11.129  32.208  58.705  1.00  0.00     0.217 HD
ENDBRANCH   9  15
ENDBRANCH   7   8
ENDBRANCH   3   7
BRANCH   1  17
HETATM   17  C   UNL     1       6.726  33.382  63.893  1.00  0.00     0.100 C 
BRANCH  17  18
HETATM   18  N   UNL     1       5.545  34.133  63.479  1.00  0.00    -0.279 NA
HETATM   19  H   UNL     1       4.684  33.777  63.905  1.00  0.00     0.129 HD
BRANCH  18  20
HETATM   20  C   UNL     1       5.498  35.528  63.464  1.00  0.00     0.079 A 
HETATM   21  C   UNL     1       5.757  36.211  62.265  1.00  0.00     0.042 A 
HETATM   22  C   UNL     1       5.754  37.603  62.229  1.00  0.00     0.005 A 
HETATM   23  C   UNL     1       5.520  38.312  63.398  1.00  0.00     0.017 A 
HETATM   24  C   UNL     1       5.307  37.611  64.573  1.00  0.00     0.089 A 
HETATM   25  N   UNL     1       5.312  36.266  64.572  1.00  0.00    -0.357 N 
HETATM   26  H   UNL     1       5.182  35.793  65.458  1.00  0.00     0.166 HD
ENDBRANCH  18  20
ENDBRANCH  17  18
ENDBRANCH   1  17
TORSDOF 6
ENDMDL
MODEL 10
REMARK VINA RESULT:      -7.4      6.263      9.725
REMARK  6 active torsions:
REMARK  status: ('A' for Active; 'I' for Inactive)
REMARK    1  A    between atoms: C_3  and  N_4 
REMARK    2  A    between atoms: N_4  and  C_5 
REMARK    3  A    between atoms: C_5  and  C_6 
REMARK    4  A    between atoms: N_8  and  C_10 
REMARK    5  A    between atoms: C_10  and  C_11 
REMARK    6  A    between atoms: C_12  and  O_13 
ROOT
HETATM    1  C   UNL     1       5.032  27.788  52.888  1.00  0.00     0.026 C 
HETATM    2  C   UNL     1       5.348  26.298  52.970  1.00  0.00     0.241 C 
HETATM    3  N   UNL     1       5.744  26.088  54.411  1.00  0.00    -0.067 N 
HETATM    4  H   UNL     1       5.261  25.238  54.761  1.00  0.00     0.280 HD
HETATM    5  C   UNL     1       5.264  27.277  55.210  1.00  0.00     0.235 C 
HETATM    6  C   UNL     1       4.375  28.043  54.243  1.00  0.00     0.035 C 
ENDROOT
BRANCH   3   7
HETATM    7  C   UNL     1       7.200  25.756  54.638  1.00  0.00     0.276 C 
BRANCH   7   8
HETATM    8  C   UNL     1       7.548  24.338  54.277  1.00  0.00     0.002 A 
HETATM    9  C   UNL     1       7.903  23.988  52.967  1.00  0.00     0.073 A 
HETATM   10  C   UNL     1       8.198  22.671  52.621  1.00  0.00     0.038 A 
HETATM   11  C   UNL     1       8.143  21.676  53.597  1.00  0.00     0.022 A 
HETATM   12  C   UNL     1       7.789  22.007  54.904  1.00  0.00     0.011 A 
HETATM   13 BR   UNL     1       7.724  20.662  56.229  1.00  0.00    -0.051 Br
HETATM   14  C   UNL     1       7.485  23.325  55.246  1.00  0.00     0.030 A 
BRANCH   9  15
HETATM   15  O   UNL     1       7.979  24.984  52.029  1.00  0.00    -0.360 OA
HETATM   16  H   UNL     1       7.520  24.664  51.223  1.00  0.00     0.217 HD
ENDBRANCH   9  15
ENDBRANCH   7   8
ENDBRANCH   3   7
BRANCH   1  17
HETATM   17  C   UNL     1       4.162  28.161  51.681  1.00  0.00     0.100 C 
BRANCH  17  18
HETATM   18  N   UNL     1       4.842  27.764  50.451  1.00  0.00    -0.279 NA
HETATM   19  H   UNL     1       5.689  27.216  50.630  1.00  0.00     0.129 HD
BRANCH  18  20
HETATM   20  C   UNL     1       4.172  27.217  49.356  1.00  0.00     0.079 A 
HETATM   21  C   UNL     1       3.693  28.069  48.349  1.00  0.00     0.042 A 
HETATM   22  C   UNL     1       2.989  27.554  47.263  1.00  0.00     0.005 A 
HETATM   23  C   UNL     1       2.741  26.192  47.198  1.00  0.00     0.017 A 
HETATM   24  C   UNL     1       3.193  25.381  48.227  1.00  0.00     0.089 A 
HETATM   25  N   UNL     1       3.873  25.910  49.259  1.00  0.00    -0.357 N 
HETATM   26  H   UNL     1       4.159  25.287  50.004  1.00  0.00     0.166 HD
ENDBRANCH  18  20
ENDBRANCH  17  18
ENDBRANCH   1  17
TORSDOF 6
ENDMDL
