MODEL 1
REMARK VINA RESULT:     -11.3      0.000      0.000
REMARK  2 active torsions:
REMARK  status: ('A' for Active; 'I' for Inactive)
REMARK    1  A    between atoms: N_4  and  C_5 
REMARK    2  A    between atoms: C_15  and  C_16 
REMARK       I    between atoms: C_16  and  N_17 
ROOT
HETATM    1  C   UNL     1       4.298  32.387  56.631  1.00  0.00     0.073 C 
HETATM    2  C   UNL     1       5.425  31.854  57.434  1.00  0.00     0.069 C 
HETATM    3  N   UNL     1       5.850  32.505  58.528  1.00  0.00    -0.170 NA
HETATM    4  N   UNL     1       6.837  31.717  59.054  1.00  0.00    -0.216 N 
HETATM    5  C   UNL     1       7.170  30.719  58.155  1.00  0.00     0.145 C 
HETATM    6  C   UNL     1       6.213  30.718  57.169  1.00  0.00     0.087 C 
HETATM    7  N   UNL     1       8.227  29.872  58.145  1.00  0.00    -0.349 N 
HETATM    8  C   UNL     1       8.345  29.000  57.077  1.00  0.00     0.111 C 
HETATM    9  C   UNL     1       7.445  28.881  56.073  1.00  0.00     0.099 C 
HETATM   10  C   UNL     1       6.201  29.718  56.119  1.00  0.00     0.205 C 
HETATM   11  O   UNL     1       5.256  29.574  55.352  1.00  0.00    -0.286 OA
HETATM   12  H   UNL     1       9.043  29.977  58.747  1.00  0.00     0.167 HD
ENDROOT
BRANCH   9  13
HETATM   13  C   UNL     1       7.743  27.838  55.061  1.00  0.00     0.264 C 
HETATM   14  N   UNL     1       7.440  26.515  55.339  1.00  0.00    -0.309 N 
HETATM   15  C   UNL     1       6.898  25.912  56.592  1.00  0.00     0.093 C 
HETATM   16  C   UNL     1       7.535  25.467  54.384  1.00  0.00     0.044 A 
HETATM   17  C   UNL     1       5.421  26.258  56.797  1.00  0.00     0.033 C 
HETATM   18  C   UNL     1       7.092  24.385  56.460  1.00  0.00     0.066 C 
HETATM   19  C   UNL     1       7.290  24.232  54.988  1.00  0.00    -0.029 A 
HETATM   20  C   UNL     1       7.314  23.049  54.266  1.00  0.00     0.009 A 
HETATM   21  C   UNL     1       7.568  23.114  52.897  1.00  0.00     0.001 A 
HETATM   22  C   UNL     1       7.807  24.350  52.280  1.00  0.00     0.002 A 
HETATM   23  C   UNL     1       7.798  25.534  53.026  1.00  0.00     0.030 A 
HETATM   24  O   UNL     1       8.183  28.232  53.977  1.00  0.00    -0.267 OA
ENDBRANCH   9  13
BRANCH   4  25
HETATM   25  C   UNL     1       7.331  31.966  60.365  1.00  0.00     0.060 A 
HETATM   26  C   UNL     1       8.689  31.822  60.674  1.00  0.00     0.031 A 
HETATM   27  C   UNL     1       9.138  32.034  61.982  1.00  0.00     0.002 A 
HETATM   28  C   UNL     1       8.237  32.384  62.985  1.00  0.00     0.000 A 
HETATM   29  C   UNL     1       6.883  32.515  62.689  1.00  0.00     0.002 A 
HETATM   30  C   UNL     1       6.427  32.297  61.387  1.00  0.00     0.031 A 
ENDBRANCH   4  25
TORSDOF 2
ENDMDL
MODEL 2
REMARK VINA RESULT:     -10.8      2.157      3.495
REMARK  2 active torsions:
REMARK  status: ('A' for Active; 'I' for Inactive)
REMARK    1  A    between atoms: N_4  and  C_5 
REMARK    2  A    between atoms: C_15  and  C_16 
REMARK       I    between atoms: C_16  and  N_17 
ROOT
HETATM    1  C   UNL     1      10.188  31.464  58.740  1.00  0.00     0.073 C 
HETATM    2  C   UNL     1       8.736  31.248  58.529  1.00  0.00     0.069 C 
HETATM    3  N   UNL     1       7.846  32.171  58.922  1.00  0.00    -0.170 NA
HETATM    4  N   UNL     1       6.629  31.690  58.520  1.00  0.00    -0.216 N 
HETATM    5  C   UNL     1       6.759  30.377  58.100  1.00  0.00     0.145 C 
HETATM    6  C   UNL     1       8.102  30.111  57.993  1.00  0.00     0.087 C 
HETATM    7  N   UNL     1       5.808  29.446  57.847  1.00  0.00    -0.349 N 
HETATM    8  C   UNL     1       6.229  28.176  57.494  1.00  0.00     0.111 C 
HETATM    9  C   UNL     1       7.520  27.810  57.316  1.00  0.00     0.099 C 
HETATM   10  C   UNL     1       8.590  28.849  57.470  1.00  0.00     0.205 C 
HETATM   11  O   UNL     1       9.765  28.664  57.177  1.00  0.00    -0.286 OA
HETATM   12  H   UNL     1       4.827  29.553  58.101  1.00  0.00     0.167 HD
ENDROOT
BRANCH   9  13
HETATM   13  C   UNL     1       7.738  26.409  56.879  1.00  0.00     0.264 C 
HETATM   14  N   UNL     1       7.469  26.057  55.567  1.00  0.00    -0.309 N 
HETATM   15  C   UNL     1       6.892  26.881  54.465  1.00  0.00     0.093 C 
HETATM   16  C   UNL     1       7.794  24.791  55.007  1.00  0.00     0.044 A 
HETATM   17  C   UNL     1       7.891  27.919  53.947  1.00  0.00     0.033 C 
HETATM   18  C   UNL     1       6.493  25.895  53.345  1.00  0.00     0.066 C 
HETATM   19  C   UNL     1       7.289  24.686  53.710  1.00  0.00    -0.029 A 
HETATM   20  C   UNL     1       7.480  23.547  52.942  1.00  0.00     0.009 A 
HETATM   21  C   UNL     1       8.218  22.498  53.488  1.00  0.00     0.001 A 
HETATM   22  C   UNL     1       8.736  22.597  54.786  1.00  0.00     0.002 A 
HETATM   23  C   UNL     1       8.519  23.746  55.556  1.00  0.00     0.030 A 
HETATM   24  O   UNL     1       8.230  25.642  57.713  1.00  0.00    -0.267 OA
ENDBRANCH   9  13
BRANCH   4  25
HETATM   25  C   UNL     1       5.484  32.534  58.536  1.00  0.00     0.060 A 
HETATM   26  C   UNL     1       4.936  33.044  57.351  1.00  0.00     0.031 A 
HETATM   27  C   UNL     1       3.835  33.905  57.400  1.00  0.00     0.002 A 
HETATM   28  C   UNL     1       3.280  34.264  58.626  1.00  0.00     0.000 A 
HETATM   29  C   UNL     1       3.829  33.774  59.809  1.00  0.00     0.002 A 
HETATM   30  C   UNL     1       4.932  32.920  59.767  1.00  0.00     0.031 A 
ENDBRANCH   4  25
TORSDOF 2
ENDMDL
MODEL 3
REMARK VINA RESULT:     -10.4      1.945      3.166
REMARK  2 active torsions:
REMARK  status: ('A' for Active; 'I' for Inactive)
REMARK    1  A    between atoms: N_4  and  C_5 
REMARK    2  A    between atoms: C_15  and  C_16 
REMARK       I    between atoms: C_16  and  N_17 
ROOT
HETATM    1  C   UNL     1       3.958  29.259  56.066  1.00  0.00     0.073 C 
HETATM    2  C   UNL     1       5.271  29.227  56.755  1.00  0.00     0.069 C 
HETATM    3  N   UNL     1       5.818  30.356  57.231  1.00  0.00    -0.170 NA
HETATM    4  N   UNL     1       6.971  29.961  57.853  1.00  0.00    -0.216 N 
HETATM    5  C   UNL     1       7.238  28.637  57.551  1.00  0.00     0.145 C 
HETATM    6  C   UNL     1       6.119  28.119  56.946  1.00  0.00     0.087 C 
HETATM    7  N   UNL     1       8.365  27.910  57.744  1.00  0.00    -0.349 N 
HETATM    8  C   UNL     1       8.376  26.605  57.284  1.00  0.00     0.111 C 
HETATM    9  C   UNL     1       7.321  25.977  56.714  1.00  0.00     0.099 C 
HETATM   10  C   UNL     1       6.021  26.716  56.595  1.00  0.00     0.205 C 
HETATM   11  O   UNL     1       4.971  26.192  56.245  1.00  0.00    -0.286 OA
HETATM   12  H   UNL     1       9.263  28.314  58.008  1.00  0.00     0.167 HD
ENDROOT
BRANCH   9  13
HETATM   13  C   UNL     1       7.539  24.556  56.347  1.00  0.00     0.264 C 
HETATM   14  N   UNL     1       7.415  24.169  55.023  1.00  0.00    -0.309 N 
HETATM   15  C   UNL     1       7.002  24.974  53.836  1.00  0.00     0.093 C 
HETATM   16  C   UNL     1       7.758  22.876  54.544  1.00  0.00     0.044 A 
HETATM   17  C   UNL     1       8.092  25.961  53.411  1.00  0.00     0.033 C 
HETATM   18  C   UNL     1       6.703  23.965  52.706  1.00  0.00     0.066 C 
HETATM   19  C   UNL     1       7.406  22.744  53.199  1.00  0.00    -0.029 A 
HETATM   20  C   UNL     1       7.646  21.574  52.493  1.00  0.00     0.009 A 
HETATM   21  C   UNL     1       8.276  20.520  53.154  1.00  0.00     0.001 A 
HETATM   22  C   UNL     1       8.640  20.647  54.501  1.00  0.00     0.002 A 
HETATM   23  C   UNL     1       8.375  21.826  55.206  1.00  0.00     0.030 A 
HETATM   24  O   UNL     1       7.901  23.802  57.256  1.00  0.00    -0.267 OA
ENDBRANCH   9  13
BRANCH   4  25
HETATM   25  C   UNL     1       7.672  30.864  58.701  1.00  0.00     0.060 A 
HETATM   26  C   UNL     1       7.014  31.580  59.710  1.00  0.00     0.031 A 
HETATM   27  C   UNL     1       7.722  32.490  60.501  1.00  0.00     0.002 A 
HETATM   28  C   UNL     1       9.084  32.694  60.288  1.00  0.00     0.000 A 
HETATM   29  C   UNL     1       9.742  31.997  59.277  1.00  0.00     0.002 A 
HETATM   30  C   UNL     1       9.039  31.092  58.479  1.00  0.00     0.031 A 
ENDBRANCH   4  25
TORSDOF 2
ENDMDL
MODEL 4
REMARK VINA RESULT:     -10.4      1.370      1.954
REMARK  2 active torsions:
REMARK  status: ('A' for Active; 'I' for Inactive)
REMARK    1  A    between atoms: N_4  and  C_5 
REMARK    2  A    between atoms: C_15  and  C_16 
REMARK       I    between atoms: C_16  and  N_17 
ROOT
HETATM    1  C   UNL     1       3.896  30.954  54.998  1.00  0.00     0.073 C 
HETATM    2  C   UNL     1       5.035  30.679  55.906  1.00  0.00     0.069 C 
HETATM    3  N   UNL     1       5.408  31.584  56.824  1.00  0.00    -0.170 NA
HETATM    4  N   UNL     1       6.425  30.990  57.521  1.00  0.00    -0.216 N 
HETATM    5  C   UNL     1       6.822  29.831  56.876  1.00  0.00     0.145 C 
HETATM    6  C   UNL     1       5.884  29.555  55.912  1.00  0.00     0.087 C 
HETATM    7  N   UNL     1       7.921  29.062  57.066  1.00  0.00    -0.349 N 
HETATM    8  C   UNL     1       8.100  27.977  56.226  1.00  0.00     0.111 C 
HETATM    9  C   UNL     1       7.224  27.585  55.272  1.00  0.00     0.099 C 
HETATM   10  C   UNL     1       5.939  28.343  55.118  1.00  0.00     0.205 C 
HETATM   11  O   UNL     1       5.015  27.978  54.401  1.00  0.00    -0.286 OA
HETATM   12  H   UNL     1       8.720  29.344  57.632  1.00  0.00     0.167 HD
ENDROOT
BRANCH   9  13
HETATM   13  C   UNL     1       7.591  26.355  54.526  1.00  0.00     0.264 C 
HETATM   14  N   UNL     1       7.551  25.131  55.173  1.00  0.00    -0.309 N 
HETATM   15  C   UNL     1       7.253  24.826  56.604  1.00  0.00     0.093 C 
HETATM   16  C   UNL     1       7.725  23.884  54.514  1.00  0.00     0.044 A 
HETATM   17  C   UNL     1       5.768  25.007  56.927  1.00  0.00     0.033 C 
HETATM   18  C   UNL     1       7.692  23.364  56.838  1.00  0.00     0.066 C 
HETATM   19  C   UNL     1       7.760  22.842  55.442  1.00  0.00    -0.029 A 
HETATM   20  C   UNL     1       7.913  21.520  55.049  1.00  0.00     0.009 A 
HETATM   21  C   UNL     1       8.009  21.242  53.686  1.00  0.00     0.001 A 
HETATM   22  C   UNL     1       7.967  22.281  52.747  1.00  0.00     0.002 A 
HETATM   23  C   UNL     1       7.831  23.612  53.159  1.00  0.00     0.030 A 
HETATM   24  O   UNL     1       7.842  26.493  53.325  1.00  0.00    -0.267 OA
ENDBRANCH   9  13
BRANCH   4  25
HETATM   25  C   UNL     1       6.883  31.557  58.743  1.00  0.00     0.060 A 
HETATM   26  C   UNL     1       5.996  32.151  59.651  1.00  0.00     0.031 A 
HETATM   27  C   UNL     1       6.480  32.737  60.825  1.00  0.00     0.002 A 
HETATM   28  C   UNL     1       7.847  32.737  61.097  1.00  0.00     0.000 A 
HETATM   29  C   UNL     1       8.736  32.163  60.192  1.00  0.00     0.002 A 
HETATM   30  C   UNL     1       8.260  31.583  59.015  1.00  0.00     0.031 A 
ENDBRANCH   4  25
TORSDOF 2
ENDMDL
MODEL 5
REMARK VINA RESULT:     -10.3      1.600      3.099
REMARK  2 active torsions:
REMARK  status: ('A' for Active; 'I' for Inactive)
REMARK    1  A    between atoms: N_4  and  C_5 
REMARK    2  A    between atoms: C_15  and  C_16 
REMARK       I    between atoms: C_16  and  N_17 
ROOT
HETATM    1  C   UNL     1       9.075  30.456  60.116  1.00  0.00     0.073 C 
HETATM    2  C   UNL     1       7.882  30.791  59.302  1.00  0.00     0.069 C 
HETATM    3  N   UNL     1       6.948  31.629  59.775  1.00  0.00    -0.170 NA
HETATM    4  N   UNL     1       6.041  31.765  58.760  1.00  0.00    -0.216 N 
HETATM    5  C   UNL     1       6.299  30.832  57.771  1.00  0.00     0.145 C 
HETATM    6  C   UNL     1       7.526  30.276  58.040  1.00  0.00     0.087 C 
HETATM    7  N   UNL     1       5.540  30.446  56.717  1.00  0.00    -0.349 N 
HETATM    8  C   UNL     1       6.026  29.434  55.909  1.00  0.00     0.111 C 
HETATM    9  C   UNL     1       7.236  28.844  56.052  1.00  0.00     0.099 C 
HETATM   10  C   UNL     1       8.151  29.332  57.135  1.00  0.00     0.205 C 
HETATM   11  O   UNL     1       9.319  28.980  57.248  1.00  0.00    -0.286 OA
HETATM   12  H   UNL     1       4.558  30.696  56.604  1.00  0.00     0.167 HD
ENDROOT
BRANCH   9  13
HETATM   13  C   UNL     1       7.577  27.819  55.035  1.00  0.00     0.264 C 
HETATM   14  N   UNL     1       7.414  26.477  55.340  1.00  0.00    -0.309 N 
HETATM   15  C   UNL     1       6.996  25.844  56.625  1.00  0.00     0.093 C 
HETATM   16  C   UNL     1       7.555  25.430  54.391  1.00  0.00     0.044 A 
HETATM   17  C   UNL     1       5.505  26.055  56.905  1.00  0.00     0.033 C 
HETATM   18  C   UNL     1       7.323  24.340  56.496  1.00  0.00     0.066 C 
HETATM   19  C   UNL     1       7.458  24.186  55.018  1.00  0.00    -0.029 A 
HETATM   20  C   UNL     1       7.554  23.000  54.305  1.00  0.00     0.009 A 
HETATM   21  C   UNL     1       7.730  23.070  52.924  1.00  0.00     0.001 A 
HETATM   22  C   UNL     1       7.821  24.314  52.285  1.00  0.00     0.002 A 
HETATM   23  C   UNL     1       7.741  25.503  53.019  1.00  0.00     0.030 A 
HETATM   24  O   UNL     1       7.922  28.238  53.925  1.00  0.00    -0.267 OA
ENDBRANCH   9  13
BRANCH   4  25
HETATM   25  C   UNL     1       5.054  32.790  58.813  1.00  0.00     0.060 A 
HETATM   26  C   UNL     1       4.106  32.838  59.843  1.00  0.00     0.031 A 
HETATM   27  C   UNL     1       3.122  33.833  59.846  1.00  0.00     0.002 A 
HETATM   28  C   UNL     1       3.078  34.779  58.823  1.00  0.00     0.000 A 
HETATM   29  C   UNL     1       4.008  34.728  57.788  1.00  0.00     0.002 A 
HETATM   30  C   UNL     1       4.987  33.732  57.775  1.00  0.00     0.031 A 
ENDBRANCH   4  25
TORSDOF 2
ENDMDL
MODEL 6
REMARK VINA RESULT:      -9.8      4.467      7.600
REMARK  2 active torsions:
REMARK  status: ('A' for Active; 'I' for Inactive)
REMARK    1  A    between atoms: N_4  and  C_5 
REMARK    2  A    between atoms: C_15  and  C_16 
REMARK       I    between atoms: C_16  and  N_17 
ROOT
HETATM    1  C   UNL     1       4.962  30.410  55.117  1.00  0.00     0.073 C 
HETATM    2  C   UNL     1       4.613  29.464  54.030  1.00  0.00     0.069 C 
HETATM    3  N   UNL     1       3.840  29.858  53.007  1.00  0.00    -0.170 NA
HETATM    4  N   UNL     1       3.775  28.778  52.169  1.00  0.00    -0.216 N 
HETATM    5  C   UNL     1       4.308  27.665  52.796  1.00  0.00     0.145 C 
HETATM    6  C   UNL     1       4.945  28.099  53.933  1.00  0.00     0.087 C 
HETATM    7  N   UNL     1       4.243  26.356  52.452  1.00  0.00    -0.349 N 
HETATM    8  C   UNL     1       4.823  25.435  53.306  1.00  0.00     0.111 C 
HETATM    9  C   UNL     1       5.511  25.749  54.429  1.00  0.00     0.099 C 
HETATM   10  C   UNL     1       5.706  27.195  54.774  1.00  0.00     0.205 C 
HETATM   11  O   UNL     1       6.443  27.587  55.671  1.00  0.00    -0.286 OA
HETATM   12  H   UNL     1       3.622  25.990  51.731  1.00  0.00     0.167 HD
ENDROOT
BRANCH   9  13
HETATM   13  C   UNL     1       6.100  24.602  55.165  1.00  0.00     0.264 C 
HETATM   14  N   UNL     1       6.863  23.673  54.476  1.00  0.00    -0.309 N 
HETATM   15  C   UNL     1       7.153  23.582  53.015  1.00  0.00     0.093 C 
HETATM   16  C   UNL     1       7.600  22.635  55.108  1.00  0.00     0.044 A 
HETATM   17  C   UNL     1       8.128  24.671  52.560  1.00  0.00     0.033 C 
HETATM   18  C   UNL     1       7.747  22.177  52.775  1.00  0.00     0.066 C 
HETATM   19  C   UNL     1       8.163  21.786  54.154  1.00  0.00    -0.029 A 
HETATM   20  C   UNL     1       8.941  20.696  54.516  1.00  0.00     0.009 A 
HETATM   21  C   UNL     1       9.175  20.471  55.871  1.00  0.00     0.001 A 
HETATM   22  C   UNL     1       8.621  21.323  56.836  1.00  0.00     0.002 A 
HETATM   23  C   UNL     1       7.823  22.408  56.457  1.00  0.00     0.030 A 
HETATM   24  O   UNL     1       5.932  24.588  56.388  1.00  0.00    -0.267 OA
ENDBRANCH   9  13
BRANCH   4  25
HETATM   25  C   UNL     1       3.258  28.923  50.851  1.00  0.00     0.060 A 
HETATM   26  C   UNL     1       1.994  29.483  50.620  1.00  0.00     0.031 A 
HETATM   27  C   UNL     1       1.495  29.574  49.317  1.00  0.00     0.002 A 
HETATM   28  C   UNL     1       2.248  29.106  48.242  1.00  0.00     0.000 A 
HETATM   29  C   UNL     1       3.498  28.533  48.466  1.00  0.00     0.002 A 
HETATM   30  C   UNL     1       3.999  28.432  49.765  1.00  0.00     0.031 A 
ENDBRANCH   4  25
TORSDOF 2
ENDMDL
MODEL 7
REMARK VINA RESULT:      -9.8      2.075      3.924
REMARK  2 active torsions:
REMARK  status: ('A' for Active; 'I' for Inactive)
REMARK    1  A    between atoms: N_4  and  C_5 
REMARK    2  A    between atoms: C_15  and  C_16 
REMARK       I    between atoms: C_16  and  N_17 
ROOT
HETATM    1  C   UNL     1       8.082  30.246  58.981  1.00  0.00     0.073 C 
HETATM    2  C   UNL     1       7.103  30.434  57.884  1.00  0.00     0.069 C 
HETATM    3  N   UNL     1       6.174  31.400  57.959  1.00  0.00    -0.170 NA
HETATM    4  N   UNL     1       5.495  31.337  56.772  1.00  0.00    -0.216 N 
HETATM    5  C   UNL     1       5.855  30.190  56.085  1.00  0.00     0.145 C 
HETATM    6  C   UNL     1       6.952  29.659  56.718  1.00  0.00     0.087 C 
HETATM    7  N   UNL     1       5.282  29.606  55.006  1.00  0.00    -0.349 N 
HETATM    8  C   UNL     1       5.822  28.413  54.556  1.00  0.00     0.111 C 
HETATM    9  C   UNL     1       6.924  27.821  55.073  1.00  0.00     0.099 C 
HETATM   10  C   UNL     1       7.653  28.505  56.190  1.00  0.00     0.205 C 
HETATM   11  O   UNL     1       8.741  28.138  56.617  1.00  0.00    -0.286 OA
HETATM   12  H   UNL     1       4.367  29.865  54.639  1.00  0.00     0.167 HD
ENDROOT
BRANCH   9  13
HETATM   13  C   UNL     1       7.362  26.574  54.396  1.00  0.00     0.264 C 
HETATM   14  N   UNL     1       7.344  25.379  55.095  1.00  0.00    -0.309 N 
HETATM   15  C   UNL     1       7.007  25.125  56.527  1.00  0.00     0.093 C 
HETATM   16  C   UNL     1       7.586  24.112  54.498  1.00  0.00     0.044 A 
HETATM   17  C   UNL     1       5.505  25.264  56.791  1.00  0.00     0.033 C 
HETATM   18  C   UNL     1       7.490  23.692  56.841  1.00  0.00     0.066 C 
HETATM   19  C   UNL     1       7.626  23.113  55.472  1.00  0.00    -0.029 A 
HETATM   20  C   UNL     1       7.840  21.782  55.144  1.00  0.00     0.009 A 
HETATM   21  C   UNL     1       7.995  21.449  53.799  1.00  0.00     0.001 A 
HETATM   22  C   UNL     1       7.948  22.444  52.814  1.00  0.00     0.002 A 
HETATM   23  C   UNL     1       7.750  23.785  53.162  1.00  0.00     0.030 A 
HETATM   24  O   UNL     1       7.650  26.670  53.199  1.00  0.00    -0.267 OA
ENDBRANCH   9  13
BRANCH   4  25
HETATM   25  C   UNL     1       4.613  32.388  56.395  1.00  0.00     0.060 A 
HETATM   26  C   UNL     1       4.987  33.733  56.512  1.00  0.00     0.031 A 
HETATM   27  C   UNL     1       4.083  34.745  56.172  1.00  0.00     0.002 A 
HETATM   28  C   UNL     1       2.806  34.422  55.719  1.00  0.00     0.000 A 
HETATM   29  C   UNL     1       2.422  33.088  55.615  1.00  0.00     0.002 A 
HETATM   30  C   UNL     1       3.316  32.073  55.960  1.00  0.00     0.031 A 
ENDBRANCH   4  25
TORSDOF 2
ENDMDL
MODEL 8
REMARK VINA RESULT:      -9.2      2.630      8.887
REMARK  2 active torsions:
REMARK  status: ('A' for Active; 'I' for Inactive)
REMARK    1  A    between atoms: N_4  and  C_5 
REMARK    2  A    between atoms: C_15  and  C_16 
REMARK       I    between atoms: C_16  and  N_17 
ROOT
HETATM    1  C   UNL     1      10.828  30.650  57.637  1.00  0.00     0.073 C 
HETATM    2  C   UNL     1       9.527  29.941  57.582  1.00  0.00     0.069 C 
HETATM    3  N   UNL     1       9.418  28.769  56.938  1.00  0.00    -0.170 NA
HETATM    4  N   UNL     1       8.124  28.369  57.138  1.00  0.00    -0.216 N 
HETATM    5  C   UNL     1       7.394  29.404  57.697  1.00  0.00     0.145 C 
HETATM    6  C   UNL     1       8.286  30.372  58.088  1.00  0.00     0.087 C 
HETATM    7  N   UNL     1       6.055  29.543  57.847  1.00  0.00    -0.349 N 
HETATM    8  C   UNL     1       5.587  30.726  58.392  1.00  0.00     0.111 C 
HETATM    9  C   UNL     1       6.372  31.729  58.852  1.00  0.00     0.099 C 
HETATM   10  C   UNL     1       7.861  31.554  58.812  1.00  0.00     0.205 C 
HETATM   11  O   UNL     1       8.650  32.325  59.345  1.00  0.00    -0.286 OA
HETATM   12  H   UNL     1       5.368  28.939  57.397  1.00  0.00     0.167 HD
ENDROOT
BRANCH   9  13
HETATM   13  C   UNL     1       5.656  32.882  59.452  1.00  0.00     0.264 C 
HETATM   14  N   UNL     1       5.438  32.909  60.820  1.00  0.00    -0.309 N 
HETATM   15  C   UNL     1       5.755  31.875  61.849  1.00  0.00     0.093 C 
HETATM   16  C   UNL     1       4.911  34.032  61.513  1.00  0.00     0.044 A 
HETATM   17  C   UNL     1       7.259  31.789  62.124  1.00  0.00     0.033 C 
HETATM   18  C   UNL     1       4.985  32.280  63.125  1.00  0.00     0.066 C 
HETATM   19  C   UNL     1       4.687  33.717  62.854  1.00  0.00    -0.029 A 
HETATM   20  C   UNL     1       4.182  34.651  63.748  1.00  0.00     0.009 A 
HETATM   21  C   UNL     1       3.919  35.938  63.283  1.00  0.00     0.001 A 
HETATM   22  C   UNL     1       4.150  36.265  61.940  1.00  0.00     0.002 A 
HETATM   23  C   UNL     1       4.641  35.308  61.045  1.00  0.00     0.030 A 
HETATM   24  O   UNL     1       5.360  33.805  58.688  1.00  0.00    -0.267 OA
ENDBRANCH   9  13
BRANCH   4  25
HETATM   25  C   UNL     1       7.728  27.040  56.821  1.00  0.00     0.060 A 
HETATM   26  C   UNL     1       8.360  25.931  57.399  1.00  0.00     0.031 A 
HETATM   27  C   UNL     1       7.976  24.636  57.037  1.00  0.00     0.002 A 
HETATM   28  C   UNL     1       6.967  24.440  56.097  1.00  0.00     0.000 A 
HETATM   29  C   UNL     1       6.344  25.537  55.506  1.00  0.00     0.002 A 
HETATM   30  C   UNL     1       6.728  26.833  55.858  1.00  0.00     0.031 A 
ENDBRANCH   4  25
TORSDOF 2
ENDMDL
MODEL 9
REMARK VINA RESULT:      -9.1      2.223      3.275
REMARK  2 active torsions:
REMARK  status: ('A' for Active; 'I' for Inactive)
REMARK    1  A    between atoms: N_4  and  C_5 
REMARK    2  A    between atoms: C_15  and  C_16 
REMARK       I    between atoms: C_16  and  N_17 
ROOT
HETATM    1  C   UNL     1       3.318  30.014  52.816  1.00  0.00     0.073 C 
HETATM    2  C   UNL     1       4.254  30.026  53.965  1.00  0.00     0.069 C 
HETATM    3  N   UNL     1       4.344  31.104  54.759  1.00  0.00    -0.170 NA
HETATM    4  N   UNL     1       5.234  30.756  55.738  1.00  0.00    -0.216 N 
HETATM    5  C   UNL     1       5.857  29.565  55.404  1.00  0.00     0.145 C 
HETATM    6  C   UNL     1       5.174  29.028  54.340  1.00  0.00     0.087 C 
HETATM    7  N   UNL     1       6.951  28.974  55.942  1.00  0.00    -0.349 N 
HETATM    8  C   UNL     1       7.396  27.798  55.364  1.00  0.00     0.111 C 
HETATM    9  C   UNL     1       6.781  27.156  54.343  1.00  0.00     0.099 C 
HETATM   10  C   UNL     1       5.500  27.720  53.806  1.00  0.00     0.205 C 
HETATM   11  O   UNL     1       4.786  27.137  52.999  1.00  0.00    -0.286 OA
HETATM   12  H   UNL     1       7.583  29.436  56.594  1.00  0.00     0.167 HD
ENDROOT
BRANCH   9  13
HETATM   13  C   UNL     1       7.403  25.877  53.920  1.00  0.00     0.264 C 
HETATM   14  N   UNL     1       7.541  24.851  54.841  1.00  0.00    -0.309 N 
HETATM   15  C   UNL     1       7.218  24.837  56.298  1.00  0.00     0.093 C 
HETATM   16  C   UNL     1       7.970  23.539  54.501  1.00  0.00     0.044 A 
HETATM   17  C   UNL     1       5.707  24.811  56.545  1.00  0.00     0.033 C 
HETATM   18  C   UNL     1       7.892  23.577  56.882  1.00  0.00     0.066 C 
HETATM   19  C   UNL     1       8.133  22.766  55.652  1.00  0.00    -0.029 A 
HETATM   20  C   UNL     1       8.539  21.441  55.589  1.00  0.00     0.009 A 
HETATM   21  C   UNL     1       8.763  20.876  54.335  1.00  0.00     0.001 A 
HETATM   22  C   UNL     1       8.593  21.642  53.174  1.00  0.00     0.002 A 
HETATM   23  C   UNL     1       8.202  22.984  53.253  1.00  0.00     0.030 A 
HETATM   24  O   UNL     1       7.696  25.776  52.725  1.00  0.00    -0.267 OA
ENDBRANCH   9  13
BRANCH   4  25
HETATM   25  C   UNL     1       5.370  31.561  56.903  1.00  0.00     0.060 A 
HETATM   26  C   UNL     1       6.052  31.098  58.036  1.00  0.00     0.031 A 
HETATM   27  C   UNL     1       6.133  31.897  59.182  1.00  0.00     0.002 A 
HETATM   28  C   UNL     1       5.534  33.154  59.204  1.00  0.00     0.000 A 
HETATM   29  C   UNL     1       4.841  33.615  58.088  1.00  0.00     0.002 A 
HETATM   30  C   UNL     1       4.750  32.820  56.944  1.00  0.00     0.031 A 
ENDBRANCH   4  25
TORSDOF 2
ENDMDL
MODEL 10
REMARK VINA RESULT:      -8.9      2.841      4.073
REMARK  2 active torsions:
REMARK  status: ('A' for Active; 'I' for Inactive)
REMARK    1  A    between atoms: N_4  and  C_5 
REMARK    2  A    between atoms: C_15  and  C_16 
REMARK       I    between atoms: C_16  and  N_17 
ROOT
HETATM    1  C   UNL     1       3.289  30.464  52.378  1.00  0.00     0.073 C 
HETATM    2  C   UNL     1       3.744  30.543  53.787  1.00  0.00     0.069 C 
HETATM    3  N   UNL     1       3.803  31.725  54.418  1.00  0.00    -0.170 NA
HETATM    4  N   UNL     1       4.190  31.431  55.697  1.00  0.00    -0.216 N 
HETATM    5  C   UNL     1       4.593  30.108  55.773  1.00  0.00     0.145 C 
HETATM    6  C   UNL     1       4.215  29.496  54.603  1.00  0.00     0.087 C 
HETATM    7  N   UNL     1       5.261  29.456  56.755  1.00  0.00    -0.349 N 
HETATM    8  C   UNL     1       5.591  28.130  56.538  1.00  0.00     0.111 C 
HETATM    9  C   UNL     1       5.236  27.414  55.445  1.00  0.00     0.099 C 
HETATM   10  C   UNL     1       4.391  28.072  54.396  1.00  0.00     0.205 C 
HETATM   11  O   UNL     1       3.886  27.471  53.455  1.00  0.00    -0.286 OA
HETATM   12  H   UNL     1       5.718  29.924  57.537  1.00  0.00     0.167 HD
ENDROOT
BRANCH   9  13
HETATM   13  C   UNL     1       5.648  25.988  55.449  1.00  0.00     0.264 C 
HETATM   14  N   UNL     1       6.428  25.503  54.412  1.00  0.00    -0.309 N 
HETATM   15  C   UNL     1       6.894  26.196  53.175  1.00  0.00     0.093 C 
HETATM   16  C   UNL     1       7.007  24.205  54.400  1.00  0.00     0.044 A 
HETATM   17  C   UNL     1       7.991  27.221  53.476  1.00  0.00     0.033 C 
HETATM   18  C   UNL     1       7.418  25.093  52.228  1.00  0.00     0.066 C 
HETATM   19  C   UNL     1       7.628  23.958  53.175  1.00  0.00    -0.029 A 
HETATM   20  C   UNL     1       8.278  22.761  52.914  1.00  0.00     0.009 A 
HETATM   21  C   UNL     1       8.322  21.799  53.922  1.00  0.00     0.001 A 
HETATM   22  C   UNL     1       7.709  22.042  55.159  1.00  0.00     0.002 A 
HETATM   23  C   UNL     1       7.040  23.247  55.401  1.00  0.00     0.030 A 
HETATM   24  O   UNL     1       5.325  25.324  56.439  1.00  0.00    -0.267 OA
ENDBRANCH   9  13
BRANCH   4  25
HETATM   25  C   UNL     1       4.098  32.417  56.719  1.00  0.00     0.060 A 
HETATM   26  C   UNL     1       3.027  33.319  56.770  1.00  0.00     0.031 A 
HETATM   27  C   UNL     1       2.985  34.304  57.762  1.00  0.00     0.002 A 
HETATM   28  C   UNL     1       4.009  34.396  58.703  1.00  0.00     0.000 A 
HETATM   29  C   UNL     1       5.084  33.513  58.649  1.00  0.00     0.002 A 
HETATM   30  C   UNL     1       5.136  32.532  57.657  1.00  0.00     0.031 A 
ENDBRANCH   4  25
TORSDOF 2
ENDMDL
