MODEL 1
REMARK VINA RESULT:     -10.7      0.000      0.000
REMARK  9 active torsions:
REMARK  status: ('A' for Active; 'I' for Inactive)
REMARK    1  A    between atoms: C_3  and  C_4 
REMARK    2  A    between atoms: C_4  and  C_5 
REMARK    3  A    between atoms: C_5  and  N_6 
REMARK       I    between atoms: N_6  and  C_7 
REMARK    4  A    between atoms: C_7  and  C_8 
REMARK    5  A    between atoms: C_8  and  C_9 
REMARK    6  A    between atoms: C_9  and  C_10 
REMARK    7  A    between atoms: C_9  and  C_26 
REMARK    8  A    between atoms: C_14  and  C_15 
REMARK    9  A    between atoms: C_28  and  N_29 
ROOT
HETATM    1  C   UNL     1       6.219  29.235  57.428  1.00  0.00     0.062 C 
ENDROOT
BRANCH   1   2
HETATM    2  C   UNL     1       5.129  30.308  57.274  1.00  0.00     0.116 C 
BRANCH   2   3
HETATM    3  C   UNL     1       5.238  31.530  58.168  1.00  0.00     0.218 C 
HETATM    4  N   UNL     1       4.695  31.395  59.425  1.00  0.00    -0.361 N 
HETATM    5  H   UNL     1       4.097  30.599  59.619  1.00  0.00     0.162 HD
HETATM    6  O   UNL     1       5.819  32.549  57.803  1.00  0.00    -0.274 OA
BRANCH   4   7
HETATM    7  C   UNL     1       4.727  32.503  60.362  1.00  0.00     0.128 C 
BRANCH   7   8
HETATM    8  C   UNL     1       4.309  32.097  61.770  1.00  0.00     0.079 C 
BRANCH   8   9
HETATM    9  C   UNL     1       5.338  32.541  62.775  1.00  0.00     0.035 A 
HETATM   10  C   UNL     1       6.699  32.400  62.515  1.00  0.00     0.027 A 
HETATM   11  C   UNL     1       7.613  32.778  63.494  1.00  0.00     0.003 A 
HETATM   12  C   UNL     1       7.148  33.280  64.704  1.00  0.00     0.019 A 
HETATM   13  C   UNL     1       5.781  33.385  64.883  1.00  0.00     0.117 A 
HETATM   14  N   UNL     1       4.871  33.028  63.950  1.00  0.00    -0.266 NA
ENDBRANCH   8   9
ENDBRANCH   7   8
ENDBRANCH   4   7
ENDBRANCH   2   3
ENDBRANCH   1   2
BRANCH   1  15
HETATM   15  C   UNL     1       6.267  28.267  56.262  1.00  0.00    -0.021 A 
HETATM   16  C   UNL     1       6.749  26.914  56.335  1.00  0.00    -0.001 A 
HETATM   17  C   UNL     1       6.594  26.336  55.078  1.00  0.00     0.043 A 
HETATM   18  C   UNL     1       7.280  26.123  57.371  1.00  0.00     0.015 A 
HETATM   19  C   UNL     1       6.946  25.005  54.804  1.00  0.00     0.044 A 
HETATM   20  N   UNL     1       6.057  27.297  54.255  1.00  0.00    -0.365 N 
HETATM   21  C   UNL     1       7.468  24.207  55.843  1.00  0.00    -0.005 A 
HETATM   22  C   UNL     1       7.621  24.787  57.113  1.00  0.00     0.015 A 
HETATM   23  H   UNL     1       5.849  27.164  53.275  1.00  0.00     0.165 HD
HETATM   24  C   UNL     1       5.822  28.446  54.962  1.00  0.00     0.097 A 
BRANCH  21  25
HETATM   25  C   UNL     1       7.831  22.790  55.628  1.00  0.00     0.066 A 
HETATM   26  N   UNL     1       8.304  22.134  56.719  1.00  0.00    -0.260 NA
HETATM   27  C   UNL     1       8.645  20.834  56.579  1.00  0.00     0.117 A 
HETATM   28  C   UNL     1       8.548  20.137  55.388  1.00  0.00     0.019 A 
HETATM   29  C   UNL     1       8.072  20.815  54.274  1.00  0.00     0.004 A 
HETATM   30  C   UNL     1       7.710  22.156  54.392  1.00  0.00     0.032 A 
ENDBRANCH  21  25
ENDBRANCH   1  15
BRANCH   1  31
HETATM   31  C   UNL     1       7.652  29.659  57.755  1.00  0.00    -0.047 A 
HETATM   32  C   UNL     1       7.968  30.091  59.062  1.00  0.00     0.043 A 
HETATM   33  C   UNL     1       9.268  30.506  59.389  1.00  0.00     0.103 A 
HETATM   34  C   UNL     1      10.276  30.520  58.421  1.00  0.00     0.036 A 
HETATM   35  C   UNL     1       9.971  30.122  57.123  1.00  0.00     0.003 A 
HETATM   36  C   UNL     1       8.676  29.702  56.795  1.00  0.00     0.008 A 
BRANCH  33  37
HETATM   37  N   UNL     1       9.576  30.926  60.761  1.00  0.00    -0.116 N 
HETATM   38  O   UNL     1       9.455  30.087  61.665  1.00  0.00    -0.532 OA
HETATM   39  O   UNL     1       9.944  32.097  60.938  1.00  0.00    -0.532 OA
ENDBRANCH  33  37
ENDBRANCH   1  31
TORSDOF 9
ENDMDL
MODEL 2
REMARK VINA RESULT:     -10.6      4.019      8.224
REMARK  9 active torsions:
REMARK  status: ('A' for Active; 'I' for Inactive)
REMARK    1  A    between atoms: C_3  and  C_4 
REMARK    2  A    between atoms: C_4  and  C_5 
REMARK    3  A    between atoms: C_5  and  N_6 
REMARK       I    between atoms: N_6  and  C_7 
REMARK    4  A    between atoms: C_7  and  C_8 
REMARK    5  A    between atoms: C_8  and  C_9 
REMARK    6  A    between atoms: C_9  and  C_10 
REMARK    7  A    between atoms: C_9  and  C_26 
REMARK    8  A    between atoms: C_14  and  C_15 
REMARK    9  A    between atoms: C_28  and  N_29 
ROOT
HETATM    1  C   UNL     1       6.478  24.793  53.820  1.00  0.00     0.062 C 
ENDROOT
BRANCH   1   2
HETATM    2  C   UNL     1       5.142  24.908  53.070  1.00  0.00     0.116 C 
BRANCH   2   3
HETATM    3  C   UNL     1       4.797  26.267  52.487  1.00  0.00     0.218 C 
HETATM    4  N   UNL     1       3.909  27.019  53.222  1.00  0.00    -0.361 N 
HETATM    5  H   UNL     1       3.394  26.576  53.975  1.00  0.00     0.162 HD
HETATM    6  O   UNL     1       5.319  26.679  51.454  1.00  0.00    -0.274 OA
BRANCH   4   7
HETATM    7  C   UNL     1       3.494  28.329  52.754  1.00  0.00     0.128 C 
BRANCH   7   8
HETATM    8  C   UNL     1       4.459  29.434  53.166  1.00  0.00     0.079 C 
BRANCH   8   9
HETATM    9  C   UNL     1       4.106  29.961  54.532  1.00  0.00     0.035 A 
HETATM   10  C   UNL     1       4.756  29.489  55.670  1.00  0.00     0.027 A 
HETATM   11  C   UNL     1       4.362  29.968  56.916  1.00  0.00     0.003 A 
HETATM   12  C   UNL     1       3.331  30.896  56.995  1.00  0.00     0.019 A 
HETATM   13  C   UNL     1       2.736  31.310  55.817  1.00  0.00     0.117 A 
HETATM   14  N   UNL     1       3.099  30.865  54.595  1.00  0.00    -0.266 NA
ENDBRANCH   8   9
ENDBRANCH   7   8
ENDBRANCH   4   7
ENDBRANCH   2   3
ENDBRANCH   1   2
BRANCH   1  15
HETATM   15  C   UNL     1       6.406  25.316  55.242  1.00  0.00    -0.021 A 
HETATM   16  C   UNL     1       7.080  26.492  55.721  1.00  0.00    -0.001 A 
HETATM   17  C   UNL     1       6.737  26.668  57.059  1.00  0.00     0.043 A 
HETATM   18  C   UNL     1       7.934  27.439  55.123  1.00  0.00     0.015 A 
HETATM   19  C   UNL     1       7.207  27.743  57.830  1.00  0.00     0.044 A 
HETATM   20  N   UNL     1       5.902  25.631  57.400  1.00  0.00    -0.365 N 
HETATM   21  C   UNL     1       8.053  28.698  57.230  1.00  0.00    -0.005 A 
HETATM   22  C   UNL     1       8.397  28.525  55.879  1.00  0.00     0.015 A 
HETATM   23  H   UNL     1       5.504  25.491  58.319  1.00  0.00     0.165 HD
HETATM   24  C   UNL     1       5.666  24.836  56.311  1.00  0.00     0.097 A 
BRANCH  21  25
HETATM   25  C   UNL     1       8.558  29.868  57.978  1.00  0.00     0.066 A 
HETATM   26  N   UNL     1       9.784  30.319  57.606  1.00  0.00    -0.260 NA
HETATM   27  C   UNL     1      10.290  31.390  58.254  1.00  0.00     0.117 A 
HETATM   28  C   UNL     1       9.636  32.050  59.278  1.00  0.00     0.019 A 
HETATM   29  C   UNL     1       8.387  31.580  59.662  1.00  0.00     0.004 A 
HETATM   30  C   UNL     1       7.840  30.478  59.007  1.00  0.00     0.032 A 
ENDBRANCH  21  25
ENDBRANCH   1  15
BRANCH   1  31
HETATM   31  C   UNL     1       7.216  23.454  53.842  1.00  0.00    -0.047 A 
HETATM   32  C   UNL     1       7.627  22.907  55.078  1.00  0.00     0.043 A 
HETATM   33  C   UNL     1       8.323  21.689  55.131  1.00  0.00     0.103 A 
HETATM   34  C   UNL     1       8.644  21.001  53.958  1.00  0.00     0.036 A 
HETATM   35  C   UNL     1       8.270  21.542  52.732  1.00  0.00     0.003 A 
HETATM   36  C   UNL     1       7.570  22.754  52.677  1.00  0.00     0.008 A 
BRANCH  33  37
HETATM   37  N   UNL     1       8.716  21.129  56.430  1.00  0.00    -0.116 N 
HETATM   38  O   UNL     1       8.204  21.615  57.449  1.00  0.00    -0.532 OA
HETATM   39  O   UNL     1       9.536  20.198  56.433  1.00  0.00    -0.532 OA
ENDBRANCH  33  37
ENDBRANCH   1  31
TORSDOF 9
ENDMDL
MODEL 3
REMARK VINA RESULT:     -10.5      3.204      8.257
REMARK  9 active torsions:
REMARK  status: ('A' for Active; 'I' for Inactive)
REMARK    1  A    between atoms: C_3  and  C_4 
REMARK    2  A    between atoms: C_4  and  C_5 
REMARK    3  A    between atoms: C_5  and  N_6 
REMARK       I    between atoms: N_6  and  C_7 
REMARK    4  A    between atoms: C_7  and  C_8 
REMARK    5  A    between atoms: C_8  and  C_9 
REMARK    6  A    between atoms: C_9  and  C_10 
REMARK    7  A    between atoms: C_9  and  C_26 
REMARK    8  A    between atoms: C_14  and  C_15 
REMARK    9  A    between atoms: C_28  and  N_29 
ROOT
HETATM    1  C   UNL     1       7.734  27.890  56.574  1.00  0.00     0.062 C 
ENDROOT
BRANCH   1   2
HETATM    2  C   UNL     1       7.039  26.940  57.563  1.00  0.00     0.116 C 
BRANCH   2   3
HETATM    3  C   UNL     1       7.041  25.463  57.213  1.00  0.00     0.218 C 
HETATM    4  N   UNL     1       8.225  24.801  57.441  1.00  0.00    -0.361 N 
HETATM    5  H   UNL     1       9.062  25.342  57.632  1.00  0.00     0.162 HD
HETATM    6  O   UNL     1       6.033  24.895  56.800  1.00  0.00    -0.274 OA
BRANCH   4   7
HETATM    7  C   UNL     1       8.349  23.389  57.129  1.00  0.00     0.128 C 
BRANCH   7   8
HETATM    8  C   UNL     1       9.449  23.104  56.114  1.00  0.00     0.079 C 
BRANCH   8   9
HETATM    9  C   UNL     1       8.923  22.253  54.989  1.00  0.00     0.035 A 
HETATM   10  C   UNL     1       8.272  22.830  53.901  1.00  0.00     0.027 A 
HETATM   11  C   UNL     1       7.757  22.000  52.909  1.00  0.00     0.003 A 
HETATM   12  C   UNL     1       7.900  20.623  53.029  1.00  0.00     0.019 A 
HETATM   13  C   UNL     1       8.558  20.131  54.143  1.00  0.00     0.117 A 
HETATM   14  N   UNL     1       9.069  20.913  55.119  1.00  0.00    -0.266 NA
ENDBRANCH   8   9
ENDBRANCH   7   8
ENDBRANCH   4   7
ENDBRANCH   2   3
ENDBRANCH   1   2
BRANCH   1  15
HETATM   15  C   UNL     1       6.772  28.522  55.586  1.00  0.00    -0.021 A 
HETATM   16  C   UNL     1       6.539  28.049  54.248  1.00  0.00    -0.001 A 
HETATM   17  C   UNL     1       5.564  28.859  53.671  1.00  0.00     0.043 A 
HETATM   18  C   UNL     1       7.056  26.984  53.486  1.00  0.00     0.015 A 
HETATM   19  C   UNL     1       5.081  28.658  52.368  1.00  0.00     0.044 A 
HETATM   20  N   UNL     1       5.222  29.806  54.607  1.00  0.00    -0.365 N 
HETATM   21  C   UNL     1       5.590  27.585  51.608  1.00  0.00    -0.005 A 
HETATM   22  C   UNL     1       6.571  26.764  52.189  1.00  0.00     0.015 A 
HETATM   23  H   UNL     1       4.544  30.541  54.459  1.00  0.00     0.165 HD
HETATM   24  C   UNL     1       5.911  29.592  55.770  1.00  0.00     0.097 A 
BRANCH  21  25
HETATM   25  C   UNL     1       5.103  27.301  50.241  1.00  0.00     0.066 A 
HETATM   26  N   UNL     1       5.307  28.287  49.329  1.00  0.00    -0.260 NA
HETATM   27  C   UNL     1       4.887  28.077  48.063  1.00  0.00     0.117 A 
HETATM   28  C   UNL     1       4.255  26.920  47.644  1.00  0.00     0.019 A 
HETATM   29  C   UNL     1       4.041  25.919  48.581  1.00  0.00     0.004 A 
HETATM   30  C   UNL     1       4.468  26.108  49.894  1.00  0.00     0.032 A 
ENDBRANCH  21  25
ENDBRANCH   1  15
BRANCH   1  31
HETATM   31  C   UNL     1       8.659  28.985  57.105  1.00  0.00    -0.047 A 
HETATM   32  C   UNL     1       8.262  29.746  58.227  1.00  0.00     0.043 A 
HETATM   33  C   UNL     1       9.078  30.772  58.728  1.00  0.00     0.103 A 
HETATM   34  C   UNL     1      10.296  31.077  58.114  1.00  0.00     0.036 A 
HETATM   35  C   UNL     1      10.686  30.353  56.992  1.00  0.00     0.003 A 
HETATM   36  C   UNL     1       9.876  29.326  56.493  1.00  0.00     0.008 A 
BRANCH  33  37
HETATM   37  N   UNL     1       8.654  31.531  59.911  1.00  0.00    -0.116 N 
HETATM   38  O   UNL     1       8.129  30.904  60.844  1.00  0.00    -0.532 OA
HETATM   39  O   UNL     1       8.848  32.756  59.911  1.00  0.00    -0.532 OA
ENDBRANCH  33  37
ENDBRANCH   1  31
TORSDOF 9
ENDMDL
MODEL 4
REMARK VINA RESULT:     -10.4      1.575      1.818
REMARK  9 active torsions:
REMARK  status: ('A' for Active; 'I' for Inactive)
REMARK    1  A    between atoms: C_3  and  C_4 
REMARK    2  A    between atoms: C_4  and  C_5 
REMARK    3  A    between atoms: C_5  and  N_6 
REMARK       I    between atoms: N_6  and  C_7 
REMARK    4  A    between atoms: C_7  and  C_8 
REMARK    5  A    between atoms: C_8  and  C_9 
REMARK    6  A    between atoms: C_9  and  C_10 
REMARK    7  A    between atoms: C_9  and  C_26 
REMARK    8  A    between atoms: C_14  and  C_15 
REMARK    9  A    between atoms: C_28  and  N_29 
ROOT
HETATM    1  C   UNL     1       5.806  29.286  57.532  1.00  0.00     0.062 C 
ENDROOT
BRANCH   1   2
HETATM    2  C   UNL     1       4.626  30.270  57.512  1.00  0.00     0.116 C 
BRANCH   2   3
HETATM    3  C   UNL     1       4.754  31.513  58.375  1.00  0.00     0.218 C 
HETATM    4  N   UNL     1       4.284  31.391  59.662  1.00  0.00    -0.361 N 
HETATM    5  H   UNL     1       3.719  30.585  59.905  1.00  0.00     0.162 HD
HETATM    6  O   UNL     1       5.288  32.538  57.958  1.00  0.00    -0.274 OA
BRANCH   4   7
HETATM    7  C   UNL     1       4.341  32.519  60.574  1.00  0.00     0.128 C 
BRANCH   7   8
HETATM    8  C   UNL     1       4.112  32.116  62.026  1.00  0.00     0.079 C 
BRANCH   8   9
HETATM    9  C   UNL     1       5.272  32.546  62.883  1.00  0.00     0.035 A 
HETATM   10  C   UNL     1       6.582  32.427  62.425  1.00  0.00     0.027 A 
HETATM   11  C   UNL     1       7.625  32.791  63.272  1.00  0.00     0.003 A 
HETATM   12  C   UNL     1       7.337  33.257  64.548  1.00  0.00     0.019 A 
HETATM   13  C   UNL     1       6.008  33.343  64.926  1.00  0.00     0.117 A 
HETATM   14  N   UNL     1       4.976  32.999  64.125  1.00  0.00    -0.266 NA
ENDBRANCH   8   9
ENDBRANCH   7   8
ENDBRANCH   4   7
ENDBRANCH   2   3
ENDBRANCH   1   2
BRANCH   1  15
HETATM   15  C   UNL     1       5.969  28.529  56.228  1.00  0.00    -0.021 A 
HETATM   16  C   UNL     1       6.397  27.161  56.120  1.00  0.00    -0.001 A 
HETATM   17  C   UNL     1       6.381  26.812  54.771  1.00  0.00     0.043 A 
HETATM   18  C   UNL     1       6.771  26.178  57.057  1.00  0.00     0.015 A 
HETATM   19  C   UNL     1       6.724  25.531  54.313  1.00  0.00     0.044 A 
HETATM   20  N   UNL     1       5.980  27.926  54.073  1.00  0.00    -0.365 N 
HETATM   21  C   UNL     1       7.089  24.543  55.250  1.00  0.00    -0.005 A 
HETATM   22  C   UNL     1       7.102  24.890  56.611  1.00  0.00     0.015 A 
HETATM   23  H   UNL     1       5.891  27.972  53.067  1.00  0.00     0.165 HD
HETATM   24  C   UNL     1       5.694  28.948  54.937  1.00  0.00     0.097 A 
BRANCH  21  25
HETATM   25  C   UNL     1       7.433  23.166  54.835  1.00  0.00     0.066 A 
HETATM   26  N   UNL     1       7.591  22.271  55.844  1.00  0.00    -0.260 NA
HETATM   27  C   UNL     1       7.900  20.997  55.519  1.00  0.00     0.117 A 
HETATM   28  C   UNL     1       8.072  20.554  54.220  1.00  0.00     0.019 A 
HETATM   29  C   UNL     1       7.919  21.475  53.192  1.00  0.00     0.004 A 
HETATM   30  C   UNL     1       7.596  22.796  53.500  1.00  0.00     0.032 A 
ENDBRANCH  21  25
ENDBRANCH   1  15
BRANCH   1  31
HETATM   31  C   UNL     1       7.186  29.775  57.974  1.00  0.00    -0.047 A 
HETATM   32  C   UNL     1       8.285  29.641  57.097  1.00  0.00     0.043 A 
HETATM   33  C   UNL     1       9.568  30.062  57.479  1.00  0.00     0.103 A 
HETATM   34  C   UNL     1       9.791  30.605  58.747  1.00  0.00     0.036 A 
HETATM   35  C   UNL     1       8.722  30.718  59.631  1.00  0.00     0.003 A 
HETATM   36  C   UNL     1       7.440  30.304  59.250  1.00  0.00     0.008 A 
BRANCH  33  37
HETATM   37  N   UNL     1      10.688  29.936  56.539  1.00  0.00    -0.116 N 
HETATM   38  O   UNL     1      11.823  29.767  57.009  1.00  0.00    -0.532 OA
HETATM   39  O   UNL     1      10.434  30.002  55.326  1.00  0.00    -0.532 OA
ENDBRANCH  33  37
ENDBRANCH   1  31
TORSDOF 9
ENDMDL
MODEL 5
REMARK VINA RESULT:     -10.4      4.697     10.521
REMARK  9 active torsions:
REMARK  status: ('A' for Active; 'I' for Inactive)
REMARK    1  A    between atoms: C_3  and  C_4 
REMARK    2  A    between atoms: C_4  and  C_5 
REMARK    3  A    between atoms: C_5  and  N_6 
REMARK       I    between atoms: N_6  and  C_7 
REMARK    4  A    between atoms: C_7  and  C_8 
REMARK    5  A    between atoms: C_8  and  C_9 
REMARK    6  A    between atoms: C_9  and  C_10 
REMARK    7  A    between atoms: C_9  and  C_26 
REMARK    8  A    between atoms: C_14  and  C_15 
REMARK    9  A    between atoms: C_28  and  N_29 
ROOT
HETATM    1  C   UNL     1       6.643  25.566  53.331  1.00  0.00     0.062 C 
ENDROOT
BRANCH   1   2
HETATM    2  C   UNL     1       5.633  25.743  52.186  1.00  0.00     0.116 C 
BRANCH   2   3
HETATM    3  C   UNL     1       5.591  27.102  51.511  1.00  0.00     0.218 C 
HETATM    4  N   UNL     1       5.579  27.081  50.135  1.00  0.00    -0.361 N 
HETATM    5  H   UNL     1       5.792  26.213  49.655  1.00  0.00     0.162 HD
HETATM    6  O   UNL     1       5.523  28.144  52.158  1.00  0.00    -0.274 OA
BRANCH   4   7
HETATM    7  C   UNL     1       5.555  28.322  49.382  1.00  0.00     0.128 C 
BRANCH   7   8
HETATM    8  C   UNL     1       5.461  28.096  47.878  1.00  0.00     0.079 C 
BRANCH   8   9
HETATM    9  C   UNL     1       4.071  27.660  47.496  1.00  0.00     0.035 A 
HETATM   10  C   UNL     1       3.038  28.587  47.382  1.00  0.00     0.027 A 
HETATM   11  C   UNL     1       1.759  28.132  47.075  1.00  0.00     0.003 A 
HETATM   12  C   UNL     1       1.543  26.772  46.896  1.00  0.00     0.019 A 
HETATM   13  C   UNL     1       2.623  25.918  47.029  1.00  0.00     0.117 A 
HETATM   14  N   UNL     1       3.875  26.331  47.324  1.00  0.00    -0.266 NA
ENDBRANCH   8   9
ENDBRANCH   7   8
ENDBRANCH   4   7
ENDBRANCH   2   3
ENDBRANCH   1   2
BRANCH   1  15
HETATM   15  C   UNL     1       6.163  26.162  54.641  1.00  0.00    -0.021 A 
HETATM   16  C   UNL     1       6.847  27.193  55.374  1.00  0.00    -0.001 A 
HETATM   17  C   UNL     1       6.079  27.503  56.494  1.00  0.00     0.043 A 
HETATM   18  C   UNL     1       8.042  27.909  55.167  1.00  0.00     0.015 A 
HETATM   19  C   UNL     1       6.448  28.492  57.419  1.00  0.00     0.044 A 
HETATM   20  N   UNL     1       4.976  26.683  56.465  1.00  0.00    -0.365 N 
HETATM   21  C   UNL     1       7.639  29.218  57.207  1.00  0.00    -0.005 A 
HETATM   22  C   UNL     1       8.413  28.910  56.076  1.00  0.00     0.015 A 
HETATM   23  H   UNL     1       4.248  26.676  57.166  1.00  0.00     0.165 HD
HETATM   24  C   UNL     1       4.996  25.903  55.341  1.00  0.00     0.097 A 
BRANCH  21  25
HETATM   25  C   UNL     1       8.069  30.291  58.128  1.00  0.00     0.066 A 
HETATM   26  N   UNL     1       7.071  30.923  58.800  1.00  0.00    -0.260 NA
HETATM   27  C   UNL     1       7.410  31.908  59.660  1.00  0.00     0.117 A 
HETATM   28  C   UNL     1       8.712  32.315  59.889  1.00  0.00     0.019 A 
HETATM   29  C   UNL     1       9.727  31.673  59.193  1.00  0.00     0.004 A 
HETATM   30  C   UNL     1       9.406  30.650  58.302  1.00  0.00     0.032 A 
ENDBRANCH  21  25
ENDBRANCH   1  15
BRANCH   1  31
HETATM   31  C   UNL     1       7.217  24.179  53.621  1.00  0.00    -0.047 A 
HETATM   32  C   UNL     1       7.557  23.830  54.947  1.00  0.00     0.043 A 
HETATM   33  C   UNL     1       8.103  22.572  55.244  1.00  0.00     0.103 A 
HETATM   34  C   UNL     1       8.343  21.643  54.229  1.00  0.00     0.036 A 
HETATM   35  C   UNL     1       8.038  21.983  52.915  1.00  0.00     0.003 A 
HETATM   36  C   UNL     1       7.487  23.235  52.616  1.00  0.00     0.008 A 
BRANCH  33  37
HETATM   37  N   UNL     1       8.424  22.226  56.634  1.00  0.00    -0.116 N 
HETATM   38  O   UNL     1       8.628  21.032  56.901  1.00  0.00    -0.532 OA
HETATM   39  O   UNL     1       8.475  23.148  57.462  1.00  0.00    -0.532 OA
ENDBRANCH  33  37
ENDBRANCH   1  31
TORSDOF 9
ENDMDL
MODEL 6
REMARK VINA RESULT:     -10.3      3.124      6.149
REMARK  9 active torsions:
REMARK  status: ('A' for Active; 'I' for Inactive)
REMARK    1  A    between atoms: C_3  and  C_4 
REMARK    2  A    between atoms: C_4  and  C_5 
REMARK    3  A    between atoms: C_5  and  N_6 
REMARK       I    between atoms: N_6  and  C_7 
REMARK    4  A    between atoms: C_7  and  C_8 
REMARK    5  A    between atoms: C_8  and  C_9 
REMARK    6  A    between atoms: C_9  and  C_10 
REMARK    7  A    between atoms: C_9  and  C_26 
REMARK    8  A    between atoms: C_14  and  C_15 
REMARK    9  A    between atoms: C_28  and  N_29 
ROOT
HETATM    1  C   UNL     1       6.980  29.011  56.533  1.00  0.00     0.062 C 
ENDROOT
BRANCH   1   2
HETATM    2  C   UNL     1       5.819  29.986  56.281  1.00  0.00     0.116 C 
BRANCH   2   3
HETATM    3  C   UNL     1       4.669  29.479  55.429  1.00  0.00     0.218 C 
HETATM    4  N   UNL     1       4.551  30.059  54.187  1.00  0.00    -0.361 N 
HETATM    5  H   UNL     1       5.083  30.898  53.983  1.00  0.00     0.162 HD
HETATM    6  O   UNL     1       3.930  28.575  55.812  1.00  0.00    -0.274 OA
BRANCH   4   7
HETATM    7  C   UNL     1       3.479  29.663  53.291  1.00  0.00     0.128 C 
BRANCH   7   8
HETATM    8  C   UNL     1       3.979  29.305  51.897  1.00  0.00     0.079 C 
BRANCH   8   9
HETATM    9  C   UNL     1       4.398  27.860  51.840  1.00  0.00     0.035 A 
HETATM   10  C   UNL     1       4.910  27.310  50.667  1.00  0.00     0.027 A 
HETATM   11  C   UNL     1       5.237  25.957  50.646  1.00  0.00     0.003 A 
HETATM   12  C   UNL     1       5.041  25.191  51.788  1.00  0.00     0.019 A 
HETATM   13  C   UNL     1       4.526  25.814  52.911  1.00  0.00     0.117 A 
HETATM   14  N   UNL     1       4.202  27.125  52.960  1.00  0.00    -0.266 NA
ENDBRANCH   8   9
ENDBRANCH   7   8
ENDBRANCH   4   7
ENDBRANCH   2   3
ENDBRANCH   1   2
BRANCH   1  15
HETATM   15  C   UNL     1       7.285  28.132  55.335  1.00  0.00    -0.021 A 
HETATM   16  C   UNL     1       7.534  26.717  55.396  1.00  0.00    -0.001 A 
HETATM   17  C   UNL     1       7.731  26.261  54.094  1.00  0.00     0.043 A 
HETATM   18  C   UNL     1       7.582  25.779  56.444  1.00  0.00     0.015 A 
HETATM   19  C   UNL     1       7.976  24.912  53.790  1.00  0.00     0.044 A 
HETATM   20  N   UNL     1       7.629  27.352  53.265  1.00  0.00    -0.365 N 
HETATM   21  C   UNL     1       8.014  23.970  54.839  1.00  0.00    -0.005 A 
HETATM   22  C   UNL     1       7.812  24.427  56.151  1.00  0.00     0.015 A 
HETATM   23  H   UNL     1       7.742  27.324  52.261  1.00  0.00     0.165 HD
HETATM   24  C   UNL     1       7.325  28.471  53.992  1.00  0.00     0.097 A 
BRANCH  21  25
HETATM   25  C   UNL     1       8.239  22.532  54.583  1.00  0.00     0.066 A 
HETATM   26  N   UNL     1       8.596  21.792  55.664  1.00  0.00    -0.260 NA
HETATM   27  C   UNL     1       8.808  20.469  55.486  1.00  0.00     0.117 A 
HETATM   28  C   UNL     1       8.690  19.828  54.267  1.00  0.00     0.019 A 
HETATM   29  C   UNL     1       8.334  20.590  53.162  1.00  0.00     0.004 A 
HETATM   30  C   UNL     1       8.106  21.956  53.319  1.00  0.00     0.032 A 
ENDBRANCH  21  25
ENDBRANCH   1  15
BRANCH   1  31
HETATM   31  C   UNL     1       8.304  29.543  57.083  1.00  0.00    -0.047 A 
HETATM   32  C   UNL     1       8.313  30.258  58.301  1.00  0.00     0.043 A 
HETATM   33  C   UNL     1       9.507  30.777  58.824  1.00  0.00     0.103 A 
HETATM   34  C   UNL     1      10.714  30.615  58.137  1.00  0.00     0.036 A 
HETATM   35  C   UNL     1      10.715  29.937  56.923  1.00  0.00     0.003 A 
HETATM   36  C   UNL     1       9.525  29.413  56.402  1.00  0.00     0.008 A 
BRANCH  33  37
HETATM   37  N   UNL     1       9.493  31.493  60.104  1.00  0.00    -0.116 N 
HETATM   38  O   UNL     1       9.453  32.732  60.075  1.00  0.00    -0.532 OA
HETATM   39  O   UNL     1       9.520  30.818  61.145  1.00  0.00    -0.532 OA
ENDBRANCH  33  37
ENDBRANCH   1  31
TORSDOF 9
ENDMDL
MODEL 7
REMARK VINA RESULT:     -10.0      2.853      8.083
REMARK  9 active torsions:
REMARK  status: ('A' for Active; 'I' for Inactive)
REMARK    1  A    between atoms: C_3  and  C_4 
REMARK    2  A    between atoms: C_4  and  C_5 
REMARK    3  A    between atoms: C_5  and  N_6 
REMARK       I    between atoms: N_6  and  C_7 
REMARK    4  A    between atoms: C_7  and  C_8 
REMARK    5  A    between atoms: C_8  and  C_9 
REMARK    6  A    between atoms: C_9  and  C_10 
REMARK    7  A    between atoms: C_9  and  C_26 
REMARK    8  A    between atoms: C_14  and  C_15 
REMARK    9  A    between atoms: C_28  and  N_29 
ROOT
HETATM    1  C   UNL     1       7.785  28.998  56.820  1.00  0.00     0.062 C 
ENDROOT
BRANCH   1   2
HETATM    2  C   UNL     1       8.695  27.781  57.051  1.00  0.00     0.116 C 
BRANCH   2   3
HETATM    3  C   UNL     1       8.014  26.477  57.427  1.00  0.00     0.218 C 
HETATM    4  N   UNL     1       7.845  25.578  56.398  1.00  0.00    -0.361 N 
HETATM    5  H   UNL     1       7.991  25.890  55.444  1.00  0.00     0.162 HD
HETATM    6  O   UNL     1       7.684  26.229  58.584  1.00  0.00    -0.274 OA
BRANCH   4   7
HETATM    7  C   UNL     1       7.192  24.304  56.637  1.00  0.00     0.128 C 
BRANCH   7   8
HETATM    8  C   UNL     1       8.172  23.137  56.664  1.00  0.00     0.079 C 
BRANCH   8   9
HETATM    9  C   UNL     1       8.105  22.361  55.376  1.00  0.00     0.035 A 
HETATM   10  C   UNL     1       8.184  20.970  55.374  1.00  0.00     0.027 A 
HETATM   11  C   UNL     1       8.168  20.298  54.155  1.00  0.00     0.003 A 
HETATM   12  C   UNL     1       8.080  21.026  52.976  1.00  0.00     0.019 A 
HETATM   13  C   UNL     1       8.009  22.405  53.065  1.00  0.00     0.117 A 
HETATM   14  N   UNL     1       8.020  23.083  54.233  1.00  0.00    -0.266 NA
ENDBRANCH   8   9
ENDBRANCH   7   8
ENDBRANCH   4   7
ENDBRANCH   2   3
ENDBRANCH   1   2
BRANCH   1  15
HETATM   15  C   UNL     1       6.427  28.624  56.259  1.00  0.00    -0.021 A 
HETATM   16  C   UNL     1       6.136  28.439  54.863  1.00  0.00    -0.001 A 
HETATM   17  C   UNL     1       4.800  28.062  54.750  1.00  0.00     0.043 A 
HETATM   18  C   UNL     1       6.903  28.534  53.686  1.00  0.00     0.015 A 
HETATM   19  C   UNL     1       4.191  27.777  53.517  1.00  0.00     0.044 A 
HETATM   20  N   UNL     1       4.280  28.035  56.022  1.00  0.00    -0.365 N 
HETATM   21  C   UNL     1       4.961  27.862  52.338  1.00  0.00    -0.005 A 
HETATM   22  C   UNL     1       6.309  28.238  52.450  1.00  0.00     0.015 A 
HETATM   23  H   UNL     1       3.321  27.807  56.246  1.00  0.00     0.165 HD
HETATM   24  C   UNL     1       5.254  28.332  56.937  1.00  0.00     0.097 A 
BRANCH  21  25
HETATM   25  C   UNL     1       4.388  27.547  51.013  1.00  0.00     0.066 A 
HETATM   26  N   UNL     1       3.470  28.433  50.545  1.00  0.00    -0.260 NA
HETATM   27  C   UNL     1       2.920  28.196  49.334  1.00  0.00     0.117 A 
HETATM   28  C   UNL     1       3.231  27.102  48.548  1.00  0.00     0.019 A 
HETATM   29  C   UNL     1       4.163  26.194  49.034  1.00  0.00     0.004 A 
HETATM   30  C   UNL     1       4.749  26.417  50.279  1.00  0.00     0.032 A 
ENDBRANCH  21  25
ENDBRANCH   1  15
BRANCH   1  31
HETATM   31  C   UNL     1       7.573  30.004  57.952  1.00  0.00    -0.047 A 
HETATM   32  C   UNL     1       8.440  29.990  59.066  1.00  0.00     0.043 A 
HETATM   33  C   UNL     1       8.262  30.886  60.131  1.00  0.00     0.103 A 
HETATM   34  C   UNL     1       7.205  31.801  60.121  1.00  0.00     0.036 A 
HETATM   35  C   UNL     1       6.327  31.808  59.042  1.00  0.00     0.003 A 
HETATM   36  C   UNL     1       6.507  30.919  57.975  1.00  0.00     0.008 A 
BRANCH  33  37
HETATM   37  N   UNL     1       9.193  30.868  61.265  1.00  0.00    -0.116 N 
HETATM   38  O   UNL     1       9.278  29.823  61.928  1.00  0.00    -0.532 OA
HETATM   39  O   UNL     1       9.844  31.898  61.495  1.00  0.00    -0.532 OA
ENDBRANCH  33  37
ENDBRANCH   1  31
TORSDOF 9
ENDMDL
MODEL 8
REMARK VINA RESULT:     -10.0      2.998      5.175
REMARK  9 active torsions:
REMARK  status: ('A' for Active; 'I' for Inactive)
REMARK    1  A    between atoms: C_3  and  C_4 
REMARK    2  A    between atoms: C_4  and  C_5 
REMARK    3  A    between atoms: C_5  and  N_6 
REMARK       I    between atoms: N_6  and  C_7 
REMARK    4  A    between atoms: C_7  and  C_8 
REMARK    5  A    between atoms: C_8  and  C_9 
REMARK    6  A    between atoms: C_9  and  C_10 
REMARK    7  A    between atoms: C_9  and  C_26 
REMARK    8  A    between atoms: C_14  and  C_15 
REMARK    9  A    between atoms: C_28  and  N_29 
ROOT
HETATM    1  C   UNL     1       5.887  28.842  54.872  1.00  0.00     0.062 C 
ENDROOT
BRANCH   1   2
HETATM    2  C   UNL     1       5.788  29.949  55.935  1.00  0.00     0.116 C 
BRANCH   2   3
HETATM    3  C   UNL     1       6.933  30.052  56.926  1.00  0.00     0.218 C 
HETATM    4  N   UNL     1       6.588  30.482  58.187  1.00  0.00    -0.361 N 
HETATM    5  H   UNL     1       5.669  30.884  58.335  1.00  0.00     0.162 HD
HETATM    6  O   UNL     1       8.079  29.724  56.628  1.00  0.00    -0.274 OA
BRANCH   4   7
HETATM    7  C   UNL     1       7.603  30.634  59.214  1.00  0.00     0.128 C 
BRANCH   7   8
HETATM    8  C   UNL     1       7.931  32.093  59.506  1.00  0.00     0.079 C 
BRANCH   8   9
HETATM    9  C   UNL     1       7.617  32.428  60.940  1.00  0.00     0.035 A 
HETATM   10  C   UNL     1       8.476  32.046  61.968  1.00  0.00     0.027 A 
HETATM   11  C   UNL     1       8.120  32.333  63.283  1.00  0.00     0.003 A 
HETATM   12  C   UNL     1       6.920  32.985  63.538  1.00  0.00     0.019 A 
HETATM   13  C   UNL     1       6.122  33.326  62.460  1.00  0.00     0.117 A 
HETATM   14  N   UNL     1       6.444  33.063  61.174  1.00  0.00    -0.266 NA
ENDBRANCH   8   9
ENDBRANCH   7   8
ENDBRANCH   4   7
ENDBRANCH   2   3
ENDBRANCH   1   2
BRANCH   1  15
HETATM   15  C   UNL     1       5.692  27.452  55.445  1.00  0.00    -0.021 A 
HETATM   16  C   UNL     1       6.339  26.264  54.958  1.00  0.00    -0.001 A 
HETATM   17  C   UNL     1       5.942  25.199  55.763  1.00  0.00     0.043 A 
HETATM   18  C   UNL     1       7.249  26.007  53.915  1.00  0.00     0.015 A 
HETATM   19  C   UNL     1       6.409  23.889  55.576  1.00  0.00     0.044 A 
HETATM   20  N   UNL     1       5.070  25.704  56.698  1.00  0.00    -0.365 N 
HETATM   21  C   UNL     1       7.330  23.631  54.539  1.00  0.00    -0.005 A 
HETATM   22  C   UNL     1       7.734  24.704  53.728  1.00  0.00     0.015 A 
HETATM   23  H   UNL     1       4.608  25.154  57.409  1.00  0.00     0.165 HD
HETATM   24  C   UNL     1       4.942  27.058  56.542  1.00  0.00     0.097 A 
BRANCH  21  25
HETATM   25  C   UNL     1       7.882  22.280  54.307  1.00  0.00     0.066 A 
HETATM   26  N   UNL     1       8.294  21.616  55.418  1.00  0.00    -0.260 NA
HETATM   27  C   UNL     1       8.801  20.373  55.263  1.00  0.00     0.117 A 
HETATM   28  C   UNL     1       8.931  19.743  54.039  1.00  0.00     0.019 A 
HETATM   29  C   UNL     1       8.517  20.429  52.905  1.00  0.00     0.004 A 
HETATM   30  C   UNL     1       7.986  21.711  53.038  1.00  0.00     0.032 A 
ENDBRANCH  21  25
ENDBRANCH   1  15
BRANCH   1  31
HETATM   31  C   UNL     1       5.056  28.951  53.593  1.00  0.00    -0.047 A 
HETATM   32  C   UNL     1       5.707  29.154  52.356  1.00  0.00     0.043 A 
HETATM   33  C   UNL     1       4.973  29.278  51.166  1.00  0.00     0.103 A 
HETATM   34  C   UNL     1       3.577  29.224  51.183  1.00  0.00     0.036 A 
HETATM   35  C   UNL     1       2.921  29.051  52.398  1.00  0.00     0.003 A 
HETATM   36  C   UNL     1       3.652  28.921  53.585  1.00  0.00     0.008 A 
BRANCH  33  37
HETATM   37  N   UNL     1       5.675  29.463  49.891  1.00  0.00    -0.116 N 
HETATM   38  O   UNL     1       6.456  30.421  49.793  1.00  0.00    -0.532 OA
HETATM   39  O   UNL     1       5.450  28.647  48.984  1.00  0.00    -0.532 OA
ENDBRANCH  33  37
ENDBRANCH   1  31
TORSDOF 9
ENDMDL
MODEL 9
REMARK VINA RESULT:      -9.9      3.232      9.679
REMARK  9 active torsions:
REMARK  status: ('A' for Active; 'I' for Inactive)
REMARK    1  A    between atoms: C_3  and  C_4 
REMARK    2  A    between atoms: C_4  and  C_5 
REMARK    3  A    between atoms: C_5  and  N_6 
REMARK       I    between atoms: N_6  and  C_7 
REMARK    4  A    between atoms: C_7  and  C_8 
REMARK    5  A    between atoms: C_8  and  C_9 
REMARK    6  A    between atoms: C_9  and  C_10 
REMARK    7  A    between atoms: C_9  and  C_26 
REMARK    8  A    between atoms: C_14  and  C_15 
REMARK    9  A    between atoms: C_28  and  N_29 
ROOT
HETATM    1  C   UNL     1       5.426  27.222  53.764  1.00  0.00     0.062 C 
ENDROOT
BRANCH   1   2
HETATM    2  C   UNL     1       5.332  25.737  54.152  1.00  0.00     0.116 C 
BRANCH   2   3
HETATM    3  C   UNL     1       5.776  25.366  55.556  1.00  0.00     0.218 C 
HETATM    4  N   UNL     1       7.072  24.917  55.668  1.00  0.00    -0.361 N 
HETATM    5  H   UNL     1       7.583  24.674  54.827  1.00  0.00     0.162 HD
HETATM    6  O   UNL     1       5.037  25.507  56.527  1.00  0.00    -0.274 OA
BRANCH   4   7
HETATM    7  C   UNL     1       7.601  24.519  56.960  1.00  0.00     0.128 C 
BRANCH   7   8
HETATM    8  C   UNL     1       8.777  23.557  56.844  1.00  0.00     0.079 C 
BRANCH   8   9
HETATM    9  C   UNL     1       8.514  22.527  55.778  1.00  0.00     0.035 A 
HETATM   10  C   UNL     1       8.054  21.255  56.113  1.00  0.00     0.027 A 
HETATM   11  C   UNL     1       7.872  20.319  55.099  1.00  0.00     0.003 A 
HETATM   12  C   UNL     1       8.157  20.671  53.786  1.00  0.00     0.019 A 
HETATM   13  C   UNL     1       8.613  21.954  53.539  1.00  0.00     0.117 A 
HETATM   14  N   UNL     1       8.796  22.883  54.503  1.00  0.00    -0.266 NA
ENDBRANCH   8   9
ENDBRANCH   7   8
ENDBRANCH   4   7
ENDBRANCH   2   3
ENDBRANCH   1   2
BRANCH   1  15
HETATM   15  C   UNL     1       6.650  27.908  54.340  1.00  0.00    -0.021 A 
HETATM   16  C   UNL     1       6.683  28.612  55.593  1.00  0.00    -0.001 A 
HETATM   17  C   UNL     1       7.985  29.064  55.796  1.00  0.00     0.043 A 
HETATM   18  C   UNL     1       5.723  28.882  56.587  1.00  0.00     0.015 A 
HETATM   19  C   UNL     1       8.374  29.774  56.942  1.00  0.00     0.044 A 
HETATM   20  N   UNL     1       8.722  28.673  54.703  1.00  0.00    -0.365 N 
HETATM   21  C   UNL     1       7.416  30.036  57.944  1.00  0.00    -0.005 A 
HETATM   22  C   UNL     1       6.104  29.578  57.744  1.00  0.00     0.015 A 
HETATM   23  H   UNL     1       9.703  28.877  54.568  1.00  0.00     0.165 HD
HETATM   24  C   UNL     1       7.942  27.948  53.843  1.00  0.00     0.097 A 
BRANCH  21  25
HETATM   25  C   UNL     1       7.768  30.754  59.187  1.00  0.00     0.066 A 
HETATM   26  N   UNL     1       8.723  30.166  59.954  1.00  0.00    -0.260 NA
HETATM   27  C   UNL     1       9.087  30.785  61.098  1.00  0.00     0.117 A 
HETATM   28  C   UNL     1       8.538  31.975  61.538  1.00  0.00     0.019 A 
HETATM   29  C   UNL     1       7.555  32.567  60.756  1.00  0.00     0.004 A 
HETATM   30  C   UNL     1       7.164  31.952  59.568  1.00  0.00     0.032 A 
ENDBRANCH  21  25
ENDBRANCH   1  15
BRANCH   1  31
HETATM   31  C   UNL     1       5.302  27.624  52.294  1.00  0.00    -0.047 A 
HETATM   32  C   UNL     1       5.373  28.990  51.939  1.00  0.00     0.043 A 
HETATM   33  C   UNL     1       5.244  29.395  50.602  1.00  0.00     0.103 A 
HETATM   34  C   UNL     1       5.020  28.455  49.592  1.00  0.00     0.036 A 
HETATM   35  C   UNL     1       4.920  27.109  49.931  1.00  0.00     0.003 A 
HETATM   36  C   UNL     1       5.055  26.702  51.264  1.00  0.00     0.008 A 
BRANCH  33  37
HETATM   37  N   UNL     1       5.347  30.817  50.256  1.00  0.00    -0.116 N 
HETATM   38  O   UNL     1       6.456  31.250  49.908  1.00  0.00    -0.532 OA
HETATM   39  O   UNL     1       4.318  31.506  50.329  1.00  0.00    -0.532 OA
ENDBRANCH  33  37
ENDBRANCH   1  31
TORSDOF 9
ENDMDL
MODEL 10
REMARK VINA RESULT:      -9.9      5.007      8.191
REMARK  9 active torsions:
REMARK  status: ('A' for Active; 'I' for Inactive)
REMARK    1  A    between atoms: C_3  and  C_4 
REMARK    2  A    between atoms: C_4  and  C_5 
REMARK    3  A    between atoms: C_5  and  N_6 
REMARK       I    between atoms: N_6  and  C_7 
REMARK    4  A    between atoms: C_7  and  C_8 
REMARK    5  A    between atoms: C_8  and  C_9 
REMARK    6  A    between atoms: C_9  and  C_10 
REMARK    7  A    between atoms: C_9  and  C_26 
REMARK    8  A    between atoms: C_14  and  C_15 
REMARK    9  A    between atoms: C_28  and  N_29 
ROOT
HETATM    1  C   UNL     1       5.469  28.081  50.710  1.00  0.00     0.062 C 
ENDROOT
BRANCH   1   2
HETATM    2  C   UNL     1       5.673  29.481  51.312  1.00  0.00     0.116 C 
BRANCH   2   3
HETATM    3  C   UNL     1       4.572  30.007  52.214  1.00  0.00     0.218 C 
HETATM    4  N   UNL     1       4.890  30.092  53.550  1.00  0.00    -0.361 N 
HETATM    5  H   UNL     1       5.731  29.634  53.886  1.00  0.00     0.162 HD
HETATM    6  O   UNL     1       3.489  30.376  51.766  1.00  0.00    -0.274 OA
BRANCH   4   7
HETATM    7  C   UNL     1       3.910  30.567  54.510  1.00  0.00     0.128 C 
BRANCH   7   8
HETATM    8  C   UNL     1       4.491  30.744  55.907  1.00  0.00     0.079 C 
BRANCH   8   9
HETATM    9  C   UNL     1       5.175  29.481  56.359  1.00  0.00     0.035 A 
HETATM   10  C   UNL     1       6.443  29.521  56.934  1.00  0.00     0.027 A 
HETATM   11  C   UNL     1       7.057  28.324  57.290  1.00  0.00     0.003 A 
HETATM   12  C   UNL     1       6.397  27.123  57.060  1.00  0.00     0.019 A 
HETATM   13  C   UNL     1       5.141  27.171  56.482  1.00  0.00     0.117 A 
HETATM   14  N   UNL     1       4.520  28.318  56.129  1.00  0.00    -0.266 NA
ENDBRANCH   8   9
ENDBRANCH   7   8
ENDBRANCH   4   7
ENDBRANCH   2   3
ENDBRANCH   1   2
BRANCH   1  15
HETATM   15  C   UNL     1       5.112  27.036  51.750  1.00  0.00    -0.021 A 
HETATM   16  C   UNL     1       5.952  25.931  52.127  1.00  0.00    -0.001 A 
HETATM   17  C   UNL     1       5.301  25.224  53.135  1.00  0.00     0.043 A 
HETATM   18  C   UNL     1       7.223  25.487  51.716  1.00  0.00     0.015 A 
HETATM   19  C   UNL     1       5.858  24.091  53.750  1.00  0.00     0.044 A 
HETATM   20  N   UNL     1       4.100  25.852  53.357  1.00  0.00    -0.365 N 
HETATM   21  C   UNL     1       7.136  23.652  53.347  1.00  0.00    -0.005 A 
HETATM   22  C   UNL     1       7.796  24.367  52.334  1.00  0.00     0.015 A 
HETATM   23  H   UNL     1       3.407  25.548  54.028  1.00  0.00     0.165 HD
HETATM   24  C   UNL     1       3.991  26.960  52.561  1.00  0.00     0.097 A 
BRANCH  21  25
HETATM   25  C   UNL     1       7.791  22.485  53.975  1.00  0.00     0.066 A 
HETATM   26  N   UNL     1       8.099  22.622  55.291  1.00  0.00    -0.260 NA
HETATM   27  C   UNL     1       8.693  21.582  55.915  1.00  0.00     0.117 A 
HETATM   28  C   UNL     1       9.011  20.390  55.291  1.00  0.00     0.019 A 
HETATM   29  C   UNL     1       8.702  20.257  53.944  1.00  0.00     0.004 A 
HETATM   30  C   UNL     1       8.085  21.314  53.276  1.00  0.00     0.032 A 
ENDBRANCH  21  25
ENDBRANCH   1  15
BRANCH   1  31
HETATM   31  C   UNL     1       4.530  27.905  49.516  1.00  0.00    -0.047 A 
HETATM   32  C   UNL     1       4.197  26.604  49.080  1.00  0.00     0.043 A 
HETATM   33  C   UNL     1       3.353  26.407  47.975  1.00  0.00     0.103 A 
HETATM   34  C   UNL     1       2.840  27.498  47.269  1.00  0.00     0.036 A 
HETATM   35  C   UNL     1       3.182  28.786  47.671  1.00  0.00     0.003 A 
HETATM   36  C   UNL     1       4.019  28.984  48.776  1.00  0.00     0.008 A 
BRANCH  33  37
HETATM   37  N   UNL     1       3.002  25.045  47.558  1.00  0.00    -0.116 N 
HETATM   38  O   UNL     1       2.969  24.163  48.429  1.00  0.00    -0.532 OA
HETATM   39  O   UNL     1       2.755  24.854  46.358  1.00  0.00    -0.532 OA
ENDBRANCH  33  37
ENDBRANCH   1  31
TORSDOF 9
ENDMDL
