MODEL 1
REMARK VINA RESULT:      -9.3      0.000      0.000
REMARK  7 active torsions:
REMARK  status: ('A' for Active; 'I' for Inactive)
REMARK       I    between atoms: C_2  and  N_3 
REMARK    1  A    between atoms: N_3  and  C_4 
REMARK    2  A    between atoms: N_9  and  C_10 
REMARK    3  A    between atoms: C_10  and  C_11 
REMARK    4  A    between atoms: C_11  and  C_12 
REMARK    5  A    between atoms: C_12  and  O_13 
REMARK    6  A    between atoms: O_13  and  C_14 
REMARK    7  A    between atoms: C_17  and  C_18 
REMARK       I    between atoms: N_30  and  C_31 
ROOT
HETATM    1  C   UNL     1       3.836  31.887  47.930  1.00  0.00     0.191 C 
HETATM    2  S   UNL     1       4.609  30.441  47.361  1.00  0.00    -0.042 SA
HETATM    3  C   UNL     1       3.640  29.522  48.624  1.00  0.00     0.224 A 
HETATM    4  C   UNL     1       4.566  29.304  49.853  1.00  0.00     0.271 A 
HETATM    5  O   UNL     1       5.029  30.193  50.559  1.00  0.00    -0.269 OA
HETATM    6  N   UNL     1       4.779  27.918  49.968  1.00  0.00    -0.314 N 
HETATM    7  C   UNL     1       4.011  27.225  49.008  1.00  0.00     0.047 A 
HETATM    8  C   UNL     1       3.313  28.127  48.193  1.00  0.00     0.019 A 
HETATM    9  C   UNL     1       3.890  25.858  48.833  1.00  0.00     0.030 A 
HETATM   10  C   UNL     1       3.049  25.398  47.815  1.00  0.00     0.002 A 
HETATM   11  C   UNL     1       2.348  26.300  46.998  1.00  0.00     0.001 A 
HETATM   12  C   UNL     1       2.476  27.678  47.182  1.00  0.00     0.013 A 
HETATM   13  N   UNL     1       2.559  30.438  48.974  1.00  0.00    -0.201 N 
HETATM   14  C   UNL     1       1.557  30.085  49.864  1.00  0.00     0.238 C 
HETATM   15  C   UNL     1       0.590  31.186  50.224  1.00  0.00     0.119 C 
HETATM   16  O   UNL     1       1.446  28.961  50.350  1.00  0.00    -0.272 OA
HETATM   17  N   UNL     1       2.789  31.776  48.676  1.00  0.00    -0.141 NA
ENDROOT
BRANCH   6  18
HETATM   18  C   UNL     1       5.522  27.235  51.021  1.00  0.00     0.134 C 
BRANCH  18  19
HETATM   19  C   UNL     1       4.765  27.040  52.331  1.00  0.00     0.047 C 
BRANCH  19  20
HETATM   20  C   UNL     1       5.630  27.291  53.560  1.00  0.00     0.177 C 
BRANCH  20  21
HETATM   21  O   UNL     1       6.925  26.776  53.252  1.00  0.00    -0.351 OA
BRANCH  21  22
HETATM   22  C   UNL     1       7.227  25.516  53.672  1.00  0.00     0.068 A 
HETATM   23  C   UNL     1       7.160  25.047  54.979  1.00  0.00     0.037 A 
HETATM   24  C   UNL     1       7.494  23.716  55.270  1.00  0.00     0.011 A 
HETATM   25  C   UNL     1       7.899  22.822  54.264  1.00  0.00    -0.050 A 
HETATM   26  C   UNL     1       7.956  23.319  52.950  1.00  0.00     0.011 A 
HETATM   27  C   UNL     1       7.621  24.644  52.661  1.00  0.00     0.037 A 
BRANCH  25  28
HETATM   28  C   UNL     1       8.271  21.357  54.548  1.00  0.00    -0.024 C 
HETATM   29  C   UNL     1       7.427  20.704  55.666  1.00  0.00     0.019 C 
HETATM   30  C   UNL     1       8.068  20.514  53.270  1.00  0.00     0.019 C 
HETATM   31  C   UNL     1       9.750  21.271  54.982  1.00  0.00     0.019 C 
ENDBRANCH  25  28
ENDBRANCH  21  22
ENDBRANCH  20  21
ENDBRANCH  19  20
ENDBRANCH  18  19
ENDBRANCH   6  18
BRANCH   1  32
HETATM   32  N   UNL     1       4.433  33.040  47.513  1.00  0.00    -0.305 N 
HETATM   33  C   UNL     1       5.406  33.802  48.114  1.00  0.00     0.219 C 
HETATM   34  C   UNL     1       6.069  33.278  49.358  1.00  0.00     0.117 C 
HETATM   35  O   UNL     1       5.719  34.885  47.618  1.00  0.00    -0.274 OA
HETATM   36  H   UNL     1       4.133  33.401  46.619  1.00  0.00     0.171 HD
ENDBRANCH   1  32
TORSDOF 7
ENDMDL
MODEL 2
REMARK VINA RESULT:      -9.0     10.265     12.494
REMARK  7 active torsions:
REMARK  status: ('A' for Active; 'I' for Inactive)
REMARK       I    between atoms: C_2  and  N_3 
REMARK    1  A    between atoms: N_3  and  C_4 
REMARK    2  A    between atoms: N_9  and  C_10 
REMARK    3  A    between atoms: C_10  and  C_11 
REMARK    4  A    between atoms: C_11  and  C_12 
REMARK    5  A    between atoms: C_12  and  O_13 
REMARK    6  A    between atoms: O_13  and  C_14 
REMARK    7  A    between atoms: C_17  and  C_18 
REMARK       I    between atoms: N_30  and  C_31 
ROOT
HETATM    1  C   UNL     1       2.061  34.885  61.784  1.00  0.00     0.191 C 
HETATM    2  S   UNL     1       2.839  33.550  62.575  1.00  0.00    -0.042 SA
HETATM    3  C   UNL     1       4.400  34.516  62.494  1.00  0.00     0.224 A 
HETATM    4  C   UNL     1       5.201  34.005  61.264  1.00  0.00     0.271 A 
HETATM    5  O   UNL     1       4.842  34.100  60.096  1.00  0.00    -0.269 OA
HETATM    6  N   UNL     1       6.374  33.405  61.756  1.00  0.00    -0.314 N 
HETATM    7  C   UNL     1       6.454  33.566  63.156  1.00  0.00     0.047 A 
HETATM    8  C   UNL     1       5.316  34.225  63.641  1.00  0.00     0.019 A 
HETATM    9  C   UNL     1       7.475  33.180  64.005  1.00  0.00     0.030 A 
HETATM   10  C   UNL     1       7.340  33.463  65.368  1.00  0.00     0.002 A 
HETATM   11  C   UNL     1       6.200  34.123  65.856  1.00  0.00     0.001 A 
HETATM   12  C   UNL     1       5.175  34.510  64.991  1.00  0.00     0.013 A 
HETATM   13  N   UNL     1       3.955  35.888  62.261  1.00  0.00    -0.201 N 
HETATM   14  C   UNL     1       4.845  36.948  62.202  1.00  0.00     0.238 C 
HETATM   15  C   UNL     1       4.245  38.279  61.821  1.00  0.00     0.119 C 
HETATM   16  O   UNL     1       6.048  36.837  62.429  1.00  0.00    -0.272 OA
HETATM   17  N   UNL     1       2.674  36.018  61.735  1.00  0.00    -0.141 NA
ENDROOT
BRANCH   6  18
HETATM   18  C   UNL     1       7.467  32.852  60.965  1.00  0.00     0.134 C 
BRANCH  18  19
HETATM   19  C   UNL     1       7.059  31.820  59.919  1.00  0.00     0.047 C 
BRANCH  19  20
HETATM   20  C   UNL     1       8.195  30.878  59.538  1.00  0.00     0.177 C 
BRANCH  20  21
HETATM   21  O   UNL     1       8.082  30.661  58.132  1.00  0.00    -0.351 OA
BRANCH  21  22
HETATM   22  C   UNL     1       7.746  29.412  57.705  1.00  0.00     0.068 A 
HETATM   23  C   UNL     1       8.629  28.382  57.402  1.00  0.00     0.037 A 
HETATM   24  C   UNL     1       8.143  27.136  56.978  1.00  0.00     0.011 A 
HETATM   25  C   UNL     1       6.765  26.889  56.850  1.00  0.00    -0.050 A 
HETATM   26  C   UNL     1       5.892  27.945  57.166  1.00  0.00     0.011 A 
HETATM   27  C   UNL     1       6.378  29.184  57.590  1.00  0.00     0.037 A 
BRANCH  25  28
HETATM   28  C   UNL     1       6.198  25.535  56.390  1.00  0.00    -0.024 C 
HETATM   29  C   UNL     1       5.859  25.481  54.883  1.00  0.00     0.019 C 
HETATM   30  C   UNL     1       7.230  24.420  56.667  1.00  0.00     0.019 C 
HETATM   31  C   UNL     1       4.898  25.227  57.163  1.00  0.00     0.019 C 
ENDBRANCH  25  28
ENDBRANCH  21  22
ENDBRANCH  20  21
ENDBRANCH  19  20
ENDBRANCH  18  19
ENDBRANCH   6  18
BRANCH   1  32
HETATM   32  N   UNL     1       0.829  34.592  61.276  1.00  0.00    -0.305 N 
HETATM   33  C   UNL     1       0.242  34.981  60.096  1.00  0.00     0.219 C 
HETATM   34  C   UNL     1       1.070  35.728  59.087  1.00  0.00     0.117 C 
HETATM   35  O   UNL     1      -0.938  34.699  59.886  1.00  0.00    -0.274 OA
HETATM   36  H   UNL     1       0.247  33.988  61.837  1.00  0.00     0.171 HD
ENDBRANCH   1  32
TORSDOF 7
ENDMDL
MODEL 3
REMARK VINA RESULT:      -8.9      7.435     10.990
REMARK  7 active torsions:
REMARK  status: ('A' for Active; 'I' for Inactive)
REMARK       I    between atoms: C_2  and  N_3 
REMARK    1  A    between atoms: N_3  and  C_4 
REMARK    2  A    between atoms: N_9  and  C_10 
REMARK    3  A    between atoms: C_10  and  C_11 
REMARK    4  A    between atoms: C_11  and  C_12 
REMARK    5  A    between atoms: C_12  and  O_13 
REMARK    6  A    between atoms: O_13  and  C_14 
REMARK    7  A    between atoms: C_17  and  C_18 
REMARK       I    between atoms: N_30  and  C_31 
ROOT
HETATM    1  C   UNL     1       7.106  26.523  53.761  1.00  0.00     0.191 C 
HETATM    2  S   UNL     1       7.531  28.193  53.970  1.00  0.00    -0.042 SA
HETATM    3  C   UNL     1       7.580  27.871  55.779  1.00  0.00     0.224 A 
HETATM    4  C   UNL     1       6.222  28.340  56.373  1.00  0.00     0.271 A 
HETATM    5  O   UNL     1       5.128  27.856  56.109  1.00  0.00    -0.269 OA
HETATM    6  N   UNL     1       6.499  29.423  57.228  1.00  0.00    -0.314 N 
HETATM    7  C   UNL     1       7.892  29.629  57.319  1.00  0.00     0.047 A 
HETATM    8  C   UNL     1       8.577  28.732  56.488  1.00  0.00     0.019 A 
HETATM    9  C   UNL     1       8.573  30.545  58.101  1.00  0.00     0.030 A 
HETATM   10  C   UNL     1       9.970  30.554  58.037  1.00  0.00     0.002 A 
HETATM   11  C   UNL     1      10.658  29.656  57.206  1.00  0.00     0.001 A 
HETATM   12  C   UNL     1       9.963  28.734  56.421  1.00  0.00     0.013 A 
HETATM   13  N   UNL     1       7.687  26.418  55.876  1.00  0.00    -0.201 N 
HETATM   14  C   UNL     1       7.817  25.772  57.094  1.00  0.00     0.238 C 
HETATM   15  C   UNL     1       7.781  24.264  57.038  1.00  0.00     0.119 C 
HETATM   16  O   UNL     1       7.945  26.362  58.166  1.00  0.00    -0.272 OA
HETATM   17  N   UNL     1       7.279  25.712  54.750  1.00  0.00    -0.141 NA
ENDROOT
BRANCH   6  18
HETATM   18  C   UNL     1       5.543  30.138  58.065  1.00  0.00     0.134 C 
BRANCH  18  19
HETATM   19  C   UNL     1       4.747  31.231  57.360  1.00  0.00     0.047 C 
BRANCH  19  20
HETATM   20  C   UNL     1       4.846  32.582  58.056  1.00  0.00     0.177 C 
BRANCH  20  21
HETATM   21  O   UNL     1       6.137  32.627  58.664  1.00  0.00    -0.351 OA
BRANCH  21  22
HETATM   22  C   UNL     1       6.207  32.943  59.988  1.00  0.00     0.068 A 
HETATM   23  C   UNL     1       7.248  32.629  60.853  1.00  0.00     0.037 A 
HETATM   24  C   UNL     1       7.192  33.025  62.198  1.00  0.00     0.011 A 
HETATM   25  C   UNL     1       6.099  33.745  62.709  1.00  0.00    -0.050 A 
HETATM   26  C   UNL     1       5.059  34.053  61.812  1.00  0.00     0.011 A 
HETATM   27  C   UNL     1       5.117  33.660  60.473  1.00  0.00     0.037 A 
BRANCH  25  28
HETATM   28  C   UNL     1       6.006  34.196  64.176  1.00  0.00    -0.024 C 
HETATM   29  C   UNL     1       4.851  33.533  64.960  1.00  0.00     0.019 C 
HETATM   30  C   UNL     1       7.318  33.845  64.910  1.00  0.00     0.019 C 
HETATM   31  C   UNL     1       5.784  35.723  64.237  1.00  0.00     0.019 C 
ENDBRANCH  25  28
ENDBRANCH  21  22
ENDBRANCH  20  21
ENDBRANCH  19  20
ENDBRANCH  18  19
ENDBRANCH   6  18
BRANCH   1  32
HETATM   32  N   UNL     1       6.616  26.222  52.524  1.00  0.00    -0.305 N 
HETATM   33  C   UNL     1       5.361  26.411  51.998  1.00  0.00     0.219 C 
HETATM   34  C   UNL     1       4.354  27.194  52.794  1.00  0.00     0.117 C 
HETATM   35  O   UNL     1       5.096  25.949  50.888  1.00  0.00    -0.274 OA
HETATM   36  H   UNL     1       7.267  25.801  51.877  1.00  0.00     0.171 HD
ENDBRANCH   1  32
TORSDOF 7
ENDMDL
MODEL 4
REMARK VINA RESULT:      -8.9      6.862      8.874
REMARK  7 active torsions:
REMARK  status: ('A' for Active; 'I' for Inactive)
REMARK       I    between atoms: C_2  and  N_3 
REMARK    1  A    between atoms: N_3  and  C_4 
REMARK    2  A    between atoms: N_9  and  C_10 
REMARK    3  A    between atoms: C_10  and  C_11 
REMARK    4  A    between atoms: C_11  and  C_12 
REMARK    5  A    between atoms: C_12  and  O_13 
REMARK    6  A    between atoms: O_13  and  C_14 
REMARK    7  A    between atoms: C_17  and  C_18 
REMARK       I    between atoms: N_30  and  C_31 
ROOT
HETATM    1  C   UNL     1       3.316  33.311  59.853  1.00  0.00     0.191 C 
HETATM    2  S   UNL     1       4.274  31.947  60.338  1.00  0.00    -0.042 SA
HETATM    3  C   UNL     1       4.881  31.860  58.606  1.00  0.00     0.224 A 
HETATM    4  C   UNL     1       4.047  30.770  57.874  1.00  0.00     0.271 A 
HETATM    5  O   UNL     1       2.841  30.823  57.666  1.00  0.00    -0.269 OA
HETATM    6  N   UNL     1       4.932  29.730  57.538  1.00  0.00    -0.314 N 
HETATM    7  C   UNL     1       6.254  30.083  57.886  1.00  0.00     0.047 A 
HETATM    8  C   UNL     1       6.279  31.336  58.512  1.00  0.00     0.019 A 
HETATM    9  C   UNL     1       7.417  29.368  57.664  1.00  0.00     0.030 A 
HETATM   10  C   UNL     1       8.625  29.931  58.086  1.00  0.00     0.002 A 
HETATM   11  C   UNL     1       8.654  31.186  58.714  1.00  0.00     0.001 A 
HETATM   12  C   UNL     1       7.475  31.901  58.933  1.00  0.00     0.013 A 
HETATM   13  N   UNL     1       4.568  33.176  58.055  1.00  0.00    -0.201 N 
HETATM   14  C   UNL     1       4.931  33.537  56.768  1.00  0.00     0.238 C 
HETATM   15  C   UNL     1       4.420  34.878  56.301  1.00  0.00     0.119 C 
HETATM   16  O   UNL     1       5.615  32.829  56.030  1.00  0.00    -0.272 OA
HETATM   17  N   UNL     1       3.583  33.886  58.730  1.00  0.00    -0.141 NA
ENDROOT
BRANCH   6  18
HETATM   18  C   UNL     1       4.615  28.530  56.773  1.00  0.00     0.134 C 
BRANCH  18  19
HETATM   19  C   UNL     1       4.654  28.692  55.257  1.00  0.00     0.047 C 
BRANCH  19  20
HETATM   20  C   UNL     1       5.314  27.515  54.549  1.00  0.00     0.177 C 
BRANCH  20  21
HETATM   21  O   UNL     1       5.414  26.470  55.517  1.00  0.00    -0.351 OA
BRANCH  21  22
HETATM   22  C   UNL     1       6.064  25.328  55.157  1.00  0.00     0.068 A 
HETATM   23  C   UNL     1       6.302  24.893  53.859  1.00  0.00     0.037 A 
HETATM   24  C   UNL     1       6.995  23.694  53.631  1.00  0.00     0.011 A 
HETATM   25  C   UNL     1       7.468  22.905  54.693  1.00  0.00    -0.050 A 
HETATM   26  C   UNL     1       7.217  23.368  55.997  1.00  0.00     0.011 A 
HETATM   27  C   UNL     1       6.529  24.563  56.222  1.00  0.00     0.037 A 
BRANCH  25  28
HETATM   28  C   UNL     1       8.231  21.587  54.480  1.00  0.00    -0.024 C 
HETATM   29  C   UNL     1       7.866  20.483  55.497  1.00  0.00     0.019 C 
HETATM   30  C   UNL     1       7.924  21.032  53.072  1.00  0.00     0.019 C 
HETATM   31  C   UNL     1       9.749  21.840  54.605  1.00  0.00     0.019 C 
ENDBRANCH  25  28
ENDBRANCH  21  22
ENDBRANCH  20  21
ENDBRANCH  19  20
ENDBRANCH  18  19
ENDBRANCH   6  18
BRANCH   1  32
HETATM   32  N   UNL     1       2.342  33.653  60.744  1.00  0.00    -0.305 N 
HETATM   33  C   UNL     1       2.432  34.313  61.946  1.00  0.00     0.219 C 
HETATM   34  C   UNL     1       3.753  34.908  62.347  1.00  0.00     0.117 C 
HETATM   35  O   UNL     1       1.432  34.412  62.658  1.00  0.00    -0.274 OA
HETATM   36  H   UNL     1       1.397  33.399  60.493  1.00  0.00     0.171 HD
ENDBRANCH   1  32
TORSDOF 7
ENDMDL
MODEL 5
REMARK VINA RESULT:      -8.8      5.161      7.987
REMARK  7 active torsions:
REMARK  status: ('A' for Active; 'I' for Inactive)
REMARK       I    between atoms: C_2  and  N_3 
REMARK    1  A    between atoms: N_3  and  C_4 
REMARK    2  A    between atoms: N_9  and  C_10 
REMARK    3  A    between atoms: C_10  and  C_11 
REMARK    4  A    between atoms: C_11  and  C_12 
REMARK    5  A    between atoms: C_12  and  O_13 
REMARK    6  A    between atoms: O_13  and  C_14 
REMARK    7  A    between atoms: C_17  and  C_18 
REMARK       I    between atoms: N_30  and  C_31 
ROOT
HETATM    1  C   UNL     1       7.407  30.974  58.689  1.00  0.00     0.191 C 
HETATM    2  S   UNL     1       6.104  29.828  58.680  1.00  0.00    -0.042 SA
HETATM    3  C   UNL     1       6.809  29.159  57.121  1.00  0.00     0.224 A 
HETATM    4  C   UNL     1       6.012  29.786  55.942  1.00  0.00     0.271 A 
HETATM    5  O   UNL     1       5.985  30.978  55.660  1.00  0.00    -0.269 OA
HETATM    6  N   UNL     1       5.325  28.736  55.305  1.00  0.00    -0.314 N 
HETATM    7  C   UNL     1       5.677  27.499  55.886  1.00  0.00     0.047 A 
HETATM    8  C   UNL     1       6.558  27.693  56.959  1.00  0.00     0.019 A 
HETATM    9  C   UNL     1       5.274  26.231  55.509  1.00  0.00     0.030 A 
HETATM   10  C   UNL     1       5.770  25.142  56.232  1.00  0.00     0.002 A 
HETATM   11  C   UNL     1       6.654  25.333  57.306  1.00  0.00     0.001 A 
HETATM   12  C   UNL     1       7.056  26.617  57.679  1.00  0.00     0.013 A 
HETATM   13  N   UNL     1       8.182  29.658  57.111  1.00  0.00    -0.201 N 
HETATM   14  C   UNL     1       9.080  29.316  56.114  1.00  0.00     0.238 C 
HETATM   15  C   UNL     1      10.414  30.018  56.172  1.00  0.00     0.119 C 
HETATM   16  O   UNL     1       8.830  28.505  55.223  1.00  0.00    -0.272 OA
HETATM   17  N   UNL     1       8.420  30.766  57.917  1.00  0.00    -0.141 NA
ENDROOT
BRANCH   6  18
HETATM   18  C   UNL     1       4.509  28.835  54.101  1.00  0.00     0.134 C 
BRANCH  18  19
HETATM   19  C   UNL     1       5.270  28.704  52.785  1.00  0.00     0.047 C 
BRANCH  19  20
HETATM   20  C   UNL     1       4.765  27.557  51.918  1.00  0.00     0.177 C 
BRANCH  20  21
HETATM   21  O   UNL     1       5.924  26.895  51.412  1.00  0.00    -0.351 OA
BRANCH  21  22
HETATM   22  C   UNL     1       6.317  25.743  52.024  1.00  0.00     0.068 A 
HETATM   23  C   UNL     1       5.490  24.698  52.416  1.00  0.00     0.037 A 
HETATM   24  C   UNL     1       6.032  23.560  53.033  1.00  0.00     0.011 A 
HETATM   25  C   UNL     1       7.412  23.439  53.269  1.00  0.00    -0.050 A 
HETATM   26  C   UNL     1       8.229  24.509  52.861  1.00  0.00     0.011 A 
HETATM   27  C   UNL     1       7.687  25.640  52.245  1.00  0.00     0.037 A 
BRANCH  25  28
HETATM   28  C   UNL     1       8.041  22.206  53.941  1.00  0.00    -0.024 C 
HETATM   29  C   UNL     1       7.877  20.902  53.129  1.00  0.00     0.019 C 
HETATM   30  C   UNL     1       9.555  22.437  54.135  1.00  0.00     0.019 C 
HETATM   31  C   UNL     1       7.383  21.974  55.318  1.00  0.00     0.019 C 
ENDBRANCH  25  28
ENDBRANCH  21  22
ENDBRANCH  20  21
ENDBRANCH  19  20
ENDBRANCH  18  19
ENDBRANCH   6  18
BRANCH   1  32
HETATM   32  N   UNL     1       7.226  32.018  59.547  1.00  0.00    -0.305 N 
HETATM   33  C   UNL     1       7.589  32.156  60.865  1.00  0.00     0.219 C 
HETATM   34  C   UNL     1       8.446  31.092  61.494  1.00  0.00     0.117 C 
HETATM   35  O   UNL     1       7.216  33.146  61.495  1.00  0.00    -0.274 OA
HETATM   36  H   UNL     1       6.763  32.832  59.169  1.00  0.00     0.171 HD
ENDBRANCH   1  32
TORSDOF 7
ENDMDL
MODEL 6
REMARK VINA RESULT:      -8.6      1.538      2.160
REMARK  7 active torsions:
REMARK  status: ('A' for Active; 'I' for Inactive)
REMARK       I    between atoms: C_2  and  N_3 
REMARK    1  A    between atoms: N_3  and  C_4 
REMARK    2  A    between atoms: N_9  and  C_10 
REMARK    3  A    between atoms: C_10  and  C_11 
REMARK    4  A    between atoms: C_11  and  C_12 
REMARK    5  A    between atoms: C_12  and  O_13 
REMARK    6  A    between atoms: O_13  and  C_14 
REMARK    7  A    between atoms: C_17  and  C_18 
REMARK       I    between atoms: N_30  and  C_31 
ROOT
HETATM    1  C   UNL     1       5.255  32.858  49.212  1.00  0.00     0.191 C 
HETATM    2  S   UNL     1       6.145  31.399  49.520  1.00  0.00    -0.042 SA
HETATM    3  C   UNL     1       4.528  30.559  49.759  1.00  0.00     0.224 A 
HETATM    4  C   UNL     1       4.260  30.491  51.289  1.00  0.00     0.271 A 
HETATM    5  O   UNL     1       4.098  31.459  52.023  1.00  0.00    -0.269 OA
HETATM    6  N   UNL     1       4.271  29.131  51.649  1.00  0.00    -0.314 N 
HETATM    7  C   UNL     1       4.418  28.324  50.501  1.00  0.00     0.047 A 
HETATM    8  C   UNL     1       4.565  29.119  49.356  1.00  0.00     0.019 A 
HETATM    9  C   UNL     1       4.411  26.943  50.420  1.00  0.00     0.030 A 
HETATM   10  C   UNL     1       4.558  26.358  49.158  1.00  0.00     0.002 A 
HETATM   11  C   UNL     1       4.705  27.152  48.010  1.00  0.00     0.001 A 
HETATM   12  C   UNL     1       4.710  28.545  48.101  1.00  0.00     0.013 A 
HETATM   13  N   UNL     1       3.566  31.458  49.127  1.00  0.00    -0.201 N 
HETATM   14  C   UNL     1       2.220  31.145  49.037  1.00  0.00     0.238 C 
HETATM   15  C   UNL     1       1.336  32.232  48.477  1.00  0.00     0.119 C 
HETATM   16  O   UNL     1       1.748  30.065  49.391  1.00  0.00    -0.272 OA
HETATM   17  N   UNL     1       3.991  32.771  48.968  1.00  0.00    -0.141 NA
ENDROOT
BRANCH   6  18
HETATM   18  C   UNL     1       3.989  28.578  52.968  1.00  0.00     0.134 C 
BRANCH  18  19
HETATM   19  C   UNL     1       5.114  28.717  53.989  1.00  0.00     0.047 C 
BRANCH  19  20
HETATM   20  C   UNL     1       6.178  27.635  53.853  1.00  0.00     0.177 C 
BRANCH  20  21
HETATM   21  O   UNL     1       5.482  26.423  53.560  1.00  0.00    -0.351 OA
BRANCH  21  22
HETATM   22  C   UNL     1       6.170  25.252  53.667  1.00  0.00     0.068 A 
HETATM   23  C   UNL     1       6.783  24.561  52.629  1.00  0.00     0.037 A 
HETATM   24  C   UNL     1       7.468  23.364  52.883  1.00  0.00     0.011 A 
HETATM   25  C   UNL     1       7.560  22.830  54.180  1.00  0.00    -0.050 A 
HETATM   26  C   UNL     1       6.934  23.549  55.215  1.00  0.00     0.011 A 
HETATM   27  C   UNL     1       6.255  24.743  54.960  1.00  0.00     0.037 A 
BRANCH  25  28
HETATM   28  C   UNL     1       8.304  21.521  54.496  1.00  0.00    -0.024 C 
HETATM   29  C   UNL     1       8.408  20.558  53.292  1.00  0.00     0.019 C 
HETATM   30  C   UNL     1       9.744  21.841  54.951  1.00  0.00     0.019 C 
HETATM   31  C   UNL     1       7.570  20.766  55.624  1.00  0.00     0.019 C 
ENDBRANCH  25  28
ENDBRANCH  21  22
ENDBRANCH  20  21
ENDBRANCH  19  20
ENDBRANCH  18  19
ENDBRANCH   6  18
BRANCH   1  32
HETATM   32  N   UNL     1       6.010  33.993  49.256  1.00  0.00    -0.305 N 
HETATM   33  C   UNL     1       6.255  34.854  50.298  1.00  0.00     0.219 C 
HETATM   34  C   UNL     1       5.768  34.484  51.672  1.00  0.00     0.117 C 
HETATM   35  O   UNL     1       6.875  35.897  50.087  1.00  0.00    -0.274 OA
HETATM   36  H   UNL     1       6.479  34.251  48.399  1.00  0.00     0.171 HD
ENDBRANCH   1  32
TORSDOF 7
ENDMDL
MODEL 7
REMARK VINA RESULT:      -8.5      9.223     11.130
REMARK  7 active torsions:
REMARK  status: ('A' for Active; 'I' for Inactive)
REMARK       I    between atoms: C_2  and  N_3 
REMARK    1  A    between atoms: N_3  and  C_4 
REMARK    2  A    between atoms: N_9  and  C_10 
REMARK    3  A    between atoms: C_10  and  C_11 
REMARK    4  A    between atoms: C_11  and  C_12 
REMARK    5  A    between atoms: C_12  and  O_13 
REMARK    6  A    between atoms: O_13  and  C_14 
REMARK    7  A    between atoms: C_17  and  C_18 
REMARK       I    between atoms: N_30  and  C_31 
ROOT
HETATM    1  C   UNL     1       3.442  34.034  62.903  1.00  0.00     0.191 C 
HETATM    2  S   UNL     1       4.771  34.337  61.827  1.00  0.00    -0.042 SA
HETATM    3  C   UNL     1       3.550  34.356  60.454  1.00  0.00     0.224 A 
HETATM    4  C   UNL     1       3.578  32.953  59.786  1.00  0.00     0.271 A 
HETATM    5  O   UNL     1       3.256  31.903  60.329  1.00  0.00    -0.269 OA
HETATM    6  N   UNL     1       4.061  33.130  58.476  1.00  0.00    -0.314 N 
HETATM    7  C   UNL     1       4.250  34.502  58.207  1.00  0.00     0.047 A 
HETATM    8  C   UNL     1       3.953  35.271  59.341  1.00  0.00     0.019 A 
HETATM    9  C   UNL     1       4.648  35.095  57.022  1.00  0.00     0.030 A 
HETATM   10  C   UNL     1       4.750  36.489  56.987  1.00  0.00     0.002 A 
HETATM   11  C   UNL     1       4.454  37.262  58.121  1.00  0.00     0.001 A 
HETATM   12  C   UNL     1       4.051  36.655  59.312  1.00  0.00     0.013 A 
HETATM   13  N   UNL     1       2.268  34.561  61.124  1.00  0.00    -0.201 N 
HETATM   14  C   UNL     1       1.085  34.701  60.416  1.00  0.00     0.238 C 
HETATM   15  C   UNL     1      -0.168  34.771  61.254  1.00  0.00     0.119 C 
HETATM   16  O   UNL     1       1.030  34.756  59.189  1.00  0.00    -0.272 OA
HETATM   17  N   UNL     1       2.242  34.235  62.474  1.00  0.00    -0.141 NA
ENDROOT
BRANCH   6  18
HETATM   18  C   UNL     1       4.187  32.103  57.449  1.00  0.00     0.134 C 
BRANCH  18  19
HETATM   19  C   UNL     1       5.419  31.211  57.564  1.00  0.00     0.047 C 
BRANCH  19  20
HETATM   20  C   UNL     1       5.133  29.754  57.226  1.00  0.00     0.177 C 
BRANCH  20  21
HETATM   21  O   UNL     1       6.402  29.108  57.125  1.00  0.00    -0.351 OA
BRANCH  21  22
HETATM   22  C   UNL     1       6.563  28.170  56.150  1.00  0.00     0.068 A 
HETATM   23  C   UNL     1       7.367  28.287  55.023  1.00  0.00     0.037 A 
HETATM   24  C   UNL     1       7.447  27.234  54.099  1.00  0.00     0.011 A 
HETATM   25  C   UNL     1       6.728  26.040  54.280  1.00  0.00    -0.050 A 
HETATM   26  C   UNL     1       5.923  25.945  55.430  1.00  0.00     0.011 A 
HETATM   27  C   UNL     1       5.848  26.993  56.350  1.00  0.00     0.037 A 
BRANCH  25  28
HETATM   28  C   UNL     1       6.792  24.866  53.289  1.00  0.00    -0.024 C 
HETATM   29  C   UNL     1       7.131  23.510  53.949  1.00  0.00     0.019 C 
HETATM   30  C   UNL     1       5.427  24.705  52.587  1.00  0.00     0.019 C 
HETATM   31  C   UNL     1       7.879  25.142  52.227  1.00  0.00     0.019 C 
ENDBRANCH  25  28
ENDBRANCH  21  22
ENDBRANCH  20  21
ENDBRANCH  19  20
ENDBRANCH  18  19
ENDBRANCH   6  18
BRANCH   1  32
HETATM   32  N   UNL     1       3.814  33.602  64.142  1.00  0.00    -0.305 N 
HETATM   33  C   UNL     1       4.120  34.317  65.275  1.00  0.00     0.219 C 
HETATM   34  C   UNL     1       3.899  35.805  65.273  1.00  0.00     0.117 C 
HETATM   35  O   UNL     1       4.555  33.726  66.264  1.00  0.00    -0.274 OA
HETATM   36  H   UNL     1       3.869  32.602  64.268  1.00  0.00     0.171 HD
ENDBRANCH   1  32
TORSDOF 7
ENDMDL
MODEL 8
REMARK VINA RESULT:      -8.4      4.533      9.547
REMARK  7 active torsions:
REMARK  status: ('A' for Active; 'I' for Inactive)
REMARK       I    between atoms: C_2  and  N_3 
REMARK    1  A    between atoms: N_3  and  C_4 
REMARK    2  A    between atoms: N_9  and  C_10 
REMARK    3  A    between atoms: C_10  and  C_11 
REMARK    4  A    between atoms: C_11  and  C_12 
REMARK    5  A    between atoms: C_12  and  O_13 
REMARK    6  A    between atoms: O_13  and  C_14 
REMARK    7  A    between atoms: C_17  and  C_18 
REMARK       I    between atoms: N_30  and  C_31 
ROOT
HETATM    1  C   UNL     1       7.371  26.614  53.905  1.00  0.00     0.191 C 
HETATM    2  S   UNL     1       7.607  28.317  54.142  1.00  0.00    -0.042 SA
HETATM    3  C   UNL     1       7.527  27.995  55.949  1.00  0.00     0.224 A 
HETATM    4  C   UNL     1       6.082  28.324  56.418  1.00  0.00     0.271 A 
HETATM    5  O   UNL     1       5.069  27.734  56.060  1.00  0.00    -0.269 OA
HETATM    6  N   UNL     1       6.172  29.426  57.288  1.00  0.00    -0.314 N 
HETATM    7  C   UNL     1       7.523  29.770  57.502  1.00  0.00     0.047 A 
HETATM    8  C   UNL     1       8.366  28.948  56.740  1.00  0.00     0.019 A 
HETATM    9  C   UNL     1       8.037  30.746  58.336  1.00  0.00     0.030 A 
HETATM   10  C   UNL     1       9.426  30.895  58.398  1.00  0.00     0.002 A 
HETATM   11  C   UNL     1      10.272  30.073  57.636  1.00  0.00     0.001 A 
HETATM   12  C   UNL     1       9.745  29.089  56.797  1.00  0.00     0.013 A 
HETATM   13  N   UNL     1       7.769  26.559  56.064  1.00  0.00    -0.201 N 
HETATM   14  C   UNL     1       7.854  25.925  57.292  1.00  0.00     0.238 C 
HETATM   15  C   UNL     1       7.974  24.422  57.241  1.00  0.00     0.119 C 
HETATM   16  O   UNL     1       7.826  26.521  58.368  1.00  0.00    -0.272 OA
HETATM   17  N   UNL     1       7.535  25.821  54.910  1.00  0.00    -0.141 NA
ENDROOT
BRANCH   6  18
HETATM   18  C   UNL     1       5.078  30.039  58.033  1.00  0.00     0.134 C 
BRANCH  18  19
HETATM   19  C   UNL     1       4.290  31.104  57.278  1.00  0.00     0.047 C 
BRANCH  19  20
HETATM   20  C   UNL     1       3.026  30.558  56.625  1.00  0.00     0.177 C 
BRANCH  20  21
HETATM   21  O   UNL     1       2.597  31.548  55.690  1.00  0.00    -0.351 OA
BRANCH  21  22
HETATM   22  C   UNL     1       3.105  31.494  54.427  1.00  0.00     0.068 A 
HETATM   23  C   UNL     1       3.182  32.549  53.527  1.00  0.00     0.037 A 
HETATM   24  C   UNL     1       3.739  32.353  52.254  1.00  0.00     0.011 A 
HETATM   25  C   UNL     1       4.233  31.101  51.852  1.00  0.00    -0.050 A 
HETATM   26  C   UNL     1       4.146  30.049  52.782  1.00  0.00     0.011 A 
HETATM   27  C   UNL     1       3.594  30.247  54.050  1.00  0.00     0.037 A 
BRANCH  25  28
HETATM   28  C   UNL     1       4.851  30.851  50.466  1.00  0.00    -0.024 C 
HETATM   29  C   UNL     1       5.913  31.897  50.058  1.00  0.00     0.019 C 
HETATM   30  C   UNL     1       5.540  29.469  50.447  1.00  0.00     0.019 C 
HETATM   31  C   UNL     1       3.743  30.881  49.391  1.00  0.00     0.019 C 
ENDBRANCH  25  28
ENDBRANCH  21  22
ENDBRANCH  20  21
ENDBRANCH  19  20
ENDBRANCH  18  19
ENDBRANCH   6  18
BRANCH   1  32
HETATM   32  N   UNL     1       7.027  26.269  52.631  1.00  0.00    -0.305 N 
HETATM   33  C   UNL     1       5.787  26.082  52.069  1.00  0.00     0.219 C 
HETATM   34  C   UNL     1       4.567  26.428  52.876  1.00  0.00     0.117 C 
HETATM   35  O   UNL     1       5.705  25.649  50.919  1.00  0.00    -0.274 OA
HETATM   36  H   UNL     1       7.789  26.137  51.983  1.00  0.00     0.171 HD
ENDBRANCH   1  32
TORSDOF 7
ENDMDL
MODEL 9
REMARK VINA RESULT:      -8.3      2.250      4.474
REMARK  7 active torsions:
REMARK  status: ('A' for Active; 'I' for Inactive)
REMARK       I    between atoms: C_2  and  N_3 
REMARK    1  A    between atoms: N_3  and  C_4 
REMARK    2  A    between atoms: N_9  and  C_10 
REMARK    3  A    between atoms: C_10  and  C_11 
REMARK    4  A    between atoms: C_11  and  C_12 
REMARK    5  A    between atoms: C_12  and  O_13 
REMARK    6  A    between atoms: O_13  and  C_14 
REMARK    7  A    between atoms: C_17  and  C_18 
REMARK       I    between atoms: N_30  and  C_31 
ROOT
HETATM    1  C   UNL     1       1.209  29.871  47.370  1.00  0.00     0.191 C 
HETATM    2  S   UNL     1       0.834  30.232  49.026  1.00  0.00    -0.042 SA
HETATM    3  C   UNL     1       2.639  30.430  49.308  1.00  0.00     0.224 A 
HETATM    4  C   UNL     1       3.164  29.099  49.917  1.00  0.00     0.271 A 
HETATM    5  O   UNL     1       3.164  28.012  49.352  1.00  0.00    -0.269 OA
HETATM    6  N   UNL     1       3.599  29.388  51.224  1.00  0.00    -0.314 N 
HETATM    7  C   UNL     1       3.500  30.773  51.476  1.00  0.00     0.047 A 
HETATM    8  C   UNL     1       2.947  31.435  50.372  1.00  0.00     0.019 A 
HETATM    9  C   UNL     1       3.886  31.466  52.610  1.00  0.00     0.030 A 
HETATM   10  C   UNL     1       3.705  32.852  52.626  1.00  0.00     0.002 A 
HETATM   11  C   UNL     1       3.150  33.518  51.521  1.00  0.00     0.001 A 
HETATM   12  C   UNL     1       2.765  32.811  50.381  1.00  0.00     0.013 A 
HETATM   13  N   UNL     1       3.188  30.611  47.967  1.00  0.00    -0.201 N 
HETATM   14  C   UNL     1       4.534  30.861  47.754  1.00  0.00     0.238 C 
HETATM   15  C   UNL     1       4.968  30.891  46.309  1.00  0.00     0.119 C 
HETATM   16  O   UNL     1       5.344  31.039  48.662  1.00  0.00    -0.272 OA
HETATM   17  N   UNL     1       2.387  30.154  46.927  1.00  0.00    -0.141 NA
ENDROOT
BRANCH   6  18
HETATM   18  C   UNL     1       4.240  28.464  52.152  1.00  0.00     0.134 C 
BRANCH  18  19
HETATM   19  C   UNL     1       5.759  28.377  52.041  1.00  0.00     0.047 C 
BRANCH  19  20
HETATM   20  C   UNL     1       6.405  27.695  53.240  1.00  0.00     0.177 C 
BRANCH  20  21
HETATM   21  O   UNL     1       5.584  26.570  53.553  1.00  0.00    -0.351 OA
BRANCH  21  22
HETATM   22  C   UNL     1       6.202  25.397  53.868  1.00  0.00     0.068 A 
HETATM   23  C   UNL     1       6.449  24.916  55.147  1.00  0.00     0.037 A 
HETATM   24  C   UNL     1       7.092  23.682  55.327  1.00  0.00     0.011 A 
HETATM   25  C   UNL     1       7.499  22.899  54.233  1.00  0.00    -0.050 A 
HETATM   26  C   UNL     1       7.235  23.406  52.948  1.00  0.00     0.011 A 
HETATM   27  C   UNL     1       6.593  24.634  52.771  1.00  0.00     0.037 A 
BRANCH  25  28
HETATM   28  C   UNL     1       8.205  21.542  54.393  1.00  0.00    -0.024 C 
HETATM   29  C   UNL     1       8.171  20.667  53.119  1.00  0.00     0.019 C 
HETATM   30  C   UNL     1       9.689  21.768  54.752  1.00  0.00     0.019 C 
HETATM   31  C   UNL     1       7.527  20.734  55.521  1.00  0.00     0.019 C 
ENDBRANCH  25  28
ENDBRANCH  21  22
ENDBRANCH  20  21
ENDBRANCH  19  20
ENDBRANCH  18  19
ENDBRANCH   6  18
BRANCH   1  32
HETATM   32  N   UNL     1       0.181  29.306  46.675  1.00  0.00    -0.305 N 
HETATM   33  C   UNL     1      -0.032  27.998  46.315  1.00  0.00     0.219 C 
HETATM   34  C   UNL     1       0.892  26.940  46.852  1.00  0.00     0.117 C 
HETATM   35  O   UNL     1      -0.975  27.720  45.573  1.00  0.00    -0.274 OA
HETATM   36  H   UNL     1      -0.554  29.932  46.378  1.00  0.00     0.171 HD
ENDBRANCH   1  32
TORSDOF 7
ENDMDL
MODEL 10
REMARK VINA RESULT:      -8.3      1.440      2.105
REMARK  7 active torsions:
REMARK  status: ('A' for Active; 'I' for Inactive)
REMARK       I    between atoms: C_2  and  N_3 
REMARK    1  A    between atoms: N_3  and  C_4 
REMARK    2  A    between atoms: N_9  and  C_10 
REMARK    3  A    between atoms: C_10  and  C_11 
REMARK    4  A    between atoms: C_11  and  C_12 
REMARK    5  A    between atoms: C_12  and  O_13 
REMARK    6  A    between atoms: O_13  and  C_14 
REMARK    7  A    between atoms: C_17  and  C_18 
REMARK       I    between atoms: N_30  and  C_31 
ROOT
HETATM    1  C   UNL     1       4.834  32.334  48.143  1.00  0.00     0.191 C 
HETATM    2  S   UNL     1       4.514  31.202  46.867  1.00  0.00    -0.042 SA
HETATM    3  C   UNL     1       3.632  30.175  48.109  1.00  0.00     0.224 A 
HETATM    4  C   UNL     1       4.616  29.069  48.584  1.00  0.00     0.271 A 
HETATM    5  O   UNL     1       5.664  29.266  49.189  1.00  0.00    -0.269 OA
HETATM    6  N   UNL     1       4.086  27.836  48.162  1.00  0.00    -0.314 N 
HETATM    7  C   UNL     1       2.825  28.028  47.560  1.00  0.00     0.047 A 
HETATM    8  C   UNL     1       2.506  29.392  47.511  1.00  0.00     0.019 A 
HETATM    9  C   UNL     1       1.953  27.070  47.075  1.00  0.00     0.030 A 
HETATM   10  C   UNL     1       0.739  27.500  46.531  1.00  0.00     0.002 A 
HETATM   11  C   UNL     1       0.417  28.866  46.481  1.00  0.00     0.001 A 
HETATM   12  C   UNL     1       1.303  29.826  46.973  1.00  0.00     0.013 A 
HETATM   13  N   UNL     1       3.361  31.101  49.205  1.00  0.00    -0.201 N 
HETATM   14  C   UNL     1       2.641  30.720  50.326  1.00  0.00     0.238 C 
HETATM   15  C   UNL     1       2.561  31.749  51.427  1.00  0.00     0.119 C 
HETATM   16  O   UNL     1       2.102  29.621  50.446  1.00  0.00    -0.272 OA
HETATM   17  N   UNL     1       4.164  32.235  49.240  1.00  0.00    -0.141 NA
ENDROOT
BRANCH   6  18
HETATM   18  C   UNL     1       4.627  26.513  48.448  1.00  0.00     0.134 C 
BRANCH  18  19
HETATM   19  C   UNL     1       4.442  26.028  49.883  1.00  0.00     0.047 C 
BRANCH  19  20
HETATM   20  C   UNL     1       5.703  26.172  50.726  1.00  0.00     0.177 C 
BRANCH  20  21
HETATM   21  O   UNL     1       5.276  26.184  52.088  1.00  0.00    -0.351 OA
BRANCH  21  22
HETATM   22  C   UNL     1       5.924  25.369  52.967  1.00  0.00     0.068 A 
HETATM   23  C   UNL     1       5.603  25.184  54.306  1.00  0.00     0.037 A 
HETATM   24  C   UNL     1       6.356  24.304  55.098  1.00  0.00     0.011 A 
HETATM   25  C   UNL     1       7.443  23.587  54.571  1.00  0.00    -0.050 A 
HETATM   26  C   UNL     1       7.746  23.789  53.212  1.00  0.00     0.011 A 
HETATM   27  C   UNL     1       6.995  24.664  52.425  1.00  0.00     0.037 A 
BRANCH  25  28
HETATM   28  C   UNL     1       8.289  22.613  55.410  1.00  0.00    -0.024 C 
HETATM   29  C   UNL     1       9.620  22.206  54.739  1.00  0.00     0.019 C 
HETATM   30  C   UNL     1       8.640  23.266  56.764  1.00  0.00     0.019 C 
HETATM   31  C   UNL     1       7.489  21.317  55.663  1.00  0.00     0.019 C 
ENDBRANCH  25  28
ENDBRANCH  21  22
ENDBRANCH  20  21
ENDBRANCH  19  20
ENDBRANCH  18  19
ENDBRANCH   6  18
BRANCH   1  32
HETATM   32  N   UNL     1       5.795  33.255  47.844  1.00  0.00    -0.305 N 
HETATM   33  C   UNL     1       5.676  34.538  47.369  1.00  0.00     0.219 C 
HETATM   34  C   UNL     1       4.306  35.148  47.268  1.00  0.00     0.117 C 
HETATM   35  O   UNL     1       6.690  35.160  47.048  1.00  0.00    -0.274 OA
HETATM   36  H   UNL     1       6.751  32.969  48.001  1.00  0.00     0.171 HD
ENDBRANCH   1  32
TORSDOF 7
ENDMDL
