MODEL 1
REMARK VINA RESULT:      -7.5      0.000      0.000
REMARK  5 active torsions:
REMARK  status: ('A' for Active; 'I' for Inactive)
REMARK    1  A    between atoms: C_2  and  O_3 
REMARK    2  A    between atoms: C_4  and  C_5 
REMARK    3  A    between atoms: C_5  and  O_6 
REMARK    4  A    between atoms: C_9  and  C_10 
REMARK    5  A    between atoms: C_22  and  O_23 
ROOT
HETATM    1  C   UNL     1       6.152  37.041  63.031  1.00  0.00     0.047 C 
HETATM    2  C   UNL     1       5.154  36.738  64.160  1.00  0.00     0.073 C 
HETATM    3  C   UNL     1       5.446  35.348  64.821  1.00  0.00     0.133 C 
HETATM    4  C   UNL     1       4.972  34.079  64.049  1.00  0.00     0.074 C 
HETATM    5  C   UNL     1       3.783  34.359  63.196  1.00  0.00     0.030 A 
HETATM    6  C   UNL     1       3.241  35.615  63.017  1.00  0.00     0.042 A 
HETATM    7  N   UNL     1       2.142  35.461  62.220  1.00  0.00    -0.279 N 
HETATM    8  H   UNL     1       1.493  36.170  61.890  1.00  0.00     0.189 HD
HETATM    9  N   UNL     1       1.919  34.174  61.879  1.00  0.00    -0.149 NA
HETATM   10  C   UNL     1       2.902  33.534  62.498  1.00  0.00     0.190 A 
HETATM   11  C   UNL     1       3.701  36.881  63.630  1.00  0.00     0.097 C 
ENDROOT
BRANCH   4  12
HETATM   12  C   UNL     1       6.073  33.456  63.193  1.00  0.00    -0.048 A 
HETATM   13  C   UNL     1       7.167  32.874  63.863  1.00  0.00     0.009 A 
HETATM   14  C   UNL     1       8.223  32.290  63.158  1.00  0.00     0.019 A 
HETATM   15  C   UNL     1       8.205  32.284  61.768  1.00  0.00     0.011 A 
HETATM   16 BR   UNL     1       9.628  31.493  60.811  1.00  0.00    -0.051 Br
HETATM   17  C   UNL     1       7.140  32.857  61.080  1.00  0.00     0.019 A 
HETATM   18  C   UNL     1       6.083  33.437  61.788  1.00  0.00     0.009 A 
ENDBRANCH   4  12
BRANCH   3  19
HETATM   19  C   UNL     1       4.890  35.313  66.232  1.00  0.00     0.266 C 
HETATM   20  O   UNL     1       3.871  35.916  66.554  1.00  0.00    -0.265 OA
BRANCH  19  21
HETATM   21  O   UNL     1       5.628  34.543  67.071  1.00  0.00    -0.326 OA
HETATM   22  C   UNL     1       5.677  35.011  68.419  1.00  0.00     0.213 C 
ENDBRANCH  19  21
ENDBRANCH   3  19
BRANCH   2  23
HETATM   23  O   UNL     1       5.356  37.793  65.121  1.00  0.00    -0.389 OA
HETATM   24  H   UNL     1       5.027  38.629  64.742  1.00  0.00     0.210 HD
ENDBRANCH   2  23
BRANCH  10  25
HETATM   25  O   UNL     1       2.894  32.212  62.366  1.00  0.00    -0.343 OA
HETATM   26  H   UNL     1       2.782  32.062  61.412  1.00  0.00     0.219 HD
ENDBRANCH  10  25
TORSDOF 5
ENDMDL
MODEL 2
REMARK VINA RESULT:      -7.3      9.778     12.260
REMARK  5 active torsions:
REMARK  status: ('A' for Active; 'I' for Inactive)
REMARK    1  A    between atoms: C_2  and  O_3 
REMARK    2  A    between atoms: C_4  and  C_5 
REMARK    3  A    between atoms: C_5  and  O_6 
REMARK    4  A    between atoms: C_9  and  C_10 
REMARK    5  A    between atoms: C_22  and  O_23 
ROOT
HETATM    1  C   UNL     1       5.095  26.534  56.893  1.00  0.00     0.047 C 
HETATM    2  C   UNL     1       4.862  27.885  56.197  1.00  0.00     0.073 C 
HETATM    3  C   UNL     1       5.090  27.777  54.652  1.00  0.00     0.133 C 
HETATM    4  C   UNL     1       6.567  27.762  54.150  1.00  0.00     0.074 C 
HETATM    5  C   UNL     1       7.475  28.497  55.074  1.00  0.00     0.030 A 
HETATM    6  C   UNL     1       7.082  29.023  56.287  1.00  0.00     0.042 A 
HETATM    7  N   UNL     1       8.168  29.661  56.813  1.00  0.00    -0.279 N 
HETATM    8  H   UNL     1       8.244  30.169  57.689  1.00  0.00     0.189 HD
HETATM    9  N   UNL     1       9.250  29.601  56.008  1.00  0.00    -0.149 NA
HETATM   10  C   UNL     1       8.800  28.921  54.963  1.00  0.00     0.190 A 
HETATM   11  C   UNL     1       5.725  28.983  56.879  1.00  0.00     0.097 C 
ENDROOT
BRANCH   4  12
HETATM   12  C   UNL     1       7.106  26.351  53.926  1.00  0.00    -0.048 A 
HETATM   13  C   UNL     1       7.422  25.588  55.068  1.00  0.00     0.009 A 
HETATM   14  C   UNL     1       7.929  24.290  54.956  1.00  0.00     0.019 A 
HETATM   15  C   UNL     1       8.137  23.737  53.697  1.00  0.00     0.011 A 
HETATM   16 BR   UNL     1       8.820  21.983  53.541  1.00  0.00    -0.051 Br
HETATM   17  C   UNL     1       7.840  24.470  52.553  1.00  0.00     0.019 A 
HETATM   18  C   UNL     1       7.328  25.766  52.668  1.00  0.00     0.009 A 
ENDBRANCH   4  12
BRANCH   3  19
HETATM   19  C   UNL     1       4.327  28.873  53.933  1.00  0.00     0.266 C 
HETATM   20  O   UNL     1       4.512  30.064  54.164  1.00  0.00    -0.265 OA
BRANCH  19  21
HETATM   21  O   UNL     1       3.449  28.391  53.017  1.00  0.00    -0.326 OA
HETATM   22  C   UNL     1       3.830  28.607  51.658  1.00  0.00     0.213 C 
ENDBRANCH  19  21
ENDBRANCH   3  19
BRANCH   2  23
HETATM   23  O   UNL     1       3.483  28.206  56.471  1.00  0.00    -0.389 OA
HETATM   24  H   UNL     1       3.227  27.792  57.316  1.00  0.00     0.210 HD
ENDBRANCH   2  23
BRANCH  10  25
HETATM   25  O   UNL     1       9.669  28.753  53.973  1.00  0.00    -0.343 OA
HETATM   26  H   UNL     1       9.493  29.491  53.365  1.00  0.00     0.219 HD
ENDBRANCH  10  25
TORSDOF 5
ENDMDL
MODEL 3
REMARK VINA RESULT:      -6.9      2.277      4.014
REMARK  5 active torsions:
REMARK  status: ('A' for Active; 'I' for Inactive)
REMARK    1  A    between atoms: C_2  and  O_3 
REMARK    2  A    between atoms: C_4  and  C_5 
REMARK    3  A    between atoms: C_5  and  O_6 
REMARK    4  A    between atoms: C_9  and  C_10 
REMARK    5  A    between atoms: C_22  and  O_23 
ROOT
HETATM    1  C   UNL     1       3.178  33.452  62.769  1.00  0.00     0.047 C 
HETATM    2  C   UNL     1       3.246  34.865  63.370  1.00  0.00     0.073 C 
HETATM    3  C   UNL     1       4.637  35.532  63.104  1.00  0.00     0.133 C 
HETATM    4  C   UNL     1       5.828  35.082  64.005  1.00  0.00     0.074 C 
HETATM    5  C   UNL     1       5.368  34.630  65.347  1.00  0.00     0.030 A 
HETATM    6  C   UNL     1       4.042  34.509  65.709  1.00  0.00     0.042 A 
HETATM    7  N   UNL     1       4.022  34.124  67.019  1.00  0.00    -0.279 N 
HETATM    8  H   UNL     1       3.220  33.950  67.618  1.00  0.00     0.189 HD
HETATM    9  N   UNL     1       5.259  34.001  67.547  1.00  0.00    -0.149 NA
HETATM   10  C   UNL     1       6.044  34.335  66.531  1.00  0.00     0.190 A 
HETATM   11  C   UNL     1       2.858  34.815  64.875  1.00  0.00     0.097 C 
ENDROOT
BRANCH   4  12
HETATM   12  C   UNL     1       6.677  33.985  63.366  1.00  0.00    -0.048 A 
HETATM   13  C   UNL     1       6.646  33.875  61.961  1.00  0.00     0.009 A 
HETATM   14  C   UNL     1       7.386  32.895  61.294  1.00  0.00     0.019 A 
HETATM   15  C   UNL     1       8.165  32.002  62.023  1.00  0.00     0.011 A 
HETATM   16 BR   UNL     1       9.169  30.678  61.126  1.00  0.00    -0.051 Br
HETATM   17  C   UNL     1       8.210  32.084  63.411  1.00  0.00     0.019 A 
HETATM   18  C   UNL     1       7.471  33.069  64.075  1.00  0.00     0.009 A 
ENDBRANCH   4  12
BRANCH   3  19
HETATM   19  C   UNL     1       4.511  37.044  63.158  1.00  0.00     0.266 C 
HETATM   20  O   UNL     1       4.904  37.703  64.116  1.00  0.00    -0.265 OA
BRANCH  19  21
HETATM   21  O   UNL     1       3.940  37.566  62.043  1.00  0.00    -0.326 OA
HETATM   22  C   UNL     1       4.724  37.435  60.857  1.00  0.00     0.213 C 
ENDBRANCH  19  21
ENDBRANCH   3  19
BRANCH   2  23
HETATM   23  O   UNL     1       2.207  35.602  62.694  1.00  0.00    -0.389 OA
HETATM   24  H   UNL     1       1.979  35.136  61.869  1.00  0.00     0.210 HD
ENDBRANCH   2  23
BRANCH  10  25
HETATM   25  O   UNL     1       7.345  34.344  66.796  1.00  0.00    -0.343 OA
HETATM   26  H   UNL     1       7.414  34.000  67.702  1.00  0.00     0.219 HD
ENDBRANCH  10  25
TORSDOF 5
ENDMDL
MODEL 4
REMARK VINA RESULT:      -6.7     10.731     12.750
REMARK  5 active torsions:
REMARK  status: ('A' for Active; 'I' for Inactive)
REMARK    1  A    between atoms: C_2  and  O_3 
REMARK    2  A    between atoms: C_4  and  C_5 
REMARK    3  A    between atoms: C_5  and  O_6 
REMARK    4  A    between atoms: C_9  and  C_10 
REMARK    5  A    between atoms: C_22  and  O_23 
ROOT
HETATM    1  C   UNL     1       4.662  27.449  56.112  1.00  0.00     0.047 C 
HETATM    2  C   UNL     1       6.100  27.383  56.651  1.00  0.00     0.073 C 
HETATM    3  C   UNL     1       7.134  27.858  55.576  1.00  0.00     0.133 C 
HETATM    4  C   UNL     1       7.501  26.850  54.445  1.00  0.00     0.074 C 
HETATM    5  C   UNL     1       7.363  25.437  54.896  1.00  0.00     0.030 A 
HETATM    6  C   UNL     1       6.856  25.064  56.123  1.00  0.00     0.042 A 
HETATM    7  N   UNL     1       6.938  23.702  56.188  1.00  0.00    -0.279 N 
HETATM    8  H   UNL     1       6.666  23.085  56.949  1.00  0.00     0.189 HD
HETATM    9  N   UNL     1       7.486  23.157  55.082  1.00  0.00    -0.149 NA
HETATM   10  C   UNL     1       7.755  24.220  54.335  1.00  0.00     0.190 A 
HETATM   11  C   UNL     1       6.388  25.959  57.205  1.00  0.00     0.097 C 
ENDROOT
BRANCH   4  12
HETATM   12  C   UNL     1       6.684  27.057  53.173  1.00  0.00    -0.048 A 
HETATM   13  C   UNL     1       6.280  28.372  52.866  1.00  0.00     0.009 A 
HETATM   14  C   UNL     1       5.522  28.651  51.725  1.00  0.00     0.019 A 
HETATM   15  C   UNL     1       5.148  27.616  50.875  1.00  0.00     0.011 A 
HETATM   16 BR   UNL     1       4.125  27.989  49.332  1.00  0.00    -0.051 Br
HETATM   17  C   UNL     1       5.527  26.308  51.156  1.00  0.00     0.019 A 
HETATM   18  C   UNL     1       6.289  26.032  52.296  1.00  0.00     0.009 A 
ENDBRANCH   4  12
BRANCH   3  19
HETATM   19  C   UNL     1       8.405  28.340  56.251  1.00  0.00     0.266 C 
HETATM   20  O   UNL     1       8.842  27.826  57.276  1.00  0.00    -0.265 OA
BRANCH  19  21
HETATM   21  O   UNL     1       8.992  29.373  55.594  1.00  0.00    -0.326 OA
HETATM   22  C   UNL     1      10.277  29.743  56.097  1.00  0.00     0.213 C 
ENDBRANCH  19  21
ENDBRANCH   3  19
BRANCH   2  23
HETATM   23  O   UNL     1       6.110  28.281  57.778  1.00  0.00    -0.389 OA
HETATM   24  H   UNL     1       5.707  29.126  57.510  1.00  0.00     0.210 HD
ENDBRANCH   2  23
BRANCH  10  25
HETATM   25  O   UNL     1       8.357  23.968  53.179  1.00  0.00    -0.343 OA
HETATM   26  H   UNL     1       7.633  23.902  52.535  1.00  0.00     0.219 HD
ENDBRANCH  10  25
TORSDOF 5
ENDMDL
MODEL 5
REMARK VINA RESULT:      -6.7      1.708      2.161
REMARK  5 active torsions:
REMARK  status: ('A' for Active; 'I' for Inactive)
REMARK    1  A    between atoms: C_2  and  O_3 
REMARK    2  A    between atoms: C_4  and  C_5 
REMARK    3  A    between atoms: C_5  and  O_6 
REMARK    4  A    between atoms: C_9  and  C_10 
REMARK    5  A    between atoms: C_22  and  O_23 
ROOT
HETATM    1  C   UNL     1       5.672  36.389  62.338  1.00  0.00     0.047 C 
HETATM    2  C   UNL     1       4.267  35.999  62.824  1.00  0.00     0.073 C 
HETATM    3  C   UNL     1       4.234  34.524  63.349  1.00  0.00     0.133 C 
HETATM    4  C   UNL     1       4.191  33.388  62.281  1.00  0.00     0.074 C 
HETATM    5  C   UNL     1       3.533  33.836  61.022  1.00  0.00     0.030 A 
HETATM    6  C   UNL     1       3.121  35.130  60.783  1.00  0.00     0.042 A 
HETATM    7  N   UNL     1       2.523  35.136  59.556  1.00  0.00    -0.279 N 
HETATM    8  H   UNL     1       2.094  35.914  59.062  1.00  0.00     0.189 HD
HETATM    9  N   UNL     1       2.500  33.916  58.979  1.00  0.00    -0.149 NA
HETATM   10  C   UNL     1       3.089  33.151  59.889  1.00  0.00     0.190 A 
HETATM   11  C   UNL     1       3.227  36.284  61.705  1.00  0.00     0.097 C 
ENDROOT
BRANCH   4  12
HETATM   12  C   UNL     1       5.571  32.821  61.957  1.00  0.00    -0.048 A 
HETATM   13  C   UNL     1       6.298  32.237  63.013  1.00  0.00     0.009 A 
HETATM   14  C   UNL     1       7.573  31.702  62.808  1.00  0.00     0.019 A 
HETATM   15  C   UNL     1       8.145  31.749  61.541  1.00  0.00     0.011 A 
HETATM   16 BR   UNL     1       9.866  31.024  61.258  1.00  0.00    -0.051 Br
HETATM   17  C   UNL     1       7.453  32.325  60.481  1.00  0.00     0.019 A 
HETATM   18  C   UNL     1       6.176  32.856  60.689  1.00  0.00     0.009 A 
ENDBRANCH   4  12
BRANCH   3  19
HETATM   19  C   UNL     1       3.085  34.341  64.323  1.00  0.00     0.266 C 
HETATM   20  O   UNL     1       2.005  33.868  63.984  1.00  0.00    -0.265 OA
BRANCH  19  21
HETATM   21  O   UNL     1       3.393  34.740  65.583  1.00  0.00    -0.326 OA
HETATM   22  C   UNL     1       4.459  34.011  66.193  1.00  0.00     0.213 C 
ENDBRANCH  19  21
ENDBRANCH   3  19
BRANCH   2  23
HETATM   23  O   UNL     1       3.985  36.913  63.902  1.00  0.00    -0.389 OA
HETATM   24  H   UNL     1       3.849  37.804  63.530  1.00  0.00     0.210 HD
ENDBRANCH   2  23
BRANCH  10  25
HETATM   25  O   UNL     1       3.159  31.860  59.591  1.00  0.00    -0.343 OA
HETATM   26  H   UNL     1       2.400  31.461  60.049  1.00  0.00     0.219 HD
ENDBRANCH  10  25
TORSDOF 5
ENDMDL
MODEL 6
REMARK VINA RESULT:      -6.7      8.746     11.572
REMARK  5 active torsions:
REMARK  status: ('A' for Active; 'I' for Inactive)
REMARK    1  A    between atoms: C_2  and  O_3 
REMARK    2  A    between atoms: C_4  and  C_5 
REMARK    3  A    between atoms: C_5  and  O_6 
REMARK    4  A    between atoms: C_9  and  C_10 
REMARK    5  A    between atoms: C_22  and  O_23 
ROOT
HETATM    1  C   UNL     1       7.418  25.684  57.669  1.00  0.00     0.047 C 
HETATM    2  C   UNL     1       6.871  25.515  56.242  1.00  0.00     0.073 C 
HETATM    3  C   UNL     1       7.648  26.414  55.223  1.00  0.00     0.133 C 
HETATM    4  C   UNL     1       7.288  27.931  55.192  1.00  0.00     0.074 C 
HETATM    5  C   UNL     1       5.878  28.174  55.606  1.00  0.00     0.030 A 
HETATM    6  C   UNL     1       5.031  27.193  56.077  1.00  0.00     0.042 A 
HETATM    7  N   UNL     1       3.821  27.786  56.300  1.00  0.00    -0.279 N 
HETATM    8  H   UNL     1       2.960  27.366  56.638  1.00  0.00     0.189 HD
HETATM    9  N   UNL     1       3.817  29.099  55.986  1.00  0.00    -0.149 NA
HETATM   10  C   UNL     1       5.054  29.299  55.550  1.00  0.00     0.190 A 
HETATM   11  C   UNL     1       5.335  25.753  56.236  1.00  0.00     0.097 C 
ENDROOT
BRANCH   4  12
HETATM   12  C   UNL     1       8.221  28.784  56.048  1.00  0.00    -0.048 A 
HETATM   13  C   UNL     1       7.786  29.120  57.346  1.00  0.00     0.009 A 
HETATM   14  C   UNL     1       8.573  29.904  58.195  1.00  0.00     0.019 A 
HETATM   15  C   UNL     1       9.806  30.373  57.754  1.00  0.00     0.011 A 
HETATM   16 BR   UNL     1      10.874  31.431  58.898  1.00  0.00    -0.051 Br
HETATM   17  C   UNL     1      10.258  30.062  56.476  1.00  0.00     0.019 A 
HETATM   18  C   UNL     1       9.470  29.273  55.631  1.00  0.00     0.009 A 
ENDBRANCH   4  12
BRANCH   3  19
HETATM   19  C   UNL     1       7.530  25.842  53.823  1.00  0.00     0.266 C 
HETATM   20  O   UNL     1       8.076  24.794  53.492  1.00  0.00    -0.265 OA
BRANCH  19  21
HETATM   21  O   UNL     1       6.756  26.600  53.006  1.00  0.00    -0.326 OA
HETATM   22  C   UNL     1       5.617  25.925  52.471  1.00  0.00     0.213 C 
ENDBRANCH  19  21
ENDBRANCH   3  19
BRANCH   2  23
HETATM   23  O   UNL     1       7.081  24.123  55.931  1.00  0.00    -0.389 OA
HETATM   24  H   UNL     1       6.285  23.777  55.488  1.00  0.00     0.210 HD
ENDBRANCH   2  23
BRANCH  10  25
HETATM   25  O   UNL     1       5.316  30.528  55.121  1.00  0.00    -0.343 OA
HETATM   26  H   UNL     1       5.210  31.089  55.908  1.00  0.00     0.219 HD
ENDBRANCH  10  25
TORSDOF 5
ENDMDL
MODEL 7
REMARK VINA RESULT:      -6.7      2.264      3.517
REMARK  5 active torsions:
REMARK  status: ('A' for Active; 'I' for Inactive)
REMARK    1  A    between atoms: C_2  and  O_3 
REMARK    2  A    between atoms: C_4  and  C_5 
REMARK    3  A    between atoms: C_5  and  O_6 
REMARK    4  A    between atoms: C_9  and  C_10 
REMARK    5  A    between atoms: C_22  and  O_23 
ROOT
HETATM    1  C   UNL     1       4.279  34.754  59.420  1.00  0.00     0.047 C 
HETATM    2  C   UNL     1       3.978  35.941  60.349  1.00  0.00     0.073 C 
HETATM    3  C   UNL     1       5.127  36.157  61.390  1.00  0.00     0.133 C 
HETATM    4  C   UNL     1       5.168  35.194  62.616  1.00  0.00     0.074 C 
HETATM    5  C   UNL     1       3.812  34.690  62.970  1.00  0.00     0.030 A 
HETATM    6  C   UNL     1       2.676  34.945  62.231  1.00  0.00     0.042 A 
HETATM    7  N   UNL     1       1.632  34.365  62.894  1.00  0.00    -0.279 N 
HETATM    8  H   UNL     1       0.647  34.359  62.647  1.00  0.00     0.189 HD
HETATM    9  N   UNL     1       2.013  33.758  64.039  1.00  0.00    -0.149 NA
HETATM   10  C   UNL     1       3.319  33.990  64.072  1.00  0.00     0.190 A 
HETATM   11  C   UNL     1       2.578  35.758  60.998  1.00  0.00     0.097 C 
ENDROOT
BRANCH   4  12
HETATM   12  C   UNL     1       6.111  34.011  62.415  1.00  0.00    -0.048 A 
HETATM   13  C   UNL     1       7.007  33.708  63.461  1.00  0.00     0.009 A 
HETATM   14  C   UNL     1       7.911  32.647  63.358  1.00  0.00     0.019 A 
HETATM   15  C   UNL     1       7.940  31.875  62.202  1.00  0.00     0.011 A 
HETATM   16 BR   UNL     1       9.158  30.439  62.059  1.00  0.00    -0.051 Br
HETATM   17  C   UNL     1       7.071  32.154  61.152  1.00  0.00     0.019 A 
HETATM   18  C   UNL     1       6.164  33.214  61.259  1.00  0.00     0.009 A 
ENDBRANCH   4  12
BRANCH   3  19
HETATM   19  C   UNL     1       5.128  37.593  61.879  1.00  0.00     0.266 C 
HETATM   20  O   UNL     1       4.609  37.927  62.939  1.00  0.00    -0.265 OA
BRANCH  19  21
HETATM   21  O   UNL     1       5.768  38.439  61.032  1.00  0.00    -0.326 OA
HETATM   22  C   UNL     1       6.888  39.116  61.602  1.00  0.00     0.213 C 
ENDBRANCH  19  21
ENDBRANCH   3  19
BRANCH   2  23
HETATM   23  O   UNL     1       3.887  37.081  59.471  1.00  0.00    -0.389 OA
HETATM   24  H   UNL     1       4.645  37.669  59.641  1.00  0.00     0.210 HD
ENDBRANCH   2  23
BRANCH  10  25
HETATM   25  O   UNL     1       3.953  33.530  65.144  1.00  0.00    -0.343 OA
HETATM   26  H   UNL     1       3.411  33.827  65.895  1.00  0.00     0.219 HD
ENDBRANCH  10  25
TORSDOF 5
ENDMDL
MODEL 8
REMARK VINA RESULT:      -6.6      3.029      5.306
REMARK  5 active torsions:
REMARK  status: ('A' for Active; 'I' for Inactive)
REMARK    1  A    between atoms: C_2  and  O_3 
REMARK    2  A    between atoms: C_4  and  C_5 
REMARK    3  A    between atoms: C_5  and  O_6 
REMARK    4  A    between atoms: C_9  and  C_10 
REMARK    5  A    between atoms: C_22  and  O_23 
ROOT
HETATM    1  C   UNL     1       3.488  32.458  62.238  1.00  0.00     0.047 C 
HETATM    2  C   UNL     1       4.542  32.744  61.156  1.00  0.00     0.073 C 
HETATM    3  C   UNL     1       5.956  32.978  61.784  1.00  0.00     0.133 C 
HETATM    4  C   UNL     1       6.227  34.371  62.430  1.00  0.00     0.074 C 
HETATM    5  C   UNL     1       5.414  35.445  61.794  1.00  0.00     0.030 A 
HETATM    6  C   UNL     1       4.449  35.217  60.835  1.00  0.00     0.042 A 
HETATM    7  N   UNL     1       3.964  36.439  60.462  1.00  0.00    -0.279 N 
HETATM    8  H   UNL     1       3.252  36.655  59.771  1.00  0.00     0.189 HD
HETATM    9  N   UNL     1       4.567  37.460  61.108  1.00  0.00    -0.149 NA
HETATM   10  C   UNL     1       5.448  36.837  61.880  1.00  0.00     0.190 A 
HETATM   11  C   UNL     1       4.061  33.913  60.252  1.00  0.00     0.097 C 
ENDROOT
BRANCH   4  12
HETATM   12  C   UNL     1       5.993  34.386  63.939  1.00  0.00    -0.048 A 
HETATM   13  C   UNL     1       7.033  33.912  64.762  1.00  0.00     0.009 A 
HETATM   14  C   UNL     1       6.901  33.881  66.154  1.00  0.00     0.019 A 
HETATM   15  C   UNL     1       5.720  34.318  66.744  1.00  0.00     0.011 A 
HETATM   16 BR   UNL     1       5.537  34.281  68.624  1.00  0.00    -0.051 Br
HETATM   17  C   UNL     1       4.674  34.785  65.955  1.00  0.00     0.019 A 
HETATM   18  C   UNL     1       4.811  34.819  64.564  1.00  0.00     0.009 A 
ENDBRANCH   4  12
BRANCH   3  19
HETATM   19  C   UNL     1       7.038  32.679  60.764  1.00  0.00     0.266 C 
HETATM   20  O   UNL     1       6.846  32.769  59.555  1.00  0.00    -0.265 OA
BRANCH  19  21
HETATM   21  O   UNL     1       8.218  32.323  61.334  1.00  0.00    -0.326 OA
HETATM   22  C   UNL     1       8.141  31.189  62.197  1.00  0.00     0.213 C 
ENDBRANCH  19  21
ENDBRANCH   3  19
BRANCH   2  23
HETATM   23  O   UNL     1       4.556  31.558  60.336  1.00  0.00    -0.389 OA
HETATM   24  H   UNL     1       5.332  31.593  59.747  1.00  0.00     0.210 HD
ENDBRANCH   2  23
BRANCH  10  25
HETATM   25  O   UNL     1       6.228  37.628  62.608  1.00  0.00    -0.343 OA
HETATM   26  H   UNL     1       6.349  38.423  62.062  1.00  0.00     0.219 HD
ENDBRANCH  10  25
TORSDOF 5
ENDMDL
MODEL 9
REMARK VINA RESULT:      -6.6      2.450      4.542
REMARK  5 active torsions:
REMARK  status: ('A' for Active; 'I' for Inactive)
REMARK    1  A    between atoms: C_2  and  O_3 
REMARK    2  A    between atoms: C_4  and  C_5 
REMARK    3  A    between atoms: C_5  and  O_6 
REMARK    4  A    between atoms: C_9  and  C_10 
REMARK    5  A    between atoms: C_22  and  O_23 
ROOT
HETATM    1  C   UNL     1       3.223  32.351  60.885  1.00  0.00     0.047 C 
HETATM    2  C   UNL     1       2.975  33.866  60.966  1.00  0.00     0.073 C 
HETATM    3  C   UNL     1       4.317  34.669  60.887  1.00  0.00     0.133 C 
HETATM    4  C   UNL     1       5.187  34.732  62.179  1.00  0.00     0.074 C 
HETATM    5  C   UNL     1       4.358  34.622  63.412  1.00  0.00     0.030 A 
HETATM    6  C   UNL     1       3.001  34.371  63.410  1.00  0.00     0.042 A 
HETATM    7  N   UNL     1       2.592  34.394  64.713  1.00  0.00    -0.279 N 
HETATM    8  H   UNL     1       1.657  34.260  65.088  1.00  0.00     0.189 HD
HETATM    9  N   UNL     1       3.598  34.663  65.572  1.00  0.00    -0.149 NA
HETATM   10  C   UNL     1       4.639  34.820  64.764  1.00  0.00     0.190 A 
HETATM   11  C   UNL     1       2.128  34.193  62.228  1.00  0.00     0.097 C 
ENDROOT
BRANCH   4  12
HETATM   12  C   UNL     1       6.285  33.672  62.212  1.00  0.00    -0.048 A 
HETATM   13  C   UNL     1       6.495  32.918  61.040  1.00  0.00     0.009 A 
HETATM   14  C   UNL     1       7.474  31.921  60.984  1.00  0.00     0.019 A 
HETATM   15  C   UNL     1       8.254  31.657  62.104  1.00  0.00     0.011 A 
HETATM   16 BR   UNL     1       9.579  30.313  62.033  1.00  0.00    -0.051 Br
HETATM   17  C   UNL     1       8.065  32.382  63.276  1.00  0.00     0.019 A 
HETATM   18  C   UNL     1       7.088  33.382  63.327  1.00  0.00     0.009 A 
ENDBRANCH   4  12
BRANCH   3  19
HETATM   19  C   UNL     1       4.055  36.078  60.389  1.00  0.00     0.266 C 
HETATM   20  O   UNL     1       3.884  37.025  61.152  1.00  0.00    -0.265 OA
BRANCH  19  21
HETATM   21  O   UNL     1       4.046  36.167  59.035  1.00  0.00    -0.326 OA
HETATM   22  C   UNL     1       4.150  37.497  58.526  1.00  0.00     0.213 C 
ENDBRANCH  19  21
ENDBRANCH   3  19
BRANCH   2  23
HETATM   23  O   UNL     1       2.152  34.165  59.821  1.00  0.00    -0.389 OA
HETATM   24  H   UNL     1       2.350  35.071  59.520  1.00  0.00     0.210 HD
ENDBRANCH   2  23
BRANCH  10  25
HETATM   25  O   UNL     1       5.780  35.146  65.360  1.00  0.00    -0.343 OA
HETATM   26  H   UNL     1       5.763  36.117  65.405  1.00  0.00     0.219 HD
ENDBRANCH  10  25
TORSDOF 5
ENDMDL
MODEL 10
REMARK VINA RESULT:      -6.5      9.758     12.599
REMARK  5 active torsions:
REMARK  status: ('A' for Active; 'I' for Inactive)
REMARK    1  A    between atoms: C_2  and  O_3 
REMARK    2  A    between atoms: C_4  and  C_5 
REMARK    3  A    between atoms: C_5  and  O_6 
REMARK    4  A    between atoms: C_9  and  C_10 
REMARK    5  A    between atoms: C_22  and  O_23 
ROOT
HETATM    1  C   UNL     1       5.394  25.320  57.116  1.00  0.00     0.047 C 
HETATM    2  C   UNL     1       6.079  24.725  55.875  1.00  0.00     0.073 C 
HETATM    3  C   UNL     1       7.444  25.433  55.583  1.00  0.00     0.133 C 
HETATM    4  C   UNL     1       7.389  26.831  54.894  1.00  0.00     0.074 C 
HETATM    5  C   UNL     1       6.177  26.981  54.041  1.00  0.00     0.030 A 
HETATM    6  C   UNL     1       5.165  26.047  53.966  1.00  0.00     0.042 A 
HETATM    7  N   UNL     1       4.263  26.512  53.051  1.00  0.00    -0.279 N 
HETATM    8  H   UNL     1       3.400  26.079  52.733  1.00  0.00     0.189 HD
HETATM    9  N   UNL     1       4.632  27.690  52.505  1.00  0.00    -0.149 NA
HETATM   10  C   UNL     1       5.793  27.936  53.098  1.00  0.00     0.190 A 
HETATM   11  C   UNL     1       5.096  24.748  54.672  1.00  0.00     0.097 C 
ENDROOT
BRANCH   4  12
HETATM   12  C   UNL     1       7.456  27.989  55.887  1.00  0.00    -0.048 A 
HETATM   13  C   UNL     1       8.694  28.237  56.513  1.00  0.00     0.009 A 
HETATM   14  C   UNL     1       8.843  29.271  57.442  1.00  0.00     0.019 A 
HETATM   15  C   UNL     1       7.752  30.070  57.765  1.00  0.00     0.011 A 
HETATM   16 BR   UNL     1       7.948  31.470  59.018  1.00  0.00    -0.051 Br
HETATM   17  C   UNL     1       6.516  29.844  57.167  1.00  0.00     0.019 A 
HETATM   18  C   UNL     1       6.371  28.811  56.235  1.00  0.00     0.009 A 
ENDBRANCH   4  12
BRANCH   3  19
HETATM   19  C   UNL     1       8.349  24.515  54.782  1.00  0.00     0.266 C 
HETATM   20  O   UNL     1       9.047  23.655  55.310  1.00  0.00    -0.265 OA
BRANCH  19  21
HETATM   21  O   UNL     1       8.284  24.744  53.446  1.00  0.00    -0.326 OA
HETATM   22  C   UNL     1       7.919  23.605  52.665  1.00  0.00     0.213 C 
ENDBRANCH  19  21
ENDBRANCH   3  19
BRANCH   2  23
HETATM   23  O   UNL     1       6.302  23.340  56.208  1.00  0.00    -0.389 OA
HETATM   24  H   UNL     1       7.170  23.069  55.857  1.00  0.00     0.210 HD
ENDBRANCH   2  23
BRANCH  10  25
HETATM   25  O   UNL     1       6.414  29.040  52.701  1.00  0.00    -0.343 OA
HETATM   26  H   UNL     1       7.354  28.794  52.668  1.00  0.00     0.219 HD
ENDBRANCH  10  25
TORSDOF 5
ENDMDL
