MODEL 1
REMARK VINA RESULT:      -9.3      0.000      0.000
REMARK  3 active torsions:
REMARK  status: ('A' for Active; 'I' for Inactive)
REMARK    1  A    between atoms: C_4  and  N_5 
REMARK       I    between atoms: N_5  and  C_6 
REMARK    2  A    between atoms: C_6  and  C_7 
REMARK    3  A    between atoms: C_7  and  C_8 
ROOT
HETATM    1  C   UNL     1       6.838  25.760  56.146  1.00  0.00     0.286 C 
HETATM    2  N   UNL     1       6.867  24.986  54.827  1.00  0.00    -0.056 N 
HETATM    3  H   UNL     1       6.205  24.206  54.920  1.00  0.00     0.278 HD
HETATM    4  H   UNL     1       6.439  25.588  54.092  1.00  0.00     0.278 HD
HETATM    5  C   UNL     1       8.216  24.484  54.397  1.00  0.00     0.209 C 
HETATM    6  C   UNL     1       8.808  23.634  55.544  1.00  0.00     0.115 C 
HETATM    7  N   UNL     1       8.824  24.382  56.795  1.00  0.00    -0.353 N 
HETATM    8  C   UNL     1       7.878  25.293  57.183  1.00  0.00     0.249 C 
HETATM    9  O   UNL     1       7.906  25.749  58.322  1.00  0.00    -0.271 OA
HETATM   10  C   UNL     1       8.065  23.681  53.105  1.00  0.00     0.035 C 
HETATM   11  C   UNL     1       7.332  22.353  53.301  1.00  0.00     0.002 C 
HETATM   12  C   UNL     1       7.948  21.525  54.424  1.00  0.00     0.002 C 
HETATM   13  C   UNL     1       8.052  22.308  55.730  1.00  0.00     0.027 C 
HETATM   14  H   UNL     1       9.464  24.098  57.536  1.00  0.00     0.163 HD
ENDROOT
BRANCH   1  15
HETATM   15  C   UNL     1       6.967  27.278  55.935  1.00  0.00     0.146 C 
BRANCH  15  16
HETATM   16  C   UNL     1       5.973  28.000  56.806  1.00  0.00     0.224 C 
HETATM   17  N   UNL     1       6.330  28.934  57.722  1.00  0.00    -0.327 N 
HETATM   18  H   UNL     1       5.569  29.170  58.354  1.00  0.00     0.169 HD
HETATM   19  O   UNL     1       4.779  27.674  56.716  1.00  0.00    -0.273 OA
BRANCH  17  20
HETATM   20  C   UNL     1       7.543  29.594  57.985  1.00  0.00     0.035 A 
HETATM   21  C   UNL     1       8.759  29.292  57.369  1.00  0.00     0.036 A 
HETATM   22  C   UNL     1       9.924  29.997  57.707  1.00  0.00    -0.059 A 
HETATM   23  C   UNL     1      11.230  29.696  57.029  1.00  0.00     0.048 C 
HETATM   24  C   UNL     1       9.854  31.037  58.641  1.00  0.00     0.013 A 
HETATM   25  C   UNL     1       8.636  31.385  59.231  1.00  0.00    -0.059 A 
HETATM   26  C   UNL     1       7.487  30.660  58.894  1.00  0.00     0.036 A 
HETATM   27  C   UNL     1       8.577  32.479  60.258  1.00  0.00     0.048 C 
ENDBRANCH  17  20
ENDBRANCH  15  16
ENDBRANCH   1  15
TORSDOF 3
ENDMDL
MODEL 2
REMARK VINA RESULT:      -9.2      3.274      6.629
REMARK  3 active torsions:
REMARK  status: ('A' for Active; 'I' for Inactive)
REMARK    1  A    between atoms: C_4  and  N_5 
REMARK       I    between atoms: N_5  and  C_6 
REMARK    2  A    between atoms: C_6  and  C_7 
REMARK    3  A    between atoms: C_7  and  C_8 
ROOT
HETATM    1  C   UNL     1       6.114  27.107  55.605  1.00  0.00     0.286 C 
HETATM    2  N   UNL     1       6.180  26.436  54.232  1.00  0.00    -0.056 N 
HETATM    3  H   UNL     1       6.777  27.022  53.637  1.00  0.00     0.278 HD
HETATM    4  H   UNL     1       6.722  25.551  54.334  1.00  0.00     0.278 HD
HETATM    5  C   UNL     1       4.857  26.185  53.567  1.00  0.00     0.209 C 
HETATM    6  C   UNL     1       4.092  27.525  53.484  1.00  0.00     0.115 C 
HETATM    7  N   UNL     1       3.987  28.150  54.797  1.00  0.00    -0.353 N 
HETATM    8  C   UNL     1       4.940  28.091  55.778  1.00  0.00     0.249 C 
HETATM    9  O   UNL     1       4.818  28.781  56.786  1.00  0.00    -0.271 OA
HETATM   10  C   UNL     1       5.096  25.574  52.186  1.00  0.00     0.035 C 
HETATM   11  C   UNL     1       5.719  26.554  51.191  1.00  0.00     0.002 C 
HETATM   12  C   UNL     1       4.934  27.859  51.113  1.00  0.00     0.002 C 
HETATM   13  C   UNL     1       4.738  28.499  52.485  1.00  0.00     0.027 C 
HETATM   14  H   UNL     1       3.253  28.838  54.963  1.00  0.00     0.163 HD
ENDROOT
BRANCH   1  15
HETATM   15  C   UNL     1       6.104  26.086  56.755  1.00  0.00     0.146 C 
BRANCH  15  16
HETATM   16  C   UNL     1       7.477  25.996  57.369  1.00  0.00     0.224 C 
HETATM   17  N   UNL     1       8.310  24.944  57.173  1.00  0.00    -0.327 N 
HETATM   18  H   UNL     1       9.100  24.949  57.813  1.00  0.00     0.169 HD
HETATM   19  O   UNL     1       7.829  26.904  58.139  1.00  0.00    -0.273 OA
BRANCH  17  20
HETATM   20  C   UNL     1       8.265  23.845  56.297  1.00  0.00     0.035 A 
HETATM   21  C   UNL     1       8.281  22.509  56.701  1.00  0.00     0.036 A 
HETATM   22  C   UNL     1       8.247  21.477  55.751  1.00  0.00    -0.059 A 
HETATM   23  C   UNL     1       8.237  20.037  56.178  1.00  0.00     0.048 C 
HETATM   24  C   UNL     1       8.159  21.795  54.390  1.00  0.00     0.013 A 
HETATM   25  C   UNL     1       8.094  23.125  53.972  1.00  0.00    -0.059 A 
HETATM   26  C   UNL     1       8.145  24.143  54.932  1.00  0.00     0.036 A 
HETATM   27  C   UNL     1       8.034  23.457  52.508  1.00  0.00     0.048 C 
ENDBRANCH  17  20
ENDBRANCH  15  16
ENDBRANCH   1  15
TORSDOF 3
ENDMDL
MODEL 3
REMARK VINA RESULT:      -9.1      1.209      7.743
REMARK  3 active torsions:
REMARK  status: ('A' for Active; 'I' for Inactive)
REMARK    1  A    between atoms: C_4  and  N_5 
REMARK       I    between atoms: N_5  and  C_6 
REMARK    2  A    between atoms: C_6  and  C_7 
REMARK    3  A    between atoms: C_7  and  C_8 
ROOT
HETATM    1  C   UNL     1       6.815  27.847  57.340  1.00  0.00     0.286 C 
HETATM    2  N   UNL     1       7.748  28.638  58.259  1.00  0.00    -0.056 N 
HETATM    3  H   UNL     1       7.252  28.778  59.147  1.00  0.00     0.278 HD
HETATM    4  H   UNL     1       8.547  28.019  58.515  1.00  0.00     0.278 HD
HETATM    5  C   UNL     1       8.236  29.950  57.714  1.00  0.00     0.209 C 
HETATM    6  C   UNL     1       7.007  30.800  57.319  1.00  0.00     0.115 C 
HETATM    7  N   UNL     1       6.135  30.068  56.409  1.00  0.00    -0.353 N 
HETATM    8  C   UNL     1       5.913  28.717  56.444  1.00  0.00     0.249 C 
HETATM    9  O   UNL     1       5.042  28.227  55.732  1.00  0.00    -0.271 OA
HETATM   10  C   UNL     1       9.098  30.643  58.769  1.00  0.00     0.035 C 
HETATM   11  C   UNL     1       8.299  31.131  59.978  1.00  0.00     0.002 C 
HETATM   12  C   UNL     1       7.105  31.984  59.562  1.00  0.00     0.002 C 
HETATM   13  C   UNL     1       6.213  31.273  58.548  1.00  0.00     0.027 C 
HETATM   14  H   UNL     1       5.488  30.586  55.816  1.00  0.00     0.163 HD
ENDROOT
BRANCH   1  15
HETATM   15  C   UNL     1       7.573  26.827  56.474  1.00  0.00     0.146 C 
BRANCH  15  16
HETATM   16  C   UNL     1       7.888  25.599  57.288  1.00  0.00     0.224 C 
HETATM   17  N   UNL     1       7.918  24.349  56.763  1.00  0.00    -0.327 N 
HETATM   18  H   UNL     1       7.944  23.628  57.479  1.00  0.00     0.169 HD
HETATM   19  O   UNL     1       8.066  25.742  58.508  1.00  0.00    -0.273 OA
BRANCH  17  20
HETATM   20  C   UNL     1       7.876  23.871  55.442  1.00  0.00     0.035 A 
HETATM   21  C   UNL     1       7.742  24.678  54.311  1.00  0.00     0.036 A 
HETATM   22  C   UNL     1       7.696  24.108  53.030  1.00  0.00    -0.059 A 
HETATM   23  C   UNL     1       7.578  24.972  51.806  1.00  0.00     0.048 C 
HETATM   24  C   UNL     1       7.824  22.721  52.887  1.00  0.00     0.013 A 
HETATM   25  C   UNL     1       8.006  21.904  54.004  1.00  0.00    -0.059 A 
HETATM   26  C   UNL     1       8.034  22.488  55.276  1.00  0.00     0.036 A 
HETATM   27  C   UNL     1       8.109  20.414  53.844  1.00  0.00     0.048 C 
ENDBRANCH  17  20
ENDBRANCH  15  16
ENDBRANCH   1  15
TORSDOF 3
ENDMDL
MODEL 4
REMARK VINA RESULT:      -9.0      3.292      7.575
REMARK  3 active torsions:
REMARK  status: ('A' for Active; 'I' for Inactive)
REMARK    1  A    between atoms: C_4  and  N_5 
REMARK       I    between atoms: N_5  and  C_6 
REMARK    2  A    between atoms: C_6  and  C_7 
REMARK    3  A    between atoms: C_7  and  C_8 
ROOT
HETATM    1  C   UNL     1       5.679  27.117  54.650  1.00  0.00     0.286 C 
HETATM    2  N   UNL     1       5.279  28.527  54.210  1.00  0.00    -0.056 N 
HETATM    3  H   UNL     1       6.028  29.162  54.511  1.00  0.00     0.278 HD
HETATM    4  H   UNL     1       5.326  28.563  53.169  1.00  0.00     0.278 HD
HETATM    5  C   UNL     1       3.947  29.009  54.708  1.00  0.00     0.209 C 
HETATM    6  C   UNL     1       3.932  28.892  56.250  1.00  0.00     0.115 C 
HETATM    7  N   UNL     1       4.270  27.539  56.675  1.00  0.00    -0.353 N 
HETATM    8  C   UNL     1       5.160  26.712  56.044  1.00  0.00     0.249 C 
HETATM    9  O   UNL     1       5.487  25.654  56.573  1.00  0.00    -0.271 OA
HETATM   10  C   UNL     1       3.725  30.447  54.239  1.00  0.00     0.035 C 
HETATM   11  C   UNL     1       4.651  31.455  54.921  1.00  0.00     0.002 C 
HETATM   12  C   UNL     1       4.602  31.332  56.441  1.00  0.00     0.002 C 
HETATM   13  C   UNL     1       4.874  29.908  56.915  1.00  0.00     0.027 C 
HETATM   14  H   UNL     1       3.986  27.224  57.602  1.00  0.00     0.163 HD
ENDROOT
BRANCH   1  15
HETATM   15  C   UNL     1       5.280  26.048  53.620  1.00  0.00     0.146 C 
BRANCH  15  16
HETATM   16  C   UNL     1       6.303  25.995  52.515  1.00  0.00     0.224 C 
HETATM   17  N   UNL     1       7.382  25.175  52.542  1.00  0.00    -0.327 N 
HETATM   18  H   UNL     1       8.066  25.409  51.827  1.00  0.00     0.169 HD
HETATM   19  O   UNL     1       6.176  26.789  51.569  1.00  0.00    -0.273 OA
BRANCH  17  20
HETATM   20  C   UNL     1       7.746  24.109  53.383  1.00  0.00     0.035 A 
HETATM   21  C   UNL     1       7.963  24.222  54.757  1.00  0.00     0.036 A 
HETATM   22  C   UNL     1       8.339  23.102  55.514  1.00  0.00    -0.059 A 
HETATM   23  C   UNL     1       8.548  23.211  56.998  1.00  0.00     0.048 C 
HETATM   24  C   UNL     1       8.459  21.855  54.888  1.00  0.00     0.013 A 
HETATM   25  C   UNL     1       8.198  21.715  53.524  1.00  0.00    -0.059 A 
HETATM   26  C   UNL     1       7.840  22.846  52.781  1.00  0.00     0.036 A 
HETATM   27  C   UNL     1       8.362  20.380  52.855  1.00  0.00     0.048 C 
ENDBRANCH  17  20
ENDBRANCH  15  16
ENDBRANCH   1  15
TORSDOF 3
ENDMDL
MODEL 5
REMARK VINA RESULT:      -8.9      3.282      7.339
REMARK  3 active torsions:
REMARK  status: ('A' for Active; 'I' for Inactive)
REMARK    1  A    between atoms: C_4  and  N_5 
REMARK       I    between atoms: N_5  and  C_6 
REMARK    2  A    between atoms: C_6  and  C_7 
REMARK    3  A    between atoms: C_7  and  C_8 
ROOT
HETATM    1  C   UNL     1       5.680  27.044  54.598  1.00  0.00     0.286 C 
HETATM    2  N   UNL     1       5.272  28.467  54.212  1.00  0.00    -0.056 N 
HETATM    3  H   UNL     1       6.030  29.091  54.512  1.00  0.00     0.278 HD
HETATM    4  H   UNL     1       5.292  28.535  53.171  1.00  0.00     0.278 HD
HETATM    5  C   UNL     1       3.954  28.937  54.758  1.00  0.00     0.209 C 
HETATM    6  C   UNL     1       3.979  28.772  56.295  1.00  0.00     0.115 C 
HETATM    7  N   UNL     1       4.324  27.407  56.670  1.00  0.00    -0.353 N 
HETATM    8  C   UNL     1       5.195  26.598  55.991  1.00  0.00     0.249 C 
HETATM    9  O   UNL     1       5.532  25.524  56.480  1.00  0.00    -0.271 OA
HETATM   10  C   UNL     1       3.725  30.389  54.339  1.00  0.00     0.035 C 
HETATM   11  C   UNL     1       4.670  31.373  55.028  1.00  0.00     0.002 C 
HETATM   12  C   UNL     1       4.660  31.205  56.544  1.00  0.00     0.002 C 
HETATM   13  C   UNL     1       4.941  29.766  56.967  1.00  0.00     0.027 C 
HETATM   14  H   UNL     1       4.063  27.064  57.594  1.00  0.00     0.163 HD
ENDROOT
BRANCH   1  15
HETATM   15  C   UNL     1       5.251  26.008  53.547  1.00  0.00     0.146 C 
BRANCH  15  16
HETATM   16  C   UNL     1       6.225  26.013  52.397  1.00  0.00     0.224 C 
HETATM   17  N   UNL     1       7.315  25.209  52.345  1.00  0.00    -0.327 N 
HETATM   18  H   UNL     1       7.964  25.481  51.611  1.00  0.00     0.169 HD
HETATM   19  O   UNL     1       6.045  26.840  51.489  1.00  0.00    -0.273 OA
BRANCH  17  20
HETATM   20  C   UNL     1       7.731  24.118  53.127  1.00  0.00     0.035 A 
HETATM   21  C   UNL     1       7.863  22.810  52.657  1.00  0.00     0.036 A 
HETATM   22  C   UNL     1       8.272  21.780  53.518  1.00  0.00    -0.059 A 
HETATM   23  C   UNL     1       8.443  20.376  53.012  1.00  0.00     0.048 C 
HETATM   24  C   UNL     1       8.585  22.078  54.849  1.00  0.00     0.013 A 
HETATM   25  C   UNL     1       8.504  23.389  55.324  1.00  0.00    -0.059 A 
HETATM   26  C   UNL     1       8.079  24.401  54.455  1.00  0.00     0.036 A 
HETATM   27  C   UNL     1       8.809  23.694  56.763  1.00  0.00     0.048 C 
ENDBRANCH  17  20
ENDBRANCH  15  16
ENDBRANCH   1  15
TORSDOF 3
ENDMDL
MODEL 6
REMARK VINA RESULT:      -8.8      1.668      2.557
REMARK  3 active torsions:
REMARK  status: ('A' for Active; 'I' for Inactive)
REMARK    1  A    between atoms: C_4  and  N_5 
REMARK       I    between atoms: N_5  and  C_6 
REMARK    2  A    between atoms: C_6  and  C_7 
REMARK    3  A    between atoms: C_7  and  C_8 
ROOT
HETATM    1  C   UNL     1       7.050  26.732  54.242  1.00  0.00     0.286 C 
HETATM    2  N   UNL     1       7.504  25.495  55.020  1.00  0.00    -0.056 N 
HETATM    3  H   UNL     1       8.489  25.331  54.780  1.00  0.00     0.278 HD
HETATM    4  H   UNL     1       7.532  25.746  56.031  1.00  0.00     0.278 HD
HETATM    5  C   UNL     1       6.692  24.252  54.794  1.00  0.00     0.209 C 
HETATM    6  C   UNL     1       6.658  23.961  53.276  1.00  0.00     0.115 C 
HETATM    7  N   UNL     1       6.185  25.122  52.532  1.00  0.00    -0.353 N 
HETATM    8  C   UNL     1       6.433  26.427  52.862  1.00  0.00     0.249 C 
HETATM    9  O   UNL     1       6.120  27.321  52.082  1.00  0.00    -0.271 OA
HETATM   10  C   UNL     1       7.308  23.098  55.586  1.00  0.00     0.035 C 
HETATM   11  C   UNL     1       8.660  22.643  55.037  1.00  0.00     0.002 C 
HETATM   12  C   UNL     1       8.594  22.343  53.543  1.00  0.00     0.002 C 
HETATM   13  C   UNL     1       8.028  23.513  52.743  1.00  0.00     0.027 C 
HETATM   14  H   UNL     1       5.800  24.989  51.597  1.00  0.00     0.163 HD
ENDROOT
BRANCH   1  15
HETATM   15  C   UNL     1       6.087  27.613  55.054  1.00  0.00     0.146 C 
BRANCH  15  16
HETATM   16  C   UNL     1       5.934  27.055  56.445  1.00  0.00     0.224 C 
HETATM   17  N   UNL     1       6.711  27.440  57.488  1.00  0.00    -0.327 N 
HETATM   18  H   UNL     1       6.612  26.827  58.293  1.00  0.00     0.169 HD
HETATM   19  O   UNL     1       5.096  26.157  56.621  1.00  0.00    -0.273 OA
BRANCH  17  20
HETATM   20  C   UNL     1       7.641  28.481  57.648  1.00  0.00     0.035 A 
HETATM   21  C   UNL     1       8.958  28.445  57.187  1.00  0.00     0.036 A 
HETATM   22  C   UNL     1       9.821  29.530  57.406  1.00  0.00    -0.059 A 
HETATM   23  C   UNL     1      11.232  29.509  56.889  1.00  0.00     0.048 C 
HETATM   24  C   UNL     1       9.341  30.671  58.059  1.00  0.00     0.013 A 
HETATM   25  C   UNL     1       8.013  30.743  58.485  1.00  0.00    -0.059 A 
HETATM   26  C   UNL     1       7.171  29.645  58.272  1.00  0.00     0.036 A 
HETATM   27  C   UNL     1       7.516  31.958  59.215  1.00  0.00     0.048 C 
ENDBRANCH  17  20
ENDBRANCH  15  16
ENDBRANCH   1  15
TORSDOF 3
ENDMDL
MODEL 7
REMARK VINA RESULT:      -8.7      4.761      7.142
REMARK  3 active torsions:
REMARK  status: ('A' for Active; 'I' for Inactive)
REMARK    1  A    between atoms: C_4  and  N_5 
REMARK       I    between atoms: N_5  and  C_6 
REMARK    2  A    between atoms: C_6  and  C_7 
REMARK    3  A    between atoms: C_7  and  C_8 
ROOT
HETATM    1  C   UNL     1       4.712  27.036  52.114  1.00  0.00     0.286 C 
HETATM    2  N   UNL     1       3.585  27.936  51.604  1.00  0.00    -0.056 N 
HETATM    3  H   UNL     1       2.775  27.332  51.421  1.00  0.00     0.278 HD
HETATM    4  H   UNL     1       3.273  28.539  52.395  1.00  0.00     0.278 HD
HETATM    5  C   UNL     1       3.911  28.762  50.392  1.00  0.00     0.209 C 
HETATM    6  C   UNL     1       4.404  27.813  49.275  1.00  0.00     0.115 C 
HETATM    7  N   UNL     1       5.507  26.982  49.742  1.00  0.00    -0.353 N 
HETATM    8  C   UNL     1       5.644  26.494  51.013  1.00  0.00     0.249 C 
HETATM    9  O   UNL     1       6.528  25.678  51.258  1.00  0.00    -0.271 OA
HETATM   10  C   UNL     1       2.671  29.549  49.971  1.00  0.00     0.035 C 
HETATM   11  C   UNL     1       1.557  28.667  49.407  1.00  0.00     0.002 C 
HETATM   12  C   UNL     1       2.064  27.756  48.293  1.00  0.00     0.002 C 
HETATM   13  C   UNL     1       3.271  26.929  48.727  1.00  0.00     0.027 C 
HETATM   14  H   UNL     1       6.138  26.564  49.059  1.00  0.00     0.163 HD
ENDROOT
BRANCH   1  15
HETATM   15  C   UNL     1       5.549  27.714  53.211  1.00  0.00     0.146 C 
BRANCH  15  16
HETATM   16  C   UNL     1       4.889  27.521  54.551  1.00  0.00     0.224 C 
HETATM   17  N   UNL     1       5.161  26.473  55.369  1.00  0.00    -0.327 N 
HETATM   18  H   UNL     1       4.491  26.388  56.128  1.00  0.00     0.169 HD
HETATM   19  O   UNL     1       4.010  28.330  54.887  1.00  0.00    -0.273 OA
BRANCH  17  20
HETATM   20  C   UNL     1       6.153  25.477  55.340  1.00  0.00     0.035 A 
HETATM   21  C   UNL     1       6.313  24.549  54.310  1.00  0.00     0.036 A 
HETATM   22  C   UNL     1       7.326  23.579  54.376  1.00  0.00    -0.059 A 
HETATM   23  C   UNL     1       7.522  22.593  53.259  1.00  0.00     0.048 C 
HETATM   24  C   UNL     1       8.203  23.571  55.467  1.00  0.00     0.013 A 
HETATM   25  C   UNL     1       8.086  24.523  56.482  1.00  0.00    -0.059 A 
HETATM   26  C   UNL     1       7.061  25.473  56.408  1.00  0.00     0.036 A 
HETATM   27  C   UNL     1       9.011  24.485  57.666  1.00  0.00     0.048 C 
ENDBRANCH  17  20
ENDBRANCH  15  16
ENDBRANCH   1  15
TORSDOF 3
ENDMDL
MODEL 8
REMARK VINA RESULT:      -8.7      1.955      3.624
REMARK  3 active torsions:
REMARK  status: ('A' for Active; 'I' for Inactive)
REMARK    1  A    between atoms: C_4  and  N_5 
REMARK       I    between atoms: N_5  and  C_6 
REMARK    2  A    between atoms: C_6  and  C_7 
REMARK    3  A    between atoms: C_7  and  C_8 
ROOT
HETATM    1  C   UNL     1       7.056  27.773  56.512  1.00  0.00     0.286 C 
HETATM    2  N   UNL     1       7.852  26.480  56.328  1.00  0.00    -0.056 N 
HETATM    3  H   UNL     1       8.131  26.433  55.340  1.00  0.00     0.278 HD
HETATM    4  H   UNL     1       8.755  26.584  56.837  1.00  0.00     0.278 HD
HETATM    5  C   UNL     1       7.145  25.219  56.736  1.00  0.00     0.209 C 
HETATM    6  C   UNL     1       5.800  25.147  55.976  1.00  0.00     0.115 C 
HETATM    7  N   UNL     1       5.017  26.359  56.182  1.00  0.00    -0.353 N 
HETATM    8  C   UNL     1       5.535  27.619  56.318  1.00  0.00     0.249 C 
HETATM    9  O   UNL     1       4.779  28.587  56.331  1.00  0.00    -0.271 OA
HETATM   10  C   UNL     1       8.042  24.018  56.431  1.00  0.00     0.035 C 
HETATM   11  C   UNL     1       8.217  23.760  54.934  1.00  0.00     0.002 C 
HETATM   12  C   UNL     1       6.876  23.672  54.212  1.00  0.00     0.002 C 
HETATM   13  C   UNL     1       6.000  24.894  54.473  1.00  0.00     0.027 C 
HETATM   14  H   UNL     1       4.009  26.331  56.033  1.00  0.00     0.163 HD
ENDROOT
BRANCH   1  15
HETATM   15  C   UNL     1       7.338  28.446  57.864  1.00  0.00     0.146 C 
BRANCH  15  16
HETATM   16  C   UNL     1       8.656  29.174  57.808  1.00  0.00     0.224 C 
HETATM   17  N   UNL     1       8.885  30.345  58.453  1.00  0.00    -0.327 N 
HETATM   18  H   UNL     1       9.744  30.795  58.148  1.00  0.00     0.169 HD
HETATM   19  O   UNL     1       9.548  28.704  57.084  1.00  0.00    -0.273 OA
BRANCH  17  20
HETATM   20  C   UNL     1       8.151  31.061  59.414  1.00  0.00     0.035 A 
HETATM   21  C   UNL     1       8.523  31.201  60.752  1.00  0.00     0.036 A 
HETATM   22  C   UNL     1       7.716  31.924  61.644  1.00  0.00    -0.059 A 
HETATM   23  C   UNL     1       8.124  32.102  63.080  1.00  0.00     0.048 C 
HETATM   24  C   UNL     1       6.550  32.540  61.176  1.00  0.00     0.013 A 
HETATM   25  C   UNL     1       6.188  32.450  59.830  1.00  0.00    -0.059 A 
HETATM   26  C   UNL     1       6.996  31.711  58.957  1.00  0.00     0.036 A 
HETATM   27  C   UNL     1       4.917  33.085  59.343  1.00  0.00     0.048 C 
ENDBRANCH  17  20
ENDBRANCH  15  16
ENDBRANCH   1  15
TORSDOF 3
ENDMDL
MODEL 9
REMARK VINA RESULT:      -8.5      1.892      7.003
REMARK  3 active torsions:
REMARK  status: ('A' for Active; 'I' for Inactive)
REMARK    1  A    between atoms: C_4  and  N_5 
REMARK       I    between atoms: N_5  and  C_6 
REMARK    2  A    between atoms: C_6  and  C_7 
REMARK    3  A    between atoms: C_7  and  C_8 
ROOT
HETATM    1  C   UNL     1       5.966  27.240  55.876  1.00  0.00     0.286 C 
HETATM    2  N   UNL     1       7.445  27.612  56.000  1.00  0.00    -0.056 N 
HETATM    3  H   UNL     1       7.722  27.431  56.972  1.00  0.00     0.278 HD
HETATM    4  H   UNL     1       7.996  26.919  55.451  1.00  0.00     0.278 HD
HETATM    5  C   UNL     1       7.797  29.017  55.604  1.00  0.00     0.209 C 
HETATM    6  C   UNL     1       6.917  29.989  56.424  1.00  0.00     0.115 C 
HETATM    7  N   UNL     1       5.503  29.667  56.276  1.00  0.00    -0.353 N 
HETATM    8  C   UNL     1       4.991  28.405  56.137  1.00  0.00     0.249 C 
HETATM    9  O   UNL     1       3.776  28.236  56.176  1.00  0.00    -0.271 OA
HETATM   10  C   UNL     1       9.288  29.250  55.845  1.00  0.00     0.035 C 
HETATM   11  C   UNL     1       9.662  29.283  57.327  1.00  0.00     0.002 C 
HETATM   12  C   UNL     1       8.794  30.264  58.110  1.00  0.00     0.002 C 
HETATM   13  C   UNL     1       7.304  30.002  57.912  1.00  0.00     0.027 C 
HETATM   14  H   UNL     1       4.807  30.386  56.471  1.00  0.00     0.163 HD
ENDROOT
BRANCH   1  15
HETATM   15  C   UNL     1       5.639  26.588  54.523  1.00  0.00     0.146 C 
BRANCH  15  16
HETATM   16  C   UNL     1       6.808  26.740  53.586  1.00  0.00     0.224 C 
HETATM   17  N   UNL     1       7.764  25.790  53.431  1.00  0.00    -0.327 N 
HETATM   18  H   UNL     1       8.574  26.133  52.923  1.00  0.00     0.169 HD
HETATM   19  O   UNL     1       6.927  27.815  52.977  1.00  0.00    -0.273 OA
BRANCH  17  20
HETATM   20  C   UNL     1       7.861  24.458  53.870  1.00  0.00     0.035 A 
HETATM   21  C   UNL     1       7.792  23.342  53.035  1.00  0.00     0.036 A 
HETATM   22  C   UNL     1       7.885  22.046  53.567  1.00  0.00    -0.059 A 
HETATM   23  C   UNL     1       7.839  20.841  52.671  1.00  0.00     0.048 C 
HETATM   24  C   UNL     1       8.085  21.879  54.942  1.00  0.00     0.013 A 
HETATM   25  C   UNL     1       8.204  22.985  55.786  1.00  0.00    -0.059 A 
HETATM   26  C   UNL     1       8.093  24.270  55.240  1.00  0.00     0.036 A 
HETATM   27  C   UNL     1       8.385  22.795  57.264  1.00  0.00     0.048 C 
ENDBRANCH  17  20
ENDBRANCH  15  16
ENDBRANCH   1  15
TORSDOF 3
ENDMDL
MODEL 10
REMARK VINA RESULT:      -8.5      1.280      2.253
REMARK  3 active torsions:
REMARK  status: ('A' for Active; 'I' for Inactive)
REMARK    1  A    between atoms: C_4  and  N_5 
REMARK       I    between atoms: N_5  and  C_6 
REMARK    2  A    between atoms: C_6  and  C_7 
REMARK    3  A    between atoms: C_7  and  C_8 
ROOT
HETATM    1  C   UNL     1       6.118  25.337  56.833  1.00  0.00     0.286 C 
HETATM    2  N   UNL     1       6.177  24.521  55.541  1.00  0.00    -0.056 N 
HETATM    3  H   UNL     1       6.125  23.530  55.805  1.00  0.00     0.278 HD
HETATM    4  H   UNL     1       5.290  24.686  55.018  1.00  0.00     0.278 HD
HETATM    5  C   UNL     1       7.373  24.772  54.668  1.00  0.00     0.209 C 
HETATM    6  C   UNL     1       8.648  24.549  55.514  1.00  0.00     0.115 C 
HETATM    7  N   UNL     1       8.619  25.356  56.727  1.00  0.00    -0.353 N 
HETATM    8  C   UNL     1       7.495  25.658  57.449  1.00  0.00     0.249 C 
HETATM    9  O   UNL     1       7.603  26.213  58.538  1.00  0.00    -0.271 OA
HETATM   10  C   UNL     1       7.317  23.839  53.458  1.00  0.00     0.035 C 
HETATM   11  C   UNL     1       7.544  22.370  53.815  1.00  0.00     0.002 C 
HETATM   12  C   UNL     1       8.818  22.175  54.632  1.00  0.00     0.002 C 
HETATM   13  C   UNL     1       8.853  23.067  55.869  1.00  0.00     0.027 C 
HETATM   14  H   UNL     1       9.495  25.572  57.202  1.00  0.00     0.163 HD
ENDROOT
BRANCH   1  15
HETATM   15  C   UNL     1       5.312  26.636  56.669  1.00  0.00     0.146 C 
BRANCH  15  16
HETATM   16  C   UNL     1       5.675  27.301  55.368  1.00  0.00     0.224 C 
HETATM   17  N   UNL     1       6.461  28.404  55.292  1.00  0.00    -0.327 N 
HETATM   18  H   UNL     1       6.438  28.835  54.372  1.00  0.00     0.169 HD
HETATM   19  O   UNL     1       5.177  26.848  54.325  1.00  0.00    -0.273 OA
BRANCH  17  20
HETATM   20  C   UNL     1       7.251  29.076  56.241  1.00  0.00     0.035 A 
HETATM   21  C   UNL     1       6.746  29.823  57.307  1.00  0.00     0.036 A 
HETATM   22  C   UNL     1       7.615  30.472  58.197  1.00  0.00    -0.059 A 
HETATM   23  C   UNL     1       7.080  31.256  59.362  1.00  0.00     0.048 C 
HETATM   24  C   UNL     1       8.999  30.335  58.034  1.00  0.00     0.013 A 
HETATM   25  C   UNL     1       9.520  29.552  57.002  1.00  0.00    -0.059 A 
HETATM   26  C   UNL     1       8.639  28.924  56.113  1.00  0.00     0.036 A 
HETATM   27  C   UNL     1      11.006  29.438  56.814  1.00  0.00     0.048 C 
ENDBRANCH  17  20
ENDBRANCH  15  16
ENDBRANCH   1  15
TORSDOF 3
ENDMDL
