MODEL 1
REMARK VINA RESULT:      -7.8      0.000      0.000
REMARK  4 active torsions:
REMARK  status: ('A' for Active; 'I' for Inactive)
REMARK    1  A    between atoms: C_5  and  C_6 
REMARK       I    between atoms: C_6  and  N_7 
REMARK    2  A    between atoms: N_7  and  N_8 
REMARK       I    between atoms: N_8  and  C_9 
REMARK    3  A    between atoms: C_9  and  C_10 
REMARK    4  A    between atoms: C_13  and  C_14 
ROOT
HETATM    1  N   UNL     1       6.668  33.279  62.631  1.00  0.00    -0.263 N 
HETATM    2  C   UNL     1       7.592  32.293  62.355  1.00  0.00     0.270 C 
HETATM    3  O   UNL     1       8.388  31.874  63.194  1.00  0.00    -0.266 OA
HETATM    4  H   UNL     1       5.868  33.485  62.036  1.00  0.00     0.190 HD
ENDROOT
BRANCH   2   5
HETATM    5  C   UNL     1       7.567  31.725  60.981  1.00  0.00     0.033 A 
HETATM    6  C   UNL     1       6.612  32.103  60.035  1.00  0.00     0.017 A 
HETATM    7  C   UNL     1       6.639  31.544  58.752  1.00  0.00     0.010 A 
HETATM    8  C   UNL     1       7.625  30.608  58.367  1.00  0.00    -0.035 A 
HETATM    9  C   UNL     1       8.564  30.233  59.342  1.00  0.00     0.010 A 
HETATM   10  C   UNL     1       8.546  30.795  60.625  1.00  0.00     0.017 A 
BRANCH   8  11
HETATM   11  C   UNL     1       7.569  30.020  56.957  1.00  0.00     0.141 C 
HETATM   12  S   UNL     1       8.502  28.458  56.775  1.00  0.00    -0.149 SA
HETATM   13  C   UNL     1       7.397  27.331  57.662  1.00  0.00     0.076 C 
HETATM   14  C   UNL     1       6.049  27.205  56.972  1.00  0.00     0.020 C 
HETATM   15  C   UNL     1       5.217  28.476  57.036  1.00  0.00     0.076 C 
HETATM   16  S   UNL     1       5.942  29.885  56.146  1.00  0.00    -0.149 SA
ENDBRANCH   8  11
ENDBRANCH   2   5
BRANCH   1  17
HETATM   17  N   UNL     1       6.595  33.758  63.945  1.00  0.00    -0.262 N 
HETATM   18  C   UNL     1       5.546  33.360  64.745  1.00  0.00     0.286 C 
HETATM   19  O   UNL     1       4.653  32.625  64.321  1.00  0.00    -0.264 OA
HETATM   20  H   UNL     1       7.396  34.283  64.284  1.00  0.00     0.190 HD
BRANCH  18  21
HETATM   21  C   UNL     1       5.568  33.859  66.102  1.00  0.00     0.102 A 
HETATM   22  N   UNL     1       6.757  34.093  66.761  1.00  0.00    -0.361 N 
HETATM   23  C   UNL     1       6.517  34.547  68.029  1.00  0.00     0.088 A 
HETATM   24  H   UNL     1       7.668  33.938  66.346  1.00  0.00     0.165 HD
HETATM   25  C   UNL     1       5.154  34.615  68.202  1.00  0.00     0.019 A 
HETATM   26  C   UNL     1       4.555  34.183  66.992  1.00  0.00     0.036 A 
ENDBRANCH  18  21
ENDBRANCH   1  17
TORSDOF 4
ENDMDL
MODEL 2
REMARK VINA RESULT:      -7.8     11.433     14.022
REMARK  4 active torsions:
REMARK  status: ('A' for Active; 'I' for Inactive)
REMARK    1  A    between atoms: C_5  and  C_6 
REMARK       I    between atoms: C_6  and  N_7 
REMARK    2  A    between atoms: N_7  and  N_8 
REMARK       I    between atoms: N_8  and  C_9 
REMARK    3  A    between atoms: C_9  and  C_10 
REMARK    4  A    between atoms: C_13  and  C_14 
ROOT
HETATM    1  N   UNL     1       4.819  26.076  50.569  1.00  0.00    -0.263 N 
HETATM    2  C   UNL     1       4.950  26.312  51.922  1.00  0.00     0.270 C 
HETATM    3  O   UNL     1       4.249  27.122  52.526  1.00  0.00    -0.266 OA
HETATM    4  H   UNL     1       5.224  25.271  50.094  1.00  0.00     0.190 HD
ENDROOT
BRANCH   2   5
HETATM    5  C   UNL     1       5.976  25.509  52.639  1.00  0.00     0.033 A 
HETATM    6  C   UNL     1       7.077  24.951  51.986  1.00  0.00     0.017 A 
HETATM    7  C   UNL     1       8.019  24.212  52.712  1.00  0.00     0.010 A 
HETATM    8  C   UNL     1       7.904  24.021  54.107  1.00  0.00    -0.035 A 
HETATM    9  C   UNL     1       6.778  24.579  54.737  1.00  0.00     0.010 A 
HETATM   10  C   UNL     1       5.837  25.326  54.017  1.00  0.00     0.017 A 
BRANCH   8  11
HETATM   11  C   UNL     1       8.957  23.175  54.822  1.00  0.00     0.141 C 
HETATM   12  S   UNL     1       8.537  22.797  56.562  1.00  0.00    -0.149 SA
HETATM   13  C   UNL     1       7.228  21.572  56.306  1.00  0.00     0.076 C 
HETATM   14  C   UNL     1       7.753  20.321  55.623  1.00  0.00     0.020 C 
HETATM   15  C   UNL     1       8.168  20.551  54.178  1.00  0.00     0.076 C 
HETATM   16  S   UNL     1       9.577  21.682  53.980  1.00  0.00    -0.149 SA
ENDBRANCH   8  11
ENDBRANCH   2   5
BRANCH   1  17
HETATM   17  N   UNL     1       3.791  26.736  49.886  1.00  0.00    -0.262 N 
HETATM   18  C   UNL     1       3.714  26.618  48.515  1.00  0.00     0.286 C 
HETATM   19  O   UNL     1       4.548  25.977  47.874  1.00  0.00    -0.264 OA
HETATM   20  H   UNL     1       3.072  27.174  50.456  1.00  0.00     0.190 HD
BRANCH  18  21
HETATM   21  C   UNL     1       2.596  27.289  47.889  1.00  0.00     0.102 A 
HETATM   22  N   UNL     1       1.325  26.755  47.930  1.00  0.00    -0.361 N 
HETATM   23  C   UNL     1       0.447  27.564  47.260  1.00  0.00     0.088 A 
HETATM   24  H   UNL     1       1.097  25.882  48.391  1.00  0.00     0.165 HD
HETATM   25  C   UNL     1       1.152  28.642  46.778  1.00  0.00     0.019 A 
HETATM   26  C   UNL     1       2.503  28.472  47.172  1.00  0.00     0.036 A 
ENDBRANCH  18  21
ENDBRANCH   1  17
TORSDOF 4
ENDMDL
MODEL 3
REMARK VINA RESULT:      -7.5      2.555      3.878
REMARK  4 active torsions:
REMARK  status: ('A' for Active; 'I' for Inactive)
REMARK    1  A    between atoms: C_5  and  C_6 
REMARK       I    between atoms: C_6  and  N_7 
REMARK    2  A    between atoms: N_7  and  N_8 
REMARK       I    between atoms: N_8  and  C_9 
REMARK    3  A    between atoms: C_9  and  C_10 
REMARK    4  A    between atoms: C_13  and  C_14 
ROOT
HETATM    1  N   UNL     1       7.082  30.853  59.791  1.00  0.00    -0.263 N 
HETATM    2  C   UNL     1       8.178  30.236  59.226  1.00  0.00     0.270 C 
HETATM    3  O   UNL     1       9.263  30.154  59.799  1.00  0.00    -0.266 OA
HETATM    4  H   UNL     1       6.131  30.745  59.443  1.00  0.00     0.190 HD
ENDROOT
BRANCH   2   5
HETATM    5  C   UNL     1       7.981  29.636  57.880  1.00  0.00     0.033 A 
HETATM    6  C   UNL     1       8.899  28.747  57.317  1.00  0.00     0.017 A 
HETATM    7  C   UNL     1       8.659  28.204  56.049  1.00  0.00     0.010 A 
HETATM    8  C   UNL     1       7.493  28.514  55.312  1.00  0.00    -0.035 A 
HETATM    9  C   UNL     1       6.594  29.423  55.894  1.00  0.00     0.010 A 
HETATM   10  C   UNL     1       6.825  29.964  57.166  1.00  0.00     0.017 A 
BRANCH   8  11
HETATM   11  C   UNL     1       7.319  27.904  53.921  1.00  0.00     0.141 C 
HETATM   12  S   UNL     1       7.508  26.085  53.889  1.00  0.00    -0.149 SA
HETATM   13  C   UNL     1       5.952  25.598  54.676  1.00  0.00     0.076 C 
HETATM   14  C   UNL     1       4.748  26.003  53.841  1.00  0.00     0.020 C 
HETATM   15  C   UNL     1       4.537  27.507  53.776  1.00  0.00     0.076 C 
HETATM   16  S   UNL     1       5.872  28.410  52.936  1.00  0.00    -0.149 SA
ENDBRANCH   8  11
ENDBRANCH   2   5
BRANCH   1  17
HETATM   17  N   UNL     1       7.204  31.334  61.101  1.00  0.00    -0.262 N 
HETATM   18  C   UNL     1       6.444  32.416  61.490  1.00  0.00     0.286 C 
HETATM   19  O   UNL     1       5.691  32.993  60.705  1.00  0.00    -0.264 OA
HETATM   20  H   UNL     1       7.761  30.775  61.741  1.00  0.00     0.190 HD
BRANCH  18  21
HETATM   21  C   UNL     1       6.591  32.820  62.870  1.00  0.00     0.102 A 
HETATM   22  N   UNL     1       5.504  33.215  63.622  1.00  0.00    -0.361 N 
HETATM   23  C   UNL     1       5.899  33.560  64.886  1.00  0.00     0.088 A 
HETATM   24  H   UNL     1       4.556  33.244  63.265  1.00  0.00     0.165 HD
HETATM   25  C   UNL     1       7.260  33.385  64.965  1.00  0.00     0.019 A 
HETATM   26  C   UNL     1       7.698  32.921  63.699  1.00  0.00     0.036 A 
ENDBRANCH  18  21
ENDBRANCH   1  17
TORSDOF 4
ENDMDL
MODEL 4
REMARK VINA RESULT:      -7.3      5.838     10.473
REMARK  4 active torsions:
REMARK  status: ('A' for Active; 'I' for Inactive)
REMARK    1  A    between atoms: C_5  and  C_6 
REMARK       I    between atoms: C_6  and  N_7 
REMARK    2  A    between atoms: N_7  and  N_8 
REMARK       I    between atoms: N_8  and  C_9 
REMARK    3  A    between atoms: C_9  and  C_10 
REMARK    4  A    between atoms: C_13  and  C_14 
ROOT
HETATM    1  N   UNL     1       7.214  27.041  55.846  1.00  0.00    -0.263 N 
HETATM    2  C   UNL     1       7.441  27.281  57.185  1.00  0.00     0.270 C 
HETATM    3  O   UNL     1       7.928  26.439  57.938  1.00  0.00    -0.266 OA
HETATM    4  H   UNL     1       7.022  27.774  55.166  1.00  0.00     0.190 HD
ENDROOT
BRANCH   2   5
HETATM    5  C   UNL     1       7.090  28.636  57.685  1.00  0.00     0.033 A 
HETATM    6  C   UNL     1       7.942  29.369  58.514  1.00  0.00     0.017 A 
HETATM    7  C   UNL     1       7.565  30.646  58.948  1.00  0.00     0.010 A 
HETATM    8  C   UNL     1       6.343  31.237  58.559  1.00  0.00    -0.035 A 
HETATM    9  C   UNL     1       5.497  30.472  57.738  1.00  0.00     0.010 A 
HETATM   10  C   UNL     1       5.871  29.197  57.294  1.00  0.00     0.017 A 
BRANCH   8  11
HETATM   11  C   UNL     1       5.990  32.623  59.101  1.00  0.00     0.141 C 
HETATM   12  S   UNL     1       4.252  33.108  58.803  1.00  0.00    -0.149 SA
HETATM   13  C   UNL     1       3.422  32.044  60.011  1.00  0.00     0.076 C 
HETATM   14  C   UNL     1       3.815  32.398  61.436  1.00  0.00     0.020 C 
HETATM   15  C   UNL     1       5.263  32.067  61.762  1.00  0.00     0.076 C 
HETATM   16  S   UNL     1       6.478  33.027  60.810  1.00  0.00    -0.149 SA
ENDBRANCH   8  11
ENDBRANCH   2   5
BRANCH   1  17
HETATM   17  N   UNL     1       7.632  25.812  55.321  1.00  0.00    -0.262 N 
HETATM   18  C   UNL     1       6.682  24.892  54.933  1.00  0.00     0.286 C 
HETATM   19  O   UNL     1       5.477  25.109  55.072  1.00  0.00    -0.264 OA
HETATM   20  H   UNL     1       8.626  25.710  55.135  1.00  0.00     0.190 HD
BRANCH  18  21
HETATM   21  C   UNL     1       7.193  23.669  54.356  1.00  0.00     0.102 A 
HETATM   22  N   UNL     1       7.457  22.563  55.137  1.00  0.00    -0.361 N 
HETATM   23  C   UNL     1       7.941  21.541  54.366  1.00  0.00     0.088 A 
HETATM   24  H   UNL     1       7.309  22.535  56.139  1.00  0.00     0.165 HD
HETATM   25  C   UNL     1       7.993  21.981  53.065  1.00  0.00     0.019 A 
HETATM   26  C   UNL     1       7.523  23.319  53.056  1.00  0.00     0.036 A 
ENDBRANCH  18  21
ENDBRANCH   1  17
TORSDOF 4
ENDMDL
MODEL 5
REMARK VINA RESULT:      -7.3      5.927     10.407
REMARK  4 active torsions:
REMARK  status: ('A' for Active; 'I' for Inactive)
REMARK    1  A    between atoms: C_5  and  C_6 
REMARK       I    between atoms: C_6  and  N_7 
REMARK    2  A    between atoms: N_7  and  N_8 
REMARK       I    between atoms: N_8  and  C_9 
REMARK    3  A    between atoms: C_9  and  C_10 
REMARK    4  A    between atoms: C_13  and  C_14 
ROOT
HETATM    1  N   UNL     1       7.614  26.194  56.163  1.00  0.00    -0.263 N 
HETATM    2  C   UNL     1       6.488  26.714  56.767  1.00  0.00     0.270 C 
HETATM    3  O   UNL     1       5.442  26.077  56.883  1.00  0.00    -0.266 OA
HETATM    4  H   UNL     1       8.542  26.606  56.248  1.00  0.00     0.190 HD
ENDROOT
BRANCH   2   5
HETATM    5  C   UNL     1       6.602  28.094  57.307  1.00  0.00     0.033 A 
HETATM    6  C   UNL     1       5.594  29.046  57.143  1.00  0.00     0.017 A 
HETATM    7  C   UNL     1       5.750  30.329  57.681  1.00  0.00     0.010 A 
HETATM    8  C   UNL     1       6.902  30.698  58.411  1.00  0.00    -0.035 A 
HETATM    9  C   UNL     1       7.908  29.727  58.548  1.00  0.00     0.010 A 
HETATM   10  C   UNL     1       7.755  28.439  58.018  1.00  0.00     0.017 A 
BRANCH   8  11
HETATM   11  C   UNL     1       7.010  32.128  58.940  1.00  0.00     0.141 C 
HETATM   12  S   UNL     1       5.393  32.957  59.150  1.00  0.00    -0.149 SA
HETATM   13  C   UNL     1       4.789  32.091  60.621  1.00  0.00     0.076 C 
HETATM   14  C   UNL     1       5.665  32.362  61.833  1.00  0.00     0.020 C 
HETATM   15  C   UNL     1       7.050  31.743  61.728  1.00  0.00     0.076 C 
HETATM   16  S   UNL     1       8.072  32.430  60.390  1.00  0.00    -0.149 SA
ENDBRANCH   8  11
ENDBRANCH   2   5
BRANCH   1  17
HETATM   17  N   UNL     1       7.573  24.860  55.740  1.00  0.00    -0.262 N 
HETATM   18  C   UNL     1       8.315  23.918  56.420  1.00  0.00     0.286 C 
HETATM   19  O   UNL     1       9.042  24.228  57.366  1.00  0.00    -0.264 OA
HETATM   20  H   UNL     1       6.893  24.630  55.020  1.00  0.00     0.190 HD
BRANCH  18  21
HETATM   21  C   UNL     1       8.181  22.557  55.953  1.00  0.00     0.102 A 
HETATM   22  N   UNL     1       8.371  21.486  56.800  1.00  0.00    -0.361 N 
HETATM   23  C   UNL     1       8.202  20.308  56.124  1.00  0.00     0.088 A 
HETATM   24  H   UNL     1       8.607  21.581  57.781  1.00  0.00     0.165 HD
HETATM   25  C   UNL     1       7.895  20.612  54.819  1.00  0.00     0.019 A 
HETATM   26  C   UNL     1       7.881  22.025  54.708  1.00  0.00     0.036 A 
ENDBRANCH  18  21
ENDBRANCH   1  17
TORSDOF 4
ENDMDL
MODEL 6
REMARK VINA RESULT:      -7.2      3.764      5.797
REMARK  4 active torsions:
REMARK  status: ('A' for Active; 'I' for Inactive)
REMARK    1  A    between atoms: C_5  and  C_6 
REMARK       I    between atoms: C_6  and  N_7 
REMARK    2  A    between atoms: N_7  and  N_8 
REMARK       I    between atoms: N_8  and  C_9 
REMARK    3  A    between atoms: C_9  and  C_10 
REMARK    4  A    between atoms: C_13  and  C_14 
ROOT
HETATM    1  N   UNL     1       6.170  30.169  58.301  1.00  0.00    -0.263 N 
HETATM    2  C   UNL     1       7.136  29.194  58.159  1.00  0.00     0.270 C 
HETATM    3  O   UNL     1       8.206  29.226  58.764  1.00  0.00    -0.266 OA
HETATM    4  H   UNL     1       5.206  30.058  57.991  1.00  0.00     0.190 HD
ENDROOT
BRANCH   2   5
HETATM    5  C   UNL     1       6.810  28.065  57.248  1.00  0.00     0.033 A 
HETATM    6  C   UNL     1       7.581  26.902  57.197  1.00  0.00     0.017 A 
HETATM    7  C   UNL     1       7.223  25.865  56.326  1.00  0.00     0.010 A 
HETATM    8  C   UNL     1       6.082  25.946  55.497  1.00  0.00    -0.035 A 
HETATM    9  C   UNL     1       5.334  27.133  55.556  1.00  0.00     0.010 A 
HETATM   10  C   UNL     1       5.682  28.171  56.430  1.00  0.00     0.017 A 
BRANCH   8  11
HETATM   11  C   UNL     1       5.777  24.784  54.551  1.00  0.00     0.141 C 
HETATM   12  S   UNL     1       4.986  25.301  52.985  1.00  0.00    -0.149 SA
HETATM   13  C   UNL     1       6.407  26.056  52.154  1.00  0.00     0.076 C 
HETATM   14  C   UNL     1       7.497  25.036  51.866  1.00  0.00     0.020 C 
HETATM   15  C   UNL     1       8.185  24.517  53.119  1.00  0.00     0.076 C 
HETATM   16  S   UNL     1       7.097  23.570  54.226  1.00  0.00    -0.149 SA
ENDBRANCH   8  11
ENDBRANCH   2   5
BRANCH   1  17
HETATM   17  N   UNL     1       6.401  31.188  59.232  1.00  0.00    -0.262 N 
HETATM   18  C   UNL     1       5.340  31.956  59.661  1.00  0.00     0.286 C 
HETATM   19  O   UNL     1       4.202  31.792  59.217  1.00  0.00    -0.264 OA
HETATM   20  H   UNL     1       7.330  31.229  59.642  1.00  0.00     0.190 HD
BRANCH  18  21
HETATM   21  C   UNL     1       5.651  32.955  60.658  1.00  0.00     0.102 A 
HETATM   22  N   UNL     1       4.838  34.052  60.854  1.00  0.00    -0.361 N 
HETATM   23  C   UNL     1       5.349  34.854  61.838  1.00  0.00     0.088 A 
HETATM   24  H   UNL     1       3.989  34.222  60.327  1.00  0.00     0.165 HD
HETATM   25  C   UNL     1       6.508  34.274  62.295  1.00  0.00     0.019 A 
HETATM   26  C   UNL     1       6.701  33.081  61.555  1.00  0.00     0.036 A 
ENDBRANCH  18  21
ENDBRANCH   1  17
TORSDOF 4
ENDMDL
MODEL 7
REMARK VINA RESULT:      -7.2      4.445      9.105
REMARK  4 active torsions:
REMARK  status: ('A' for Active; 'I' for Inactive)
REMARK    1  A    between atoms: C_5  and  C_6 
REMARK       I    between atoms: C_6  and  N_7 
REMARK    2  A    between atoms: N_7  and  N_8 
REMARK       I    between atoms: N_8  and  C_9 
REMARK    3  A    between atoms: C_9  and  C_10 
REMARK    4  A    between atoms: C_13  and  C_14 
ROOT
HETATM    1  N   UNL     1       7.027  30.657  59.204  1.00  0.00    -0.263 N 
HETATM    2  C   UNL     1       7.945  30.786  60.226  1.00  0.00     0.270 C 
HETATM    3  O   UNL     1       8.989  30.137  60.266  1.00  0.00    -0.266 OA
HETATM    4  H   UNL     1       6.277  31.324  59.032  1.00  0.00     0.190 HD
ENDROOT
BRANCH   2   5
HETATM    5  C   UNL     1       7.627  31.782  61.283  1.00  0.00     0.033 A 
HETATM    6  C   UNL     1       8.192  31.724  62.558  1.00  0.00     0.017 A 
HETATM    7  C   UNL     1       7.864  32.694  63.512  1.00  0.00     0.010 A 
HETATM    8  C   UNL     1       6.982  33.758  63.223  1.00  0.00    -0.035 A 
HETATM    9  C   UNL     1       6.414  33.785  61.938  1.00  0.00     0.010 A 
HETATM   10  C   UNL     1       6.744  32.821  60.976  1.00  0.00     0.017 A 
BRANCH   8  11
HETATM   11  C   UNL     1       6.650  34.760  64.329  1.00  0.00     0.141 C 
HETATM   12  S   UNL     1       5.553  36.119  63.785  1.00  0.00    -0.149 SA
HETATM   13  C   UNL     1       3.987  35.219  63.654  1.00  0.00     0.076 C 
HETATM   14  C   UNL     1       3.524  34.697  65.005  1.00  0.00     0.020 C 
HETATM   15  C   UNL     1       4.405  33.588  65.558  1.00  0.00     0.076 C 
HETATM   16  S   UNL     1       6.104  34.110  65.942  1.00  0.00    -0.149 SA
ENDBRANCH   8  11
ENDBRANCH   2   5
BRANCH   1  17
HETATM   17  N   UNL     1       7.347  29.806  58.140  1.00  0.00    -0.262 N 
HETATM   18  C   UNL     1       6.330  29.292  57.364  1.00  0.00     0.286 C 
HETATM   19  O   UNL     1       5.147  29.532  57.609  1.00  0.00    -0.264 OA
HETATM   20  H   UNL     1       8.333  29.710  57.914  1.00  0.00     0.190 HD
BRANCH  18  21
HETATM   21  C   UNL     1       6.745  28.462  56.256  1.00  0.00     0.102 A 
HETATM   22  N   UNL     1       6.230  27.195  56.076  1.00  0.00    -0.361 N 
HETATM   23  C   UNL     1       6.784  26.609  54.971  1.00  0.00     0.088 A 
HETATM   24  H   UNL     1       5.542  26.777  56.691  1.00  0.00     0.165 HD
HETATM   25  C   UNL     1       7.670  27.503  54.419  1.00  0.00     0.019 A 
HETATM   26  C   UNL     1       7.648  28.669  55.224  1.00  0.00     0.036 A 
ENDBRANCH  18  21
ENDBRANCH   1  17
TORSDOF 4
ENDMDL
MODEL 8
REMARK VINA RESULT:      -7.1     11.187     12.726
REMARK  4 active torsions:
REMARK  status: ('A' for Active; 'I' for Inactive)
REMARK    1  A    between atoms: C_5  and  C_6 
REMARK       I    between atoms: C_6  and  N_7 
REMARK    2  A    between atoms: N_7  and  N_8 
REMARK       I    between atoms: N_8  and  C_9 
REMARK    3  A    between atoms: C_9  and  C_10 
REMARK    4  A    between atoms: C_13  and  C_14 
ROOT
HETATM    1  N   UNL     1       6.091  24.520  53.167  1.00  0.00    -0.263 N 
HETATM    2  C   UNL     1       5.524  25.709  53.579  1.00  0.00     0.270 C 
HETATM    3  O   UNL     1       5.386  26.002  54.766  1.00  0.00    -0.266 OA
HETATM    4  H   UNL     1       6.414  24.349  52.217  1.00  0.00     0.190 HD
ENDROOT
BRANCH   2   5
HETATM    5  C   UNL     1       5.104  26.650  52.508  1.00  0.00     0.033 A 
HETATM    6  C   UNL     1       4.215  27.700  52.744  1.00  0.00     0.017 A 
HETATM    7  C   UNL     1       3.860  28.564  51.701  1.00  0.00     0.010 A 
HETATM    8  C   UNL     1       4.392  28.420  50.399  1.00  0.00    -0.035 A 
HETATM    9  C   UNL     1       5.271  27.346  50.184  1.00  0.00     0.010 A 
HETATM   10  C   UNL     1       5.636  26.483  51.227  1.00  0.00     0.017 A 
BRANCH   8  11
HETATM   11  C   UNL     1       3.931  29.385  49.307  1.00  0.00     0.141 C 
HETATM   12  S   UNL     1       4.481  28.910  47.628  1.00  0.00    -0.149 SA
HETATM   13  C   UNL     1       3.383  27.501  47.329  1.00  0.00     0.076 C 
HETATM   14  C   UNL     1       1.924  27.923  47.289  1.00  0.00     0.020 C 
HETATM   15  C   UNL     1       1.389  28.377  48.638  1.00  0.00     0.076 C 
HETATM   16  S   UNL     1       2.178  29.883  49.283  1.00  0.00    -0.149 SA
ENDBRANCH   8  11
ENDBRANCH   2   5
BRANCH   1  17
HETATM   17  N   UNL     1       6.595  23.660  54.150  1.00  0.00    -0.262 N 
HETATM   18  C   UNL     1       7.506  22.691  53.789  1.00  0.00     0.286 C 
HETATM   19  O   UNL     1       7.859  22.540  52.618  1.00  0.00    -0.264 OA
HETATM   20  H   UNL     1       6.353  23.876  55.113  1.00  0.00     0.190 HD
BRANCH  18  21
HETATM   21  C   UNL     1       8.014  21.875  54.868  1.00  0.00     0.102 A 
HETATM   22  N   UNL     1       7.956  22.301  56.179  1.00  0.00    -0.361 N 
HETATM   23  C   UNL     1       8.509  21.364  57.009  1.00  0.00     0.088 A 
HETATM   24  H   UNL     1       7.560  23.189  56.463  1.00  0.00     0.165 HD
HETATM   25  C   UNL     1       8.931  20.310  56.233  1.00  0.00     0.019 A 
HETATM   26  C   UNL     1       8.622  20.629  54.887  1.00  0.00     0.036 A 
ENDBRANCH  18  21
ENDBRANCH   1  17
TORSDOF 4
ENDMDL
MODEL 9
REMARK VINA RESULT:      -7.0      2.198      2.854
REMARK  4 active torsions:
REMARK  status: ('A' for Active; 'I' for Inactive)
REMARK    1  A    between atoms: C_5  and  C_6 
REMARK       I    between atoms: C_6  and  N_7 
REMARK    2  A    between atoms: N_7  and  N_8 
REMARK       I    between atoms: N_8  and  C_9 
REMARK    3  A    between atoms: C_9  and  C_10 
REMARK    4  A    between atoms: C_13  and  C_14 
ROOT
HETATM    1  N   UNL     1       5.999  31.680  60.850  1.00  0.00    -0.263 N 
HETATM    2  C   UNL     1       6.192  31.968  59.515  1.00  0.00     0.270 C 
HETATM    3  O   UNL     1       6.047  33.098  59.052  1.00  0.00    -0.266 OA
HETATM    4  H   UNL     1       6.319  30.821  61.294  1.00  0.00     0.190 HD
ENDROOT
BRANCH   2   5
HETATM    5  C   UNL     1       6.620  30.839  58.647  1.00  0.00     0.033 A 
HETATM    6  C   UNL     1       5.839  30.376  57.587  1.00  0.00     0.017 A 
HETATM    7  C   UNL     1       6.294  29.315  56.795  1.00  0.00     0.010 A 
HETATM    8  C   UNL     1       7.543  28.696  57.023  1.00  0.00    -0.035 A 
HETATM    9  C   UNL     1       8.302  29.170  58.106  1.00  0.00     0.010 A 
HETATM   10  C   UNL     1       7.855  30.237  58.897  1.00  0.00     0.017 A 
BRANCH   8  11
HETATM   11  C   UNL     1       7.955  27.522  56.134  1.00  0.00     0.141 C 
HETATM   12  S   UNL     1       8.088  25.933  57.030  1.00  0.00    -0.149 SA
HETATM   13  C   UNL     1       6.332  25.573  57.284  1.00  0.00     0.076 C 
HETATM   14  C   UNL     1       5.605  25.358  55.967  1.00  0.00     0.020 C 
HETATM   15  C   UNL     1       5.484  26.623  55.131  1.00  0.00     0.076 C 
HETATM   16  S   UNL     1       7.074  27.289  54.555  1.00  0.00    -0.149 SA
ENDBRANCH   8  11
ENDBRANCH   2   5
BRANCH   1  17
HETATM   17  N   UNL     1       5.701  32.741  61.713  1.00  0.00    -0.262 N 
HETATM   18  C   UNL     1       5.168  32.466  62.954  1.00  0.00     0.286 C 
HETATM   19  O   UNL     1       4.913  31.314  63.306  1.00  0.00    -0.264 OA
HETATM   20  H   UNL     1       6.012  33.665  61.424  1.00  0.00     0.190 HD
BRANCH  18  21
HETATM   21  C   UNL     1       4.934  33.612  63.803  1.00  0.00     0.102 A 
HETATM   22  N   UNL     1       3.894  33.633  64.710  1.00  0.00    -0.361 N 
HETATM   23  C   UNL     1       3.873  34.824  65.383  1.00  0.00     0.088 A 
HETATM   24  H   UNL     1       3.246  32.864  64.838  1.00  0.00     0.165 HD
HETATM   25  C   UNL     1       4.914  35.591  64.915  1.00  0.00     0.019 A 
HETATM   26  C   UNL     1       5.582  34.832  63.922  1.00  0.00     0.036 A 
ENDBRANCH  18  21
ENDBRANCH   1  17
TORSDOF 4
ENDMDL
MODEL 10
REMARK VINA RESULT:      -6.8      4.744      7.041
REMARK  4 active torsions:
REMARK  status: ('A' for Active; 'I' for Inactive)
REMARK    1  A    between atoms: C_5  and  C_6 
REMARK       I    between atoms: C_6  and  N_7 
REMARK    2  A    between atoms: N_7  and  N_8 
REMARK       I    between atoms: N_8  and  C_9 
REMARK    3  A    between atoms: C_9  and  C_10 
REMARK    4  A    between atoms: C_13  and  C_14 
ROOT
HETATM    1  N   UNL     1       6.536  30.067  57.156  1.00  0.00    -0.263 N 
HETATM    2  C   UNL     1       6.915  28.966  56.417  1.00  0.00     0.270 C 
HETATM    3  O   UNL     1       7.791  28.186  56.788  1.00  0.00    -0.266 OA
HETATM    4  H   UNL     1       5.682  30.594  56.986  1.00  0.00     0.190 HD
ENDROOT
BRANCH   2   5
HETATM    5  C   UNL     1       6.186  28.740  55.141  1.00  0.00     0.033 A 
HETATM    6  C   UNL     1       4.848  29.100  54.973  1.00  0.00     0.017 A 
HETATM    7  C   UNL     1       4.213  28.873  53.746  1.00  0.00     0.010 A 
HETATM    8  C   UNL     1       4.892  28.299  52.648  1.00  0.00    -0.035 A 
HETATM    9  C   UNL     1       6.233  27.930  52.849  1.00  0.00     0.010 A 
HETATM   10  C   UNL     1       6.876  28.162  54.072  1.00  0.00     0.017 A 
BRANCH   8  11
HETATM   11  C   UNL     1       4.119  28.055  51.352  1.00  0.00     0.141 C 
HETATM   12  S   UNL     1       2.794  29.277  51.046  1.00  0.00    -0.149 SA
HETATM   13  C   UNL     1       3.796  30.713  50.584  1.00  0.00     0.076 C 
HETATM   14  C   UNL     1       4.573  30.467  49.300  1.00  0.00     0.020 C 
HETATM   15  C   UNL     1       5.673  29.429  49.450  1.00  0.00     0.076 C 
HETATM   16  S   UNL     1       5.071  27.756  49.826  1.00  0.00    -0.149 SA
ENDBRANCH   8  11
ENDBRANCH   2   5
BRANCH   1  17
HETATM   17  N   UNL     1       7.128  30.248  58.412  1.00  0.00    -0.262 N 
HETATM   18  C   UNL     1       7.095  31.497  58.994  1.00  0.00     0.286 C 
HETATM   19  O   UNL     1       6.592  32.464  58.420  1.00  0.00    -0.264 OA
HETATM   20  H   UNL     1       7.446  29.411  58.891  1.00  0.00     0.190 HD
BRANCH  18  21
HETATM   21  C   UNL     1       7.683  31.591  60.311  1.00  0.00     0.102 A 
HETATM   22  N   UNL     1       7.024  31.118  61.427  1.00  0.00    -0.361 N 
HETATM   23  C   UNL     1       7.776  31.332  62.550  1.00  0.00     0.088 A 
HETATM   24  H   UNL     1       6.110  30.682  61.396  1.00  0.00     0.165 HD
HETATM   25  C   UNL     1       8.943  31.948  62.165  1.00  0.00     0.019 A 
HETATM   26  C   UNL     1       8.887  32.113  60.758  1.00  0.00     0.036 A 
ENDBRANCH  18  21
ENDBRANCH   1  17
TORSDOF 4
ENDMDL
