MODEL 1
REMARK VINA RESULT:      -8.9      0.000      0.000
REMARK  6 active torsions:
REMARK  status: ('A' for Active; 'I' for Inactive)
REMARK    1  A    between atoms: C_3  and  C_4 
REMARK    2  A    between atoms: C_9  and  C_10 
REMARK    3  A    between atoms: C_10  and  O_11 
REMARK    4  A    between atoms: C_10  and  C_12 
REMARK    5  A    between atoms: C_12  and  N_13 
REMARK    6  A    between atoms: C_17  and  C_18 
ROOT
HETATM    1  C   UNL     1       5.718  25.064  53.444  1.00  0.00     0.271 C 
ENDROOT
BRANCH   1   2
HETATM    2  C   UNL     1       7.234  24.835  53.696  1.00  0.00     0.177 C 
BRANCH   2   3
HETATM    3  C   UNL     1       7.651  23.378  53.801  1.00  0.00    -0.027 A 
HETATM    4  C   UNL     1       7.879  22.790  55.060  1.00  0.00     0.025 A 
HETATM    5  C   UNL     1       8.218  21.429  55.189  1.00  0.00     0.048 A 
HETATM    6  C   UNL     1       8.374  20.657  54.034  1.00  0.00     0.016 A 
HETATM    7  C   UNL     1       8.200  21.233  52.779  1.00  0.00     0.001 A 
HETATM    8  C   UNL     1       7.842  22.580  52.662  1.00  0.00     0.010 A 
BRANCH   5   9
HETATM    9  C   UNL     1       8.374  20.823  56.566  1.00  0.00     0.417 C 
HETATM   10  F   UNL     1       8.350  21.731  57.576  1.00  0.00    -0.166 F 
HETATM   11  F   UNL     1       7.407  19.908  56.840  1.00  0.00    -0.166 F 
HETATM   12  F   UNL     1       9.559  20.158  56.680  1.00  0.00    -0.166 F 
ENDBRANCH   5   9
ENDBRANCH   2   3
BRANCH   2  13
HETATM   13  O   UNL     1       7.910  25.508  52.622  1.00  0.00    -0.389 OA
HETATM   14  H   UNL     1       8.802  25.111  52.564  1.00  0.00     0.210 HD
ENDBRANCH   2  13
ENDBRANCH   1   2
BRANCH   1  15
HETATM   15  N   UNL     1       5.070  25.902  54.561  1.00  0.00    -0.068 N 
HETATM   16  H   UNL     1       4.078  25.605  54.537  1.00  0.00     0.280 HD
HETATM   17  C   UNL     1       5.600  25.567  55.933  1.00  0.00     0.235 C 
HETATM   18  C   UNL     1       4.958  26.453  56.991  1.00  0.00     0.037 C 
HETATM   19  C   UNL     1       5.173  27.943  56.700  1.00  0.00     0.025 C 
HETATM   20  C   UNL     1       4.563  28.232  55.322  1.00  0.00     0.037 C 
HETATM   21  C   UNL     1       5.166  27.368  54.223  1.00  0.00     0.235 C 
BRANCH  19  22
HETATM   22  C   UNL     1       6.617  28.361  56.832  1.00  0.00    -0.018 A 
HETATM   23  C   UNL     1       7.601  27.885  57.735  1.00  0.00     0.147 A 
HETATM   24  N   UNL     1       8.768  28.514  57.608  1.00  0.00    -0.187 NA
HETATM   25  N   UNL     1       8.591  29.317  56.551  1.00  0.00    -0.289 N 
HETATM   26  H   UNL     1       9.379  29.868  56.223  1.00  0.00     0.188 HD
HETATM   27  C   UNL     1       7.315  29.274  56.062  1.00  0.00     0.118 A 
ENDBRANCH  19  22
ENDBRANCH   1  15
TORSDOF 6
ENDMDL
MODEL 2
REMARK VINA RESULT:      -8.7      1.717      2.303
REMARK  6 active torsions:
REMARK  status: ('A' for Active; 'I' for Inactive)
REMARK    1  A    between atoms: C_3  and  C_4 
REMARK    2  A    between atoms: C_9  and  C_10 
REMARK    3  A    between atoms: C_10  and  O_11 
REMARK    4  A    between atoms: C_10  and  C_12 
REMARK    5  A    between atoms: C_12  and  N_13 
REMARK    6  A    between atoms: C_17  and  C_18 
ROOT
HETATM    1  C   UNL     1       7.058  26.534  54.349  1.00  0.00     0.271 C 
ENDROOT
BRANCH   1   2
HETATM    2  C   UNL     1       6.216  25.249  54.121  1.00  0.00     0.177 C 
BRANCH   2   3
HETATM    3  C   UNL     1       7.024  23.967  54.012  1.00  0.00    -0.027 A 
HETATM    4  C   UNL     1       7.290  23.192  55.157  1.00  0.00     0.025 A 
HETATM    5  C   UNL     1       7.994  21.974  55.077  1.00  0.00     0.048 A 
HETATM    6  C   UNL     1       8.477  21.551  53.835  1.00  0.00     0.016 A 
HETATM    7  C   UNL     1       8.265  22.328  52.700  1.00  0.00     0.001 A 
HETATM    8  C   UNL     1       7.547  23.525  52.786  1.00  0.00     0.010 A 
BRANCH   5   9
HETATM    9  C   UNL     1       8.186  21.136  56.322  1.00  0.00     0.417 C 
HETATM   10  F   UNL     1       9.309  20.372  56.306  1.00  0.00    -0.166 F 
HETATM   11  F   UNL     1       8.246  21.894  57.449  1.00  0.00    -0.166 F 
HETATM   12  F   UNL     1       7.143  20.278  56.503  1.00  0.00    -0.166 F 
ENDBRANCH   5   9
ENDBRANCH   2   3
BRANCH   2  13
HETATM   13  O   UNL     1       5.282  25.201  55.212  1.00  0.00    -0.389 OA
HETATM   14  H   UNL     1       4.865  26.085  55.258  1.00  0.00     0.210 HD
ENDBRANCH   2  13
ENDBRANCH   1   2
BRANCH   1  15
HETATM   15  N   UNL     1       6.861  27.106  55.765  1.00  0.00    -0.068 N 
HETATM   16  H   UNL     1       5.983  26.658  56.083  1.00  0.00     0.280 HD
HETATM   17  C   UNL     1       7.945  26.689  56.727  1.00  0.00     0.235 C 
HETATM   18  C   UNL     1       7.724  27.316  58.096  1.00  0.00     0.037 C 
HETATM   19  C   UNL     1       7.655  28.846  58.021  1.00  0.00     0.025 C 
HETATM   20  C   UNL     1       6.500  29.207  57.078  1.00  0.00     0.037 C 
HETATM   21  C   UNL     1       6.666  28.599  55.692  1.00  0.00     0.235 C 
BRANCH  19  22
HETATM   22  C   UNL     1       8.975  29.473  57.643  1.00  0.00    -0.018 A 
HETATM   23  C   UNL     1       9.915  29.046  56.672  1.00  0.00     0.147 A 
HETATM   24  N   UNL     1      11.003  29.811  56.633  1.00  0.00    -0.187 NA
HETATM   25  N   UNL     1      10.733  30.804  57.490  1.00  0.00    -0.289 N 
HETATM   26  H   UNL     1      11.408  31.557  57.589  1.00  0.00     0.188 HD
HETATM   27  C   UNL     1       9.539  30.638  58.132  1.00  0.00     0.118 A 
ENDBRANCH  19  22
ENDBRANCH   1  15
TORSDOF 6
ENDMDL
MODEL 3
REMARK VINA RESULT:      -8.6      2.158      3.735
REMARK  6 active torsions:
REMARK  status: ('A' for Active; 'I' for Inactive)
REMARK    1  A    between atoms: C_3  and  C_4 
REMARK    2  A    between atoms: C_9  and  C_10 
REMARK    3  A    between atoms: C_10  and  O_11 
REMARK    4  A    between atoms: C_10  and  C_12 
REMARK    5  A    between atoms: C_12  and  N_13 
REMARK    6  A    between atoms: C_17  and  C_18 
ROOT
HETATM    1  C   UNL     1       8.309  25.901  57.088  1.00  0.00     0.271 C 
ENDROOT
BRANCH   1   2
HETATM    2  C   UNL     1       7.544  24.586  56.777  1.00  0.00     0.177 C 
BRANCH   2   3
HETATM    3  C   UNL     1       7.679  24.091  55.347  1.00  0.00    -0.027 A 
HETATM    4  C   UNL     1       7.913  22.728  55.083  1.00  0.00     0.025 A 
HETATM    5  C   UNL     1       7.993  22.233  53.767  1.00  0.00     0.048 A 
HETATM    6  C   UNL     1       7.882  23.129  52.699  1.00  0.00     0.016 A 
HETATM    7  C   UNL     1       7.699  24.488  52.941  1.00  0.00     0.001 A 
HETATM    8  C   UNL     1       7.599  24.965  54.251  1.00  0.00     0.010 A 
BRANCH   5   9
HETATM    9  C   UNL     1       8.165  20.749  53.532  1.00  0.00     0.417 C 
HETATM   10  F   UNL     1       9.336  20.417  52.930  1.00  0.00    -0.166 F 
HETATM   11  F   UNL     1       8.103  20.034  54.687  1.00  0.00    -0.166 F 
HETATM   12  F   UNL     1       7.174  20.258  52.736  1.00  0.00    -0.166 F 
ENDBRANCH   5   9
ENDBRANCH   2   3
BRANCH   2  13
HETATM   13  O   UNL     1       8.032  23.623  57.725  1.00  0.00    -0.389 OA
HETATM   14  H   UNL     1       8.334  24.131  58.505  1.00  0.00     0.210 HD
ENDBRANCH   2  13
ENDBRANCH   1   2
BRANCH   1  15
HETATM   15  N   UNL     1       7.400  27.137  56.967  1.00  0.00    -0.068 N 
HETATM   16  H   UNL     1       7.524  27.615  57.878  1.00  0.00     0.280 HD
HETATM   17  C   UNL     1       7.852  28.101  55.897  1.00  0.00     0.235 C 
HETATM   18  C   UNL     1       6.895  29.280  55.792  1.00  0.00     0.037 C 
HETATM   19  C   UNL     1       5.457  28.828  55.511  1.00  0.00     0.025 C 
HETATM   20  C   UNL     1       5.036  27.902  56.660  1.00  0.00     0.037 C 
HETATM   21  C   UNL     1       5.964  26.705  56.815  1.00  0.00     0.235 C 
BRANCH  19  22
HETATM   22  C   UNL     1       5.293  28.219  54.141  1.00  0.00    -0.018 A 
HETATM   23  C   UNL     1       6.194  28.237  53.046  1.00  0.00     0.147 A 
HETATM   24  N   UNL     1       5.705  27.640  51.963  1.00  0.00    -0.187 NA
HETATM   25  N   UNL     1       4.537  27.129  52.372  1.00  0.00    -0.289 N 
HETATM   26  H   UNL     1       3.996  26.569  51.719  1.00  0.00     0.188 HD
HETATM   27  C   UNL     1       4.238  27.462  53.663  1.00  0.00     0.118 A 
ENDBRANCH  19  22
ENDBRANCH   1  15
TORSDOF 6
ENDMDL
MODEL 4
REMARK VINA RESULT:      -8.4      1.767      2.708
REMARK  6 active torsions:
REMARK  status: ('A' for Active; 'I' for Inactive)
REMARK    1  A    between atoms: C_3  and  C_4 
REMARK    2  A    between atoms: C_9  and  C_10 
REMARK    3  A    between atoms: C_10  and  O_11 
REMARK    4  A    between atoms: C_10  and  C_12 
REMARK    5  A    between atoms: C_12  and  N_13 
REMARK    6  A    between atoms: C_17  and  C_18 
ROOT
HETATM    1  C   UNL     1       5.979  25.814  55.481  1.00  0.00     0.271 C 
ENDROOT
BRANCH   1   2
HETATM    2  C   UNL     1       5.966  25.100  54.102  1.00  0.00     0.177 C 
BRANCH   2   3
HETATM    3  C   UNL     1       6.867  23.881  54.006  1.00  0.00    -0.027 A 
HETATM    4  C   UNL     1       7.200  23.147  55.160  1.00  0.00     0.025 A 
HETATM    5  C   UNL     1       7.993  21.984  55.093  1.00  0.00     0.048 A 
HETATM    6  C   UNL     1       8.497  21.579  53.853  1.00  0.00     0.016 A 
HETATM    7  C   UNL     1       8.218  22.319  52.708  1.00  0.00     0.001 A 
HETATM    8  C   UNL     1       7.412  23.459  52.782  1.00  0.00     0.010 A 
BRANCH   5   9
HETATM    9  C   UNL     1       8.258  21.184  56.349  1.00  0.00     0.417 C 
HETATM   10  F   UNL     1       9.455  20.541  56.353  1.00  0.00    -0.166 F 
HETATM   11  F   UNL     1       8.225  21.955  57.468  1.00  0.00    -0.166 F 
HETATM   12  F   UNL     1       7.308  20.223  56.529  1.00  0.00    -0.166 F 
ENDBRANCH   5   9
ENDBRANCH   2   3
BRANCH   2  13
HETATM   13  O   UNL     1       4.590  24.769  53.852  1.00  0.00    -0.389 OA
HETATM   14  H   UNL     1       4.068  25.211  54.552  1.00  0.00     0.210 HD
ENDBRANCH   2  13
ENDBRANCH   1   2
BRANCH   1  15
HETATM   15  N   UNL     1       7.214  26.717  55.649  1.00  0.00    -0.068 N 
HETATM   16  H   UNL     1       7.950  26.215  55.120  1.00  0.00     0.280 HD
HETATM   17  C   UNL     1       7.049  28.070  55.002  1.00  0.00     0.235 C 
HETATM   18  C   UNL     1       8.280  28.935  55.235  1.00  0.00     0.037 C 
HETATM   19  C   UNL     1       8.586  29.106  56.728  1.00  0.00     0.025 C 
HETATM   20  C   UNL     1       8.802  27.704  57.314  1.00  0.00     0.037 C 
HETATM   21  C   UNL     1       7.601  26.792  57.104  1.00  0.00     0.235 C 
BRANCH  19  22
HETATM   22  C   UNL     1       7.540  29.919  57.450  1.00  0.00    -0.018 A 
HETATM   23  C   UNL     1       6.274  30.354  56.983  1.00  0.00     0.147 A 
HETATM   24  N   UNL     1       5.622  31.099  57.872  1.00  0.00    -0.187 NA
HETATM   25  N   UNL     1       6.400  31.061  58.961  1.00  0.00    -0.289 N 
HETATM   26  H   UNL     1       6.076  31.522  59.806  1.00  0.00     0.188 HD
HETATM   27  C   UNL     1       7.567  30.381  58.754  1.00  0.00     0.118 A 
ENDBRANCH  19  22
ENDBRANCH   1  15
TORSDOF 6
ENDMDL
MODEL 5
REMARK VINA RESULT:      -8.4      1.546      2.139
REMARK  6 active torsions:
REMARK  status: ('A' for Active; 'I' for Inactive)
REMARK    1  A    between atoms: C_3  and  C_4 
REMARK    2  A    between atoms: C_9  and  C_10 
REMARK    3  A    between atoms: C_10  and  O_11 
REMARK    4  A    between atoms: C_10  and  C_12 
REMARK    5  A    between atoms: C_12  and  N_13 
REMARK    6  A    between atoms: C_17  and  C_18 
ROOT
HETATM    1  C   UNL     1       5.394  25.506  53.154  1.00  0.00     0.271 C 
ENDROOT
BRANCH   1   2
HETATM    2  C   UNL     1       6.942  25.429  53.044  1.00  0.00     0.177 C 
BRANCH   2   3
HETATM    3  C   UNL     1       7.588  24.337  53.879  1.00  0.00    -0.027 A 
HETATM    4  C   UNL     1       7.623  23.009  53.413  1.00  0.00     0.025 A 
HETATM    5  C   UNL     1       8.259  21.986  54.143  1.00  0.00     0.048 A 
HETATM    6  C   UNL     1       8.829  22.293  55.382  1.00  0.00     0.016 A 
HETATM    7  C   UNL     1       8.763  23.591  55.882  1.00  0.00     0.001 A 
HETATM    8  C   UNL     1       8.148  24.603  55.139  1.00  0.00     0.010 A 
BRANCH   5   9
HETATM    9  C   UNL     1       8.341  20.591  53.565  1.00  0.00     0.417 C 
HETATM   10  F   UNL     1       9.386  20.404  52.718  1.00  0.00    -0.166 F 
HETATM   11  F   UNL     1       8.446  19.638  54.529  1.00  0.00    -0.166 F 
HETATM   12  F   UNL     1       7.217  20.284  52.858  1.00  0.00    -0.166 F 
ENDBRANCH   5   9
ENDBRANCH   2   3
BRANCH   2  13
HETATM   13  O   UNL     1       7.221  25.267  51.643  1.00  0.00    -0.389 OA
HETATM   14  H   UNL     1       8.150  24.967  51.579  1.00  0.00     0.210 HD
ENDBRANCH   2  13
ENDBRANCH   1   2
BRANCH   1  15
HETATM   15  N   UNL     1       4.940  26.666  54.057  1.00  0.00    -0.068 N 
HETATM   16  H   UNL     1       3.927  26.745  53.854  1.00  0.00     0.280 HD
HETATM   17  C   UNL     1       5.073  26.356  55.528  1.00  0.00     0.235 C 
HETATM   18  C   UNL     1       4.651  27.551  56.372  1.00  0.00     0.037 C 
HETATM   19  C   UNL     1       5.459  28.809  56.030  1.00  0.00     0.025 C 
HETATM   20  C   UNL     1       5.236  29.105  54.541  1.00  0.00     0.037 C 
HETATM   21  C   UNL     1       5.637  27.939  53.648  1.00  0.00     0.235 C 
BRANCH  19  22
HETATM   22  C   UNL     1       6.912  28.695  56.423  1.00  0.00    -0.018 A 
HETATM   23  C   UNL     1       7.483  28.019  57.530  1.00  0.00     0.147 A 
HETATM   24  N   UNL     1       8.804  28.165  57.601  1.00  0.00    -0.187 NA
HETATM   25  N   UNL     1       9.117  28.835  56.485  1.00  0.00    -0.289 N 
HETATM   26  H   UNL     1      10.097  29.019  56.288  1.00  0.00     0.188 HD
HETATM   27  C   UNL     1       8.018  29.189  55.755  1.00  0.00     0.118 A 
ENDBRANCH  19  22
ENDBRANCH   1  15
TORSDOF 6
ENDMDL
MODEL 6
REMARK VINA RESULT:      -8.3      2.629      4.368
REMARK  6 active torsions:
REMARK  status: ('A' for Active; 'I' for Inactive)
REMARK    1  A    between atoms: C_3  and  C_4 
REMARK    2  A    between atoms: C_9  and  C_10 
REMARK    3  A    between atoms: C_10  and  O_11 
REMARK    4  A    between atoms: C_10  and  C_12 
REMARK    5  A    between atoms: C_12  and  N_13 
REMARK    6  A    between atoms: C_17  and  C_18 
ROOT
HETATM    1  C   UNL     1       8.476  25.588  56.204  1.00  0.00     0.271 C 
ENDROOT
BRANCH   1   2
HETATM    2  C   UNL     1       7.922  24.468  57.127  1.00  0.00     0.177 C 
BRANCH   2   3
HETATM    3  C   UNL     1       8.083  23.057  56.586  1.00  0.00    -0.027 A 
HETATM    4  C   UNL     1       7.969  22.804  55.206  1.00  0.00     0.025 A 
HETATM    5  C   UNL     1       8.163  21.515  54.673  1.00  0.00     0.048 A 
HETATM    6  C   UNL     1       8.432  20.455  55.544  1.00  0.00     0.016 A 
HETATM    7  C   UNL     1       8.502  20.677  56.917  1.00  0.00     0.001 A 
HETATM    8  C   UNL     1       8.328  21.965  57.434  1.00  0.00     0.010 A 
BRANCH   5   9
HETATM    9  C   UNL     1       8.108  21.306  53.176  1.00  0.00     0.417 C 
HETATM   10  F   UNL     1       9.259  20.819  52.643  1.00  0.00    -0.166 F 
HETATM   11  F   UNL     1       7.116  20.451  52.810  1.00  0.00    -0.166 F 
HETATM   12  F   UNL     1       7.851  22.476  52.525  1.00  0.00    -0.166 F 
ENDBRANCH   5   9
ENDBRANCH   2   3
BRANCH   2  13
HETATM   13  O   UNL     1       8.592  24.638  58.386  1.00  0.00    -0.389 OA
HETATM   14  H   UNL     1       9.459  24.193  58.301  1.00  0.00     0.210 HD
ENDBRANCH   2  13
ENDBRANCH   1   2
BRANCH   1  15
HETATM   15  N   UNL     1       7.397  26.626  55.848  1.00  0.00    -0.068 N 
HETATM   16  H   UNL     1       7.501  27.343  56.588  1.00  0.00     0.280 HD
HETATM   17  C   UNL     1       7.650  27.311  54.528  1.00  0.00     0.235 C 
HETATM   18  C   UNL     1       6.532  28.293  54.206  1.00  0.00     0.037 C 
HETATM   19  C   UNL     1       5.158  27.611  54.184  1.00  0.00     0.025 C 
HETATM   20  C   UNL     1       4.935  26.986  55.568  1.00  0.00     0.037 C 
HETATM   21  C   UNL     1       6.030  25.998  55.945  1.00  0.00     0.235 C 
BRANCH  19  22
HETATM   22  C   UNL     1       5.007  26.639  53.040  1.00  0.00    -0.018 A 
HETATM   23  C   UNL     1       5.317  26.825  51.669  1.00  0.00     0.147 A 
HETATM   24  N   UNL     1       5.011  25.768  50.921  1.00  0.00    -0.187 NA
HETATM   25  N   UNL     1       4.609  24.848  51.807  1.00  0.00    -0.289 N 
HETATM   26  H   UNL     1       4.371  23.920  51.469  1.00  0.00     0.188 HD
HETATM   27  C   UNL     1       4.573  25.327  53.086  1.00  0.00     0.118 A 
ENDBRANCH  19  22
ENDBRANCH   1  15
TORSDOF 6
ENDMDL
MODEL 7
REMARK VINA RESULT:      -8.3      3.259      5.159
REMARK  6 active torsions:
REMARK  status: ('A' for Active; 'I' for Inactive)
REMARK    1  A    between atoms: C_3  and  C_4 
REMARK    2  A    between atoms: C_9  and  C_10 
REMARK    3  A    between atoms: C_10  and  O_11 
REMARK    4  A    between atoms: C_10  and  C_12 
REMARK    5  A    between atoms: C_12  and  N_13 
REMARK    6  A    between atoms: C_17  and  C_18 
ROOT
HETATM    1  C   UNL     1       4.897  25.435  53.355  1.00  0.00     0.271 C 
ENDROOT
BRANCH   1   2
HETATM    2  C   UNL     1       5.976  25.206  54.449  1.00  0.00     0.177 C 
BRANCH   2   3
HETATM    3  C   UNL     1       6.861  23.991  54.228  1.00  0.00    -0.027 A 
HETATM    4  C   UNL     1       7.204  23.153  55.306  1.00  0.00     0.025 A 
HETATM    5  C   UNL     1       7.982  21.994  55.122  1.00  0.00     0.048 A 
HETATM    6  C   UNL     1       8.460  21.695  53.842  1.00  0.00     0.016 A 
HETATM    7  C   UNL     1       8.170  22.538  52.772  1.00  0.00     0.001 A 
HETATM    8  C   UNL     1       7.380  23.675  52.962  1.00  0.00     0.010 A 
BRANCH   5   9
HETATM    9  C   UNL     1       8.259  21.081  56.296  1.00  0.00     0.417 C 
HETATM   10  F   UNL     1       9.412  20.372  56.186  1.00  0.00    -0.166 F 
HETATM   11  F   UNL     1       8.330  21.761  57.472  1.00  0.00    -0.166 F 
HETATM   12  F   UNL     1       7.261  20.166  56.455  1.00  0.00    -0.166 F 
ENDBRANCH   5   9
ENDBRANCH   2   3
BRANCH   2  13
HETATM   13  O   UNL     1       6.739  26.422  54.498  1.00  0.00    -0.389 OA
HETATM   14  H   UNL     1       7.620  26.182  54.850  1.00  0.00     0.210 HD
ENDBRANCH   2  13
ENDBRANCH   1   2
BRANCH   1  15
HETATM   15  N   UNL     1       5.106  26.767  52.612  1.00  0.00    -0.068 N 
HETATM   16  H   UNL     1       5.910  27.193  53.108  1.00  0.00     0.280 HD
HETATM   17  C   UNL     1       5.521  26.581  51.173  1.00  0.00     0.235 C 
HETATM   18  C   UNL     1       5.672  27.925  50.476  1.00  0.00     0.037 C 
HETATM   19  C   UNL     1       4.383  28.754  50.543  1.00  0.00     0.025 C 
HETATM   20  C   UNL     1       4.048  28.959  52.027  1.00  0.00     0.037 C 
HETATM   21  C   UNL     1       3.891  27.643  52.776  1.00  0.00     0.235 C 
BRANCH  19  22
HETATM   22  C   UNL     1       3.259  28.152  49.737  1.00  0.00    -0.018 A 
HETATM   23  C   UNL     1       3.320  27.150  48.736  1.00  0.00     0.147 A 
HETATM   24  N   UNL     1       2.135  26.889  48.191  1.00  0.00    -0.187 NA
HETATM   25  N   UNL     1       1.278  27.629  48.906  1.00  0.00    -0.289 N 
HETATM   26  H   UNL     1       0.285  27.551  48.706  1.00  0.00     0.188 HD
HETATM   27  C   UNL     1       1.904  28.415  49.832  1.00  0.00     0.118 A 
ENDBRANCH  19  22
ENDBRANCH   1  15
TORSDOF 6
ENDMDL
MODEL 8
REMARK VINA RESULT:      -8.2      3.121      4.182
REMARK  6 active torsions:
REMARK  status: ('A' for Active; 'I' for Inactive)
REMARK    1  A    between atoms: C_3  and  C_4 
REMARK    2  A    between atoms: C_9  and  C_10 
REMARK    3  A    between atoms: C_10  and  O_11 
REMARK    4  A    between atoms: C_10  and  C_12 
REMARK    5  A    between atoms: C_12  and  N_13 
REMARK    6  A    between atoms: C_17  and  C_18 
ROOT
HETATM    1  C   UNL     1       6.211  26.639  54.116  1.00  0.00     0.271 C 
ENDROOT
BRANCH   1   2
HETATM    2  C   UNL     1       5.942  25.349  54.938  1.00  0.00     0.177 C 
BRANCH   2   3
HETATM    3  C   UNL     1       6.806  24.158  54.558  1.00  0.00    -0.027 A 
HETATM    4  C   UNL     1       7.181  23.211  55.529  1.00  0.00     0.025 A 
HETATM    5  C   UNL     1       7.939  22.071  55.195  1.00  0.00     0.048 A 
HETATM    6  C   UNL     1       8.365  21.904  53.874  1.00  0.00     0.016 A 
HETATM    7  C   UNL     1       8.043  22.856  52.910  1.00  0.00     0.001 A 
HETATM    8  C   UNL     1       7.273  23.972  53.247  1.00  0.00     0.010 A 
BRANCH   5   9
HETATM    9  C   UNL     1       8.250  21.040  56.257  1.00  0.00     0.417 C 
HETATM   10  F   UNL     1       9.403  20.355  56.041  1.00  0.00    -0.166 F 
HETATM   11  F   UNL     1       8.349  21.590  57.497  1.00  0.00    -0.166 F 
HETATM   12  F   UNL     1       7.261  20.106  56.342  1.00  0.00    -0.166 F 
ENDBRANCH   5   9
ENDBRANCH   2   3
BRANCH   2  13
HETATM   13  O   UNL     1       6.123  25.724  56.314  1.00  0.00    -0.389 OA
HETATM   14  H   UNL     1       6.474  24.934  56.772  1.00  0.00     0.210 HD
ENDBRANCH   2  13
ENDBRANCH   1   2
BRANCH   1  15
HETATM   15  N   UNL     1       5.062  26.948  53.140  1.00  0.00    -0.068 N 
HETATM   16  H   UNL     1       4.393  26.175  53.306  1.00  0.00     0.280 HD
HETATM   17  C   UNL     1       4.342  28.234  53.463  1.00  0.00     0.235 C 
HETATM   18  C   UNL     1       3.247  28.512  52.444  1.00  0.00     0.037 C 
HETATM   19  C   UNL     1       3.796  28.569  51.013  1.00  0.00     0.025 C 
HETATM   20  C   UNL     1       4.462  27.216  50.724  1.00  0.00     0.037 C 
HETATM   21  C   UNL     1       5.564  26.884  51.720  1.00  0.00     0.235 C 
BRANCH  19  22
HETATM   22  C   UNL     1       4.696  29.758  50.779  1.00  0.00    -0.018 A 
HETATM   23  C   UNL     1       5.753  29.902  49.846  1.00  0.00     0.147 A 
HETATM   24  N   UNL     1       6.374  31.076  49.945  1.00  0.00    -0.187 NA
HETATM   25  N   UNL     1       5.658  31.747  50.856  1.00  0.00    -0.289 N 
HETATM   26  H   UNL     1       5.913  32.708  51.061  1.00  0.00     0.188 HD
HETATM   27  C   UNL     1       4.653  30.995  51.397  1.00  0.00     0.118 A 
ENDBRANCH  19  22
ENDBRANCH   1  15
TORSDOF 6
ENDMDL
MODEL 9
REMARK VINA RESULT:      -8.2      2.208      3.260
REMARK  6 active torsions:
REMARK  status: ('A' for Active; 'I' for Inactive)
REMARK    1  A    between atoms: C_3  and  C_4 
REMARK    2  A    between atoms: C_9  and  C_10 
REMARK    3  A    between atoms: C_10  and  O_11 
REMARK    4  A    between atoms: C_10  and  C_12 
REMARK    5  A    between atoms: C_12  and  N_13 
REMARK    6  A    between atoms: C_17  and  C_18 
ROOT
HETATM    1  C   UNL     1       6.854  26.241  57.015  1.00  0.00     0.271 C 
ENDROOT
BRANCH   1   2
HETATM    2  C   UNL     1       6.049  25.531  55.892  1.00  0.00     0.177 C 
BRANCH   2   3
HETATM    3  C   UNL     1       6.760  24.356  55.242  1.00  0.00    -0.027 A 
HETATM    4  C   UNL     1       7.251  23.297  56.028  1.00  0.00     0.025 A 
HETATM    5  C   UNL     1       7.869  22.172  55.448  1.00  0.00     0.048 A 
HETATM    6  C   UNL     1       8.038  22.131  54.061  1.00  0.00     0.016 A 
HETATM    7  C   UNL     1       7.601  23.192  53.271  1.00  0.00     0.001 A 
HETATM    8  C   UNL     1       6.969  24.294  53.855  1.00  0.00     0.010 A 
BRANCH   5   9
HETATM    9  C   UNL     1       8.309  21.022  56.326  1.00  0.00     0.417 C 
HETATM   10  F   UNL     1       9.537  20.529  56.018  1.00  0.00    -0.166 F 
HETATM   11  F   UNL     1       8.345  21.362  57.643  1.00  0.00    -0.166 F 
HETATM   12  F   UNL     1       7.443  19.973  56.235  1.00  0.00    -0.166 F 
ENDBRANCH   5   9
ENDBRANCH   2   3
BRANCH   2  13
HETATM   13  O   UNL     1       4.807  25.137  56.497  1.00  0.00    -0.389 OA
HETATM   14  H   UNL     1       4.208  25.908  56.426  1.00  0.00     0.210 HD
ENDBRANCH   2  13
ENDBRANCH   1   2
BRANCH   1  15
HETATM   15  N   UNL     1       7.344  27.633  56.579  1.00  0.00    -0.068 N 
HETATM   16  H   UNL     1       7.392  27.557  55.547  1.00  0.00     0.280 HD
HETATM   17  C   UNL     1       6.361  28.732  56.896  1.00  0.00     0.235 C 
HETATM   18  C   UNL     1       6.914  30.089  56.483  1.00  0.00     0.037 C 
HETATM   19  C   UNL     1       8.261  30.387  57.153  1.00  0.00     0.025 C 
HETATM   20  C   UNL     1       9.231  29.270  56.745  1.00  0.00     0.037 C 
HETATM   21  C   UNL     1       8.724  27.887  57.129  1.00  0.00     0.235 C 
BRANCH  19  22
HETATM   22  C   UNL     1       8.142  30.582  58.644  1.00  0.00    -0.018 A 
HETATM   23  C   UNL     1       9.123  30.383  59.648  1.00  0.00     0.147 A 
HETATM   24  N   UNL     1       8.661  30.605  60.876  1.00  0.00    -0.187 NA
HETATM   25  N   UNL     1       7.417  31.058  60.678  1.00  0.00    -0.289 N 
HETATM   26  H   UNL     1       6.873  31.352  61.484  1.00  0.00     0.188 HD
HETATM   27  C   UNL     1       7.054  31.048  59.360  1.00  0.00     0.118 A 
ENDBRANCH  19  22
ENDBRANCH   1  15
TORSDOF 6
ENDMDL
MODEL 10
REMARK VINA RESULT:      -8.1      4.008      6.048
REMARK  6 active torsions:
REMARK  status: ('A' for Active; 'I' for Inactive)
REMARK    1  A    between atoms: C_3  and  C_4 
REMARK    2  A    between atoms: C_9  and  C_10 
REMARK    3  A    between atoms: C_10  and  O_11 
REMARK    4  A    between atoms: C_10  and  C_12 
REMARK    5  A    between atoms: C_12  and  N_13 
REMARK    6  A    between atoms: C_17  and  C_18 
ROOT
HETATM    1  C   UNL     1       4.785  27.164  53.315  1.00  0.00     0.271 C 
ENDROOT
BRANCH   1   2
HETATM    2  C   UNL     1       5.143  25.699  52.946  1.00  0.00     0.177 C 
BRANCH   2   3
HETATM    3  C   UNL     1       6.226  25.070  53.807  1.00  0.00    -0.027 A 
HETATM    4  C   UNL     1       6.732  23.793  53.497  1.00  0.00     0.025 A 
HETATM    5  C   UNL     1       7.770  23.208  54.248  1.00  0.00     0.048 A 
HETATM    6  C   UNL     1       8.277  23.896  55.354  1.00  0.00     0.016 A 
HETATM    7  C   UNL     1       7.757  25.139  55.704  1.00  0.00     0.001 A 
HETATM    8  C   UNL     1       6.741  25.721  54.940  1.00  0.00     0.010 A 
BRANCH   5   9
HETATM    9  C   UNL     1       8.335  21.869  53.830  1.00  0.00     0.417 C 
HETATM   10  F   UNL     1       8.019  21.508  52.559  1.00  0.00    -0.166 F 
HETATM   11  F   UNL     1       9.691  21.830  53.920  1.00  0.00    -0.166 F 
HETATM   12  F   UNL     1       7.879  20.868  54.636  1.00  0.00    -0.166 F 
ENDBRANCH   5   9
ENDBRANCH   2   3
BRANCH   2  13
HETATM   13  O   UNL     1       3.908  24.969  53.024  1.00  0.00    -0.389 OA
HETATM   14  H   UNL     1       4.111  24.128  53.482  1.00  0.00     0.210 HD
ENDBRANCH   2  13
ENDBRANCH   1   2
BRANCH   1  15
HETATM   15  N   UNL     1       4.913  28.108  52.105  1.00  0.00    -0.068 N 
HETATM   16  H   UNL     1       5.667  28.759  52.389  1.00  0.00     0.280 HD
HETATM   17  C   UNL     1       5.382  27.405  50.855  1.00  0.00     0.235 C 
HETATM   18  C   UNL     1       5.448  28.374  49.683  1.00  0.00     0.037 C 
HETATM   19  C   UNL     1       4.098  29.054  49.423  1.00  0.00     0.025 C 
HETATM   20  C   UNL     1       3.706  29.798  50.707  1.00  0.00     0.037 C 
HETATM   21  C   UNL     1       3.629  28.876  51.915  1.00  0.00     0.235 C 
BRANCH  19  22
HETATM   22  C   UNL     1       3.047  28.093  48.924  1.00  0.00    -0.018 A 
HETATM   23  C   UNL     1       3.219  26.871  48.227  1.00  0.00     0.147 A 
HETATM   24  N   UNL     1       2.066  26.298  47.894  1.00  0.00    -0.187 NA
HETATM   25  N   UNL     1       1.139  27.075  48.467  1.00  0.00    -0.289 N 
HETATM   26  H   UNL     1       0.163  26.800  48.396  1.00  0.00     0.188 HD
HETATM   27  C   UNL     1       1.675  28.171  49.082  1.00  0.00     0.118 A 
ENDBRANCH  19  22
ENDBRANCH   1  15
TORSDOF 6
ENDMDL
