MODEL 1
REMARK VINA RESULT:     -10.0      0.000      0.000
REMARK  9 active torsions:
REMARK  status: ('A' for Active; 'I' for Inactive)
REMARK    1  A    between atoms: C_3  and  C_4 
REMARK       I    between atoms: C_4  and  N_5 
REMARK    2  A    between atoms: N_5  and  C_6 
REMARK    3  A    between atoms: C_6  and  C_7 
REMARK    4  A    between atoms: C_14  and  N_15 
REMARK       I    between atoms: N_15  and  C_16 
REMARK    5  A    between atoms: C_16  and  C_17 
REMARK       I    between atoms: C_17  and  N_18 
REMARK    6  A    between atoms: N_18  and  C_19 
REMARK    7  A    between atoms: C_19  and  C_20 
REMARK    8  A    between atoms: C_20  and  C_21 
REMARK    9  A    between atoms: C_24  and  O_25 
ROOT
HETATM    1  N   UNL     1       6.151  29.534  57.347  1.00  0.00    -0.318 N 
HETATM    2  C   UNL     1       7.272  29.048  56.709  1.00  0.00     0.313 C 
HETATM    3  O   UNL     1       8.085  29.660  56.027  1.00  0.00    -0.262 OA
HETATM    4  H   UNL     1       5.787  28.926  58.078  1.00  0.00     0.169 HD
ENDROOT
BRANCH   1   5
HETATM    5  C   UNL     1       5.658  30.849  57.251  1.00  0.00     0.051 A 
HETATM    6  C   UNL     1       5.864  31.870  58.199  1.00  0.00     0.058 A 
HETATM    7  C   UNL     1       5.242  33.120  58.022  1.00  0.00     0.019 A 
HETATM    8  C   UNL     1       4.438  33.361  56.908  1.00  0.00     0.001 A 
HETATM    9  C   UNL     1       4.278  32.371  55.943  1.00  0.00     0.002 A 
HETATM   10  C   UNL     1       4.896  31.130  56.107  1.00  0.00     0.030 A 
BRANCH   6  11
HETATM   11  C   UNL     1       6.907  31.771  59.258  1.00  0.00     0.254 C 
HETATM   12  N   UNL     1       6.446  31.755  60.559  1.00  0.00    -0.353 N 
HETATM   13  H   UNL     1       5.465  31.577  60.726  1.00  0.00     0.163 HD
HETATM   14  O   UNL     1       8.096  31.762  58.956  1.00  0.00    -0.268 OA
BRANCH  12  15
HETATM   15  C   UNL     1       7.357  31.607  61.673  1.00  0.00     0.162 C 
BRANCH  15  16
HETATM   16  C   UNL     1       6.856  32.310  62.902  1.00  0.00    -0.023 A 
HETATM   17  C   UNL     1       5.506  32.286  63.238  1.00  0.00     0.125 A 
HETATM   18  N   UNL     1       4.986  32.852  64.352  1.00  0.00    -0.273 NA
HETATM   19  C   UNL     1       5.856  33.460  65.185  1.00  0.00     0.116 A 
HETATM   20  C   UNL     1       7.219  33.532  64.955  1.00  0.00     0.020 A 
HETATM   21  C   UNL     1       7.723  32.942  63.799  1.00  0.00     0.012 A 
ENDBRANCH  15  16
ENDBRANCH  12  15
ENDBRANCH   6  11
ENDBRANCH   1   5
BRANCH   2  22
HETATM   22  C   UNL     1       7.540  27.564  57.054  1.00  0.00     0.309 C 
HETATM   23  N   UNL     1       7.432  26.717  55.975  1.00  0.00    -0.353 N 
HETATM   24  H   UNL     1       7.127  27.137  55.101  1.00  0.00     0.162 HD
HETATM   25  O   UNL     1       7.850  27.248  58.193  1.00  0.00    -0.262 OA
BRANCH  23  26
HETATM   26  C   UNL     1       7.544  25.277  56.094  1.00  0.00     0.128 C 
BRANCH  26  27
HETATM   27  C   UNL     1       7.043  24.576  54.832  1.00  0.00     0.058 C 
BRANCH  27  28
HETATM   28  C   UNL     1       7.561  23.165  54.715  1.00  0.00    -0.057 A 
HETATM   29  C   UNL     1       7.982  22.664  53.474  1.00  0.00     0.010 A 
HETATM   30  C   UNL     1       8.467  21.359  53.362  1.00  0.00     0.037 A 
HETATM   31  C   UNL     1       8.523  20.552  54.494  1.00  0.00     0.065 A 
HETATM   32  C   UNL     1       8.098  21.025  55.728  1.00  0.00     0.037 A 
HETATM   33  C   UNL     1       7.616  22.331  55.841  1.00  0.00     0.010 A 
BRANCH  31  34
HETATM   34  O   UNL     1       8.995  19.274  54.431  1.00  0.00    -0.361 OA
HETATM   35  H   UNL     1       8.303  18.675  54.754  1.00  0.00     0.217 HD
ENDBRANCH  31  34
ENDBRANCH  27  28
ENDBRANCH  26  27
ENDBRANCH  23  26
ENDBRANCH   2  22
TORSDOF 9
ENDMDL
MODEL 2
REMARK VINA RESULT:      -9.9      1.803      2.801
REMARK  9 active torsions:
REMARK  status: ('A' for Active; 'I' for Inactive)
REMARK    1  A    between atoms: C_3  and  C_4 
REMARK       I    between atoms: C_4  and  N_5 
REMARK    2  A    between atoms: N_5  and  C_6 
REMARK    3  A    between atoms: C_6  and  C_7 
REMARK    4  A    between atoms: C_14  and  N_15 
REMARK       I    between atoms: N_15  and  C_16 
REMARK    5  A    between atoms: C_16  and  C_17 
REMARK       I    between atoms: C_17  and  N_18 
REMARK    6  A    between atoms: N_18  and  C_19 
REMARK    7  A    between atoms: C_19  and  C_20 
REMARK    8  A    between atoms: C_20  and  C_21 
REMARK    9  A    between atoms: C_24  and  O_25 
ROOT
HETATM    1  N   UNL     1       7.973  28.764  56.633  1.00  0.00    -0.318 N 
HETATM    2  C   UNL     1       7.588  27.522  57.091  1.00  0.00     0.313 C 
HETATM    3  O   UNL     1       7.917  26.958  58.128  1.00  0.00    -0.262 OA
HETATM    4  H   UNL     1       7.371  29.149  55.908  1.00  0.00     0.169 HD
ENDROOT
BRANCH   1   5
HETATM    5  C   UNL     1       8.925  29.604  57.241  1.00  0.00     0.051 A 
HETATM    6  C   UNL     1       8.632  30.721  58.046  1.00  0.00     0.058 A 
HETATM    7  C   UNL     1       9.682  31.528  58.525  1.00  0.00     0.019 A 
HETATM    8  C   UNL     1      11.008  31.220  58.221  1.00  0.00     0.001 A 
HETATM    9  C   UNL     1      11.301  30.086  57.471  1.00  0.00     0.002 A 
HETATM   10  C   UNL     1      10.268  29.276  56.997  1.00  0.00     0.030 A 
BRANCH   6  11
HETATM   11  C   UNL     1       7.278  30.952  58.621  1.00  0.00     0.254 C 
HETATM   12  N   UNL     1       7.235  31.691  59.786  1.00  0.00    -0.353 N 
HETATM   13  H   UNL     1       8.053  32.221  60.057  1.00  0.00     0.163 HD
HETATM   14  O   UNL     1       6.289  30.455  58.093  1.00  0.00    -0.268 OA
BRANCH  12  15
HETATM   15  C   UNL     1       5.975  32.031  60.410  1.00  0.00     0.162 C 
BRANCH  15  16
HETATM   16  C   UNL     1       6.156  32.454  61.840  1.00  0.00    -0.023 A 
HETATM   17  C   UNL     1       5.073  32.501  62.713  1.00  0.00     0.125 A 
HETATM   18  N   UNL     1       5.164  32.824  64.024  1.00  0.00    -0.273 NA
HETATM   19  C   UNL     1       6.398  33.098  64.497  1.00  0.00     0.116 A 
HETATM   20  C   UNL     1       7.543  33.068  63.721  1.00  0.00     0.020 A 
HETATM   21  C   UNL     1       7.417  32.736  62.375  1.00  0.00     0.012 A 
ENDBRANCH  15  16
ENDBRANCH  12  15
ENDBRANCH   6  11
ENDBRANCH   1   5
BRANCH   2  22
HETATM   22  C   UNL     1       6.503  26.881  56.194  1.00  0.00     0.309 C 
HETATM   23  N   UNL     1       6.782  25.584  55.829  1.00  0.00    -0.353 N 
HETATM   24  H   UNL     1       7.683  25.217  56.123  1.00  0.00     0.162 HD
HETATM   25  O   UNL     1       5.498  27.514  55.904  1.00  0.00    -0.262 OA
BRANCH  23  26
HETATM   26  C   UNL     1       5.950  24.832  54.911  1.00  0.00     0.128 C 
BRANCH  26  27
HETATM   27  C   UNL     1       6.764  24.310  53.727  1.00  0.00     0.058 C 
BRANCH  27  28
HETATM   28  C   UNL     1       7.364  22.953  53.998  1.00  0.00    -0.057 A 
HETATM   29  C   UNL     1       7.788  22.141  52.935  1.00  0.00     0.010 A 
HETATM   30  C   UNL     1       8.349  20.886  53.181  1.00  0.00     0.037 A 
HETATM   31  C   UNL     1       8.478  20.440  54.492  1.00  0.00     0.065 A 
HETATM   32  C   UNL     1       8.051  21.223  55.556  1.00  0.00     0.037 A 
HETATM   33  C   UNL     1       7.493  22.480  55.311  1.00  0.00     0.010 A 
BRANCH  31  34
HETATM   34  O   UNL     1       9.025  19.224  54.778  1.00  0.00    -0.361 OA
HETATM   35  H   UNL     1       9.992  19.305  54.733  1.00  0.00     0.217 HD
ENDBRANCH  31  34
ENDBRANCH  27  28
ENDBRANCH  26  27
ENDBRANCH  23  26
ENDBRANCH   2  22
TORSDOF 9
ENDMDL
MODEL 3
REMARK VINA RESULT:      -9.8      2.497     10.524
REMARK  9 active torsions:
REMARK  status: ('A' for Active; 'I' for Inactive)
REMARK    1  A    between atoms: C_3  and  C_4 
REMARK       I    between atoms: C_4  and  N_5 
REMARK    2  A    between atoms: N_5  and  C_6 
REMARK    3  A    between atoms: C_6  and  C_7 
REMARK    4  A    between atoms: C_14  and  N_15 
REMARK       I    between atoms: N_15  and  C_16 
REMARK    5  A    between atoms: C_16  and  C_17 
REMARK       I    between atoms: C_17  and  N_18 
REMARK    6  A    between atoms: N_18  and  C_19 
REMARK    7  A    between atoms: C_19  and  C_20 
REMARK    8  A    between atoms: C_20  and  C_21 
REMARK    9  A    between atoms: C_24  and  O_25 
ROOT
HETATM    1  N   UNL     1       7.073  29.298  58.203  1.00  0.00    -0.318 N 
HETATM    2  C   UNL     1       8.278  29.873  57.862  1.00  0.00     0.313 C 
HETATM    3  O   UNL     1       8.709  30.133  56.745  1.00  0.00    -0.262 OA
HETATM    4  H   UNL     1       6.802  29.435  59.174  1.00  0.00     0.169 HD
ENDROOT
BRANCH   1   5
HETATM    5  C   UNL     1       6.119  28.793  57.298  1.00  0.00     0.051 A 
HETATM    6  C   UNL     1       6.211  27.563  56.619  1.00  0.00     0.058 A 
HETATM    7  C   UNL     1       5.226  27.216  55.674  1.00  0.00     0.019 A 
HETATM    8  C   UNL     1       4.155  28.071  55.418  1.00  0.00     0.001 A 
HETATM    9  C   UNL     1       4.035  29.262  56.129  1.00  0.00     0.002 A 
HETATM   10  C   UNL     1       5.003  29.612  57.072  1.00  0.00     0.030 A 
BRANCH   6  11
HETATM   11  C   UNL     1       7.168  26.499  57.028  1.00  0.00     0.254 C 
HETATM   12  N   UNL     1       7.394  25.501  56.101  1.00  0.00    -0.353 N 
HETATM   13  H   UNL     1       7.104  25.651  55.144  1.00  0.00     0.163 HD
HETATM   14  O   UNL     1       7.665  26.512  58.150  1.00  0.00    -0.268 OA
BRANCH  12  15
HETATM   15  C   UNL     1       8.345  24.442  56.360  1.00  0.00     0.162 C 
BRANCH  15  16
HETATM   16  C   UNL     1       8.377  23.435  55.245  1.00  0.00    -0.023 A 
HETATM   17  C   UNL     1       8.933  22.175  55.438  1.00  0.00     0.125 A 
HETATM   18  N   UNL     1       8.954  21.199  54.501  1.00  0.00    -0.273 NA
HETATM   19  C   UNL     1       8.377  21.485  53.314  1.00  0.00     0.116 A 
HETATM   20  C   UNL     1       7.783  22.700  53.021  1.00  0.00     0.020 A 
HETATM   21  C   UNL     1       7.780  23.685  54.005  1.00  0.00     0.012 A 
ENDBRANCH  15  16
ENDBRANCH  12  15
ENDBRANCH   6  11
ENDBRANCH   1   5
BRANCH   2  22
HETATM   22  C   UNL     1       9.072  30.340  59.105  1.00  0.00     0.309 C 
HETATM   23  N   UNL     1       8.382  30.198  60.287  1.00  0.00    -0.353 N 
HETATM   24  H   UNL     1       7.422  29.874  60.212  1.00  0.00     0.162 HD
HETATM   25  O   UNL     1      10.216  30.752  58.981  1.00  0.00    -0.262 OA
BRANCH  23  26
HETATM   26  C   UNL     1       8.899  30.665  61.558  1.00  0.00     0.128 C 
BRANCH  26  27
HETATM   27  C   UNL     1       8.673  32.167  61.729  1.00  0.00     0.058 C 
BRANCH  27  28
HETATM   28  C   UNL     1       7.570  32.472  62.711  1.00  0.00    -0.057 A 
HETATM   29  C   UNL     1       7.869  33.033  63.962  1.00  0.00     0.010 A 
HETATM   30  C   UNL     1       6.851  33.322  64.873  1.00  0.00     0.037 A 
HETATM   31  C   UNL     1       5.532  33.042  64.534  1.00  0.00     0.065 A 
HETATM   32  C   UNL     1       5.217  32.474  63.307  1.00  0.00     0.037 A 
HETATM   33  C   UNL     1       6.234  32.188  62.394  1.00  0.00     0.010 A 
BRANCH  31  34
HETATM   34  O   UNL     1       4.506  33.314  65.391  1.00  0.00    -0.361 OA
HETATM   35  H   UNL     1       3.921  32.538  65.425  1.00  0.00     0.217 HD
ENDBRANCH  31  34
ENDBRANCH  27  28
ENDBRANCH  26  27
ENDBRANCH  23  26
ENDBRANCH   2  22
TORSDOF 9
ENDMDL
MODEL 4
REMARK VINA RESULT:      -9.6      5.664     10.259
REMARK  9 active torsions:
REMARK  status: ('A' for Active; 'I' for Inactive)
REMARK    1  A    between atoms: C_3  and  C_4 
REMARK       I    between atoms: C_4  and  N_5 
REMARK    2  A    between atoms: N_5  and  C_6 
REMARK    3  A    between atoms: C_6  and  C_7 
REMARK    4  A    between atoms: C_14  and  N_15 
REMARK       I    between atoms: N_15  and  C_16 
REMARK    5  A    between atoms: C_16  and  C_17 
REMARK       I    between atoms: C_17  and  N_18 
REMARK    6  A    between atoms: N_18  and  C_19 
REMARK    7  A    between atoms: C_19  and  C_20 
REMARK    8  A    between atoms: C_20  and  C_21 
REMARK    9  A    between atoms: C_24  and  O_25 
ROOT
HETATM    1  N   UNL     1       6.478  26.652  53.950  1.00  0.00    -0.318 N 
HETATM    2  C   UNL     1       6.912  25.994  52.818  1.00  0.00     0.313 C 
HETATM    3  O   UNL     1       8.048  25.633  52.536  1.00  0.00    -0.262 OA
HETATM    4  H   UNL     1       5.475  26.600  54.107  1.00  0.00     0.169 HD
ENDROOT
BRANCH   1   5
HETATM    5  C   UNL     1       7.303  27.137  54.983  1.00  0.00     0.051 A 
HETATM    6  C   UNL     1       7.576  26.469  56.191  1.00  0.00     0.058 A 
HETATM    7  C   UNL     1       8.352  27.105  57.179  1.00  0.00     0.019 A 
HETATM    8  C   UNL     1       8.864  28.384  56.963  1.00  0.00     0.001 A 
HETATM    9  C   UNL     1       8.640  29.023  55.748  1.00  0.00     0.002 A 
HETATM   10  C   UNL     1       7.878  28.398  54.760  1.00  0.00     0.030 A 
BRANCH   6  11
HETATM   11  C   UNL     1       7.288  25.020  56.380  1.00  0.00     0.254 C 
HETATM   12  N   UNL     1       8.381  24.178  56.354  1.00  0.00    -0.353 N 
HETATM   13  H   UNL     1       9.306  24.578  56.444  1.00  0.00     0.163 HD
HETATM   14  O   UNL     1       6.130  24.630  56.495  1.00  0.00    -0.268 OA
BRANCH  12  15
HETATM   15  C   UNL     1       8.237  22.757  56.581  1.00  0.00     0.162 C 
BRANCH  15  16
HETATM   16  C   UNL     1       8.308  21.976  55.299  1.00  0.00    -0.023 A 
HETATM   17  C   UNL     1       8.721  20.647  55.296  1.00  0.00     0.125 A 
HETATM   18  N   UNL     1       8.764  19.865  54.192  1.00  0.00    -0.273 NA
HETATM   19  C   UNL     1       8.360  20.427  53.034  1.00  0.00     0.116 A 
HETATM   20  C   UNL     1       7.918  21.734  52.927  1.00  0.00     0.020 A 
HETATM   21  C   UNL     1       7.888  22.515  54.079  1.00  0.00     0.012 A 
ENDBRANCH  15  16
ENDBRANCH  12  15
ENDBRANCH   6  11
ENDBRANCH   1   5
BRANCH   2  22
HETATM   22  C   UNL     1       5.738  25.579  51.901  1.00  0.00     0.309 C 
HETATM   23  N   UNL     1       5.677  26.290  50.724  1.00  0.00    -0.353 N 
HETATM   24  H   UNL     1       6.352  27.041  50.617  1.00  0.00     0.162 HD
HETATM   25  O   UNL     1       4.992  24.670  52.237  1.00  0.00    -0.262 OA
BRANCH  23  26
HETATM   26  C   UNL     1       4.599  26.132  49.768  1.00  0.00     0.128 C 
BRANCH  26  27
HETATM   27  C   UNL     1       4.797  27.042  48.556  1.00  0.00     0.058 C 
BRANCH  27  28
HETATM   28  C   UNL     1       3.488  27.510  47.971  1.00  0.00    -0.057 A 
HETATM   29  C   UNL     1       2.364  26.670  47.988  1.00  0.00     0.010 A 
HETATM   30  C   UNL     1       1.148  27.100  47.453  1.00  0.00     0.037 A 
HETATM   31  C   UNL     1       1.060  28.370  46.891  1.00  0.00     0.065 A 
HETATM   32  C   UNL     1       2.165  29.210  46.853  1.00  0.00     0.037 A 
HETATM   33  C   UNL     1       3.380  28.782  47.392  1.00  0.00     0.010 A 
BRANCH  31  34
HETATM   34  O   UNL     1      -0.109  28.833  46.363  1.00  0.00    -0.361 OA
HETATM   35  H   UNL     1      -0.104  29.803  46.409  1.00  0.00     0.217 HD
ENDBRANCH  31  34
ENDBRANCH  27  28
ENDBRANCH  26  27
ENDBRANCH  23  26
ENDBRANCH   2  22
TORSDOF 9
ENDMDL
MODEL 5
REMARK VINA RESULT:      -9.6      5.534     10.073
REMARK  9 active torsions:
REMARK  status: ('A' for Active; 'I' for Inactive)
REMARK    1  A    between atoms: C_3  and  C_4 
REMARK       I    between atoms: C_4  and  N_5 
REMARK    2  A    between atoms: N_5  and  C_6 
REMARK    3  A    between atoms: C_6  and  C_7 
REMARK    4  A    between atoms: C_14  and  N_15 
REMARK       I    between atoms: N_15  and  C_16 
REMARK    5  A    between atoms: C_16  and  C_17 
REMARK       I    between atoms: C_17  and  N_18 
REMARK    6  A    between atoms: N_18  and  C_19 
REMARK    7  A    between atoms: C_19  and  C_20 
REMARK    8  A    between atoms: C_20  and  C_21 
REMARK    9  A    between atoms: C_24  and  O_25 
ROOT
HETATM    1  N   UNL     1       6.697  28.427  53.485  1.00  0.00    -0.318 N 
HETATM    2  C   UNL     1       5.353  28.652  53.271  1.00  0.00     0.313 C 
HETATM    3  O   UNL     1       4.431  28.571  54.073  1.00  0.00    -0.262 OA
HETATM    4  H   UNL     1       7.307  28.822  52.772  1.00  0.00     0.169 HD
ENDROOT
BRANCH   1   5
HETATM    5  C   UNL     1       7.269  27.951  54.680  1.00  0.00     0.051 A 
HETATM    6  C   UNL     1       7.220  26.619  55.134  1.00  0.00     0.058 A 
HETATM    7  C   UNL     1       7.762  26.292  56.391  1.00  0.00     0.019 A 
HETATM    8  C   UNL     1       8.360  27.273  57.182  1.00  0.00     0.001 A 
HETATM    9  C   UNL     1       8.457  28.578  56.711  1.00  0.00     0.002 A 
HETATM   10  C   UNL     1       7.929  28.911  55.462  1.00  0.00     0.030 A 
BRANCH   6  11
HETATM   11  C   UNL     1       6.839  25.489  54.241  1.00  0.00     0.254 C 
HETATM   12  N   UNL     1       7.882  24.729  53.752  1.00  0.00    -0.353 N 
HETATM   13  H   UNL     1       8.792  24.813  54.185  1.00  0.00     0.163 HD
HETATM   14  O   UNL     1       5.664  25.309  53.939  1.00  0.00    -0.268 OA
BRANCH  12  15
HETATM   15  C   UNL     1       7.637  23.571  52.920  1.00  0.00     0.162 C 
BRANCH  15  16
HETATM   16  C   UNL     1       7.896  22.288  53.658  1.00  0.00    -0.023 A 
HETATM   17  C   UNL     1       8.343  21.155  52.985  1.00  0.00     0.125 A 
HETATM   18  N   UNL     1       8.647  19.981  53.585  1.00  0.00    -0.273 NA
HETATM   19  C   UNL     1       8.514  19.934  54.928  1.00  0.00     0.116 A 
HETATM   20  C   UNL     1       8.090  21.004  55.696  1.00  0.00     0.020 A 
HETATM   21  C   UNL     1       7.783  22.198  55.049  1.00  0.00     0.012 A 
ENDBRANCH  15  16
ENDBRANCH  12  15
ENDBRANCH   6  11
ENDBRANCH   1   5
BRANCH   2  22
HETATM   22  C   UNL     1       5.074  29.197  51.851  1.00  0.00     0.309 C 
HETATM   23  N   UNL     1       3.739  29.414  51.594  1.00  0.00    -0.353 N 
HETATM   24  H   UNL     1       3.089  29.133  52.323  1.00  0.00     0.162 HD
HETATM   25  O   UNL     1       6.003  29.427  51.091  1.00  0.00    -0.262 OA
BRANCH  23  26
HETATM   26  C   UNL     1       3.248  29.827  50.295  1.00  0.00     0.128 C 
BRANCH  26  27
HETATM   27  C   UNL     1       1.944  29.112  49.943  1.00  0.00     0.058 C 
BRANCH  27  28
HETATM   28  C   UNL     1       2.141  28.037  48.904  1.00  0.00    -0.057 A 
HETATM   29  C   UNL     1       1.101  27.705  48.023  1.00  0.00     0.010 A 
HETATM   30  C   UNL     1       1.280  26.714  47.055  1.00  0.00     0.037 A 
HETATM   31  C   UNL     1       2.499  26.048  46.977  1.00  0.00     0.065 A 
HETATM   32  C   UNL     1       3.535  26.353  47.850  1.00  0.00     0.037 A 
HETATM   33  C   UNL     1       3.357  27.347  48.814  1.00  0.00     0.010 A 
BRANCH  31  34
HETATM   34  O   UNL     1       2.719  25.078  46.044  1.00  0.00    -0.361 OA
HETATM   35  H   UNL     1       1.925  25.000  45.489  1.00  0.00     0.217 HD
ENDBRANCH  31  34
ENDBRANCH  27  28
ENDBRANCH  26  27
ENDBRANCH  23  26
ENDBRANCH   2  22
TORSDOF 9
ENDMDL
MODEL 6
REMARK VINA RESULT:      -9.5      4.212      9.554
REMARK  9 active torsions:
REMARK  status: ('A' for Active; 'I' for Inactive)
REMARK    1  A    between atoms: C_3  and  C_4 
REMARK       I    between atoms: C_4  and  N_5 
REMARK    2  A    between atoms: N_5  and  C_6 
REMARK    3  A    between atoms: C_6  and  C_7 
REMARK    4  A    between atoms: C_14  and  N_15 
REMARK       I    between atoms: N_15  and  C_16 
REMARK    5  A    between atoms: C_16  and  C_17 
REMARK       I    between atoms: C_17  and  N_18 
REMARK    6  A    between atoms: N_18  and  C_19 
REMARK    7  A    between atoms: C_19  and  C_20 
REMARK    8  A    between atoms: C_20  and  C_21 
REMARK    9  A    between atoms: C_24  and  O_25 
ROOT
HETATM    1  N   UNL     1       6.593  24.110  55.528  1.00  0.00    -0.318 N 
HETATM    2  C   UNL     1       7.202  24.908  56.473  1.00  0.00     0.313 C 
HETATM    3  O   UNL     1       8.381  24.931  56.804  1.00  0.00    -0.262 OA
HETATM    4  H   UNL     1       5.685  24.447  55.216  1.00  0.00     0.169 HD
ENDROOT
BRANCH   1   5
HETATM    5  C   UNL     1       7.213  23.068  54.811  1.00  0.00     0.051 A 
HETATM    6  C   UNL     1       7.436  23.054  53.421  1.00  0.00     0.058 A 
HETATM    7  C   UNL     1       7.992  21.910  52.818  1.00  0.00     0.019 A 
HETATM    8  C   UNL     1       8.338  20.799  53.587  1.00  0.00     0.001 A 
HETATM    9  C   UNL     1       8.169  20.834  54.967  1.00  0.00     0.002 A 
HETATM   10  C   UNL     1       7.625  21.966  55.576  1.00  0.00     0.030 A 
BRANCH   6  11
HETATM   11  C   UNL     1       7.337  24.284  52.588  1.00  0.00     0.254 C 
HETATM   12  N   UNL     1       6.067  24.640  52.183  1.00  0.00    -0.353 N 
HETATM   13  H   UNL     1       5.272  24.213  52.642  1.00  0.00     0.163 HD
HETATM   14  O   UNL     1       8.352  24.889  52.256  1.00  0.00    -0.268 OA
BRANCH  12  15
HETATM   15  C   UNL     1       5.835  25.845  51.418  1.00  0.00     0.162 C 
BRANCH  15  16
HETATM   16  C   UNL     1       5.135  26.897  52.229  1.00  0.00    -0.023 A 
HETATM   17  C   UNL     1       5.072  26.804  53.616  1.00  0.00     0.125 A 
HETATM   18  N   UNL     1       4.505  27.734  54.419  1.00  0.00    -0.273 NA
HETATM   19  C   UNL     1       3.986  28.823  53.812  1.00  0.00     0.116 A 
HETATM   20  C   UNL     1       4.006  29.023  52.443  1.00  0.00     0.020 A 
HETATM   21  C   UNL     1       4.595  28.047  51.644  1.00  0.00     0.012 A 
ENDBRANCH  15  16
ENDBRANCH  12  15
ENDBRANCH   6  11
ENDBRANCH   1   5
BRANCH   2  22
HETATM   22  C   UNL     1       6.234  25.968  57.048  1.00  0.00     0.309 C 
HETATM   23  N   UNL     1       6.678  27.262  56.898  1.00  0.00    -0.353 N 
HETATM   24  H   UNL     1       7.605  27.376  56.498  1.00  0.00     0.162 HD
HETATM   25  O   UNL     1       5.171  25.622  57.544  1.00  0.00    -0.262 OA
BRANCH  23  26
HETATM   26  C   UNL     1       5.976  28.401  57.453  1.00  0.00     0.128 C 
BRANCH  26  27
HETATM   27  C   UNL     1       6.536  29.716  56.910  1.00  0.00     0.058 C 
BRANCH  27  28
HETATM   28  C   UNL     1       8.043  29.763  56.965  1.00  0.00    -0.057 A 
HETATM   29  C   UNL     1       8.804  29.400  55.844  1.00  0.00     0.010 A 
HETATM   30  C   UNL     1      10.199  29.446  55.887  1.00  0.00     0.037 A 
HETATM   31  C   UNL     1      10.833  29.850  57.057  1.00  0.00     0.065 A 
HETATM   32  C   UNL     1      10.097  30.200  58.181  1.00  0.00     0.037 A 
HETATM   33  C   UNL     1       8.702  30.157  58.137  1.00  0.00     0.010 A 
BRANCH  31  34
HETATM   34  O   UNL     1      12.192  29.916  57.141  1.00  0.00    -0.361 OA
HETATM   35  H   UNL     1      12.569  29.232  56.564  1.00  0.00     0.217 HD
ENDBRANCH  31  34
ENDBRANCH  27  28
ENDBRANCH  26  27
ENDBRANCH  23  26
ENDBRANCH   2  22
TORSDOF 9
ENDMDL
MODEL 7
REMARK VINA RESULT:      -9.5      5.085      8.192
REMARK  9 active torsions:
REMARK  status: ('A' for Active; 'I' for Inactive)
REMARK    1  A    between atoms: C_3  and  C_4 
REMARK       I    between atoms: C_4  and  N_5 
REMARK    2  A    between atoms: N_5  and  C_6 
REMARK    3  A    between atoms: C_6  and  C_7 
REMARK    4  A    between atoms: C_14  and  N_15 
REMARK       I    between atoms: N_15  and  C_16 
REMARK    5  A    between atoms: C_16  and  C_17 
REMARK       I    between atoms: C_17  and  N_18 
REMARK    6  A    between atoms: N_18  and  C_19 
REMARK    7  A    between atoms: C_19  and  C_20 
REMARK    8  A    between atoms: C_20  and  C_21 
REMARK    9  A    between atoms: C_24  and  O_25 
ROOT
HETATM    1  N   UNL     1       6.694  26.059  53.521  1.00  0.00    -0.318 N 
HETATM    2  C   UNL     1       5.382  26.121  53.103  1.00  0.00     0.313 C 
HETATM    3  O   UNL     1       4.528  25.244  53.141  1.00  0.00    -0.262 OA
HETATM    4  H   UNL     1       7.134  26.965  53.661  1.00  0.00     0.169 HD
ENDROOT
BRANCH   1   5
HETATM    5  C   UNL     1       7.350  24.906  53.995  1.00  0.00     0.051 A 
HETATM    6  C   UNL     1       7.806  24.710  55.312  1.00  0.00     0.058 A 
HETATM    7  C   UNL     1       8.523  23.542  55.634  1.00  0.00     0.019 A 
HETATM    8  C   UNL     1       8.772  22.573  54.663  1.00  0.00     0.001 A 
HETATM    9  C   UNL     1       8.274  22.740  53.374  1.00  0.00     0.002 A 
HETATM   10  C   UNL     1       7.556  23.892  53.047  1.00  0.00     0.030 A 
BRANCH   6  11
HETATM   11  C   UNL     1       7.355  25.566  56.445  1.00  0.00     0.254 C 
HETATM   12  N   UNL     1       8.032  26.758  56.608  1.00  0.00    -0.353 N 
HETATM   13  H   UNL     1       8.613  27.095  55.851  1.00  0.00     0.163 HD
HETATM   14  O   UNL     1       6.468  25.178  57.198  1.00  0.00    -0.268 OA
BRANCH  12  15
HETATM   15  C   UNL     1       7.651  27.700  57.637  1.00  0.00     0.162 C 
BRANCH  15  16
HETATM   16  C   UNL     1       8.579  28.880  57.685  1.00  0.00    -0.023 A 
HETATM   17  C   UNL     1       8.356  29.927  58.574  1.00  0.00     0.125 A 
HETATM   18  N   UNL     1       9.172  30.998  58.712  1.00  0.00    -0.273 NA
HETATM   19  C   UNL     1      10.277  31.022  57.937  1.00  0.00     0.116 A 
HETATM   20  C   UNL     1      10.601  30.029  57.030  1.00  0.00     0.020 A 
HETATM   21  C   UNL     1       9.741  28.941  56.909  1.00  0.00     0.012 A 
ENDBRANCH  15  16
ENDBRANCH  12  15
ENDBRANCH   6  11
ENDBRANCH   1   5
BRANCH   2  22
HETATM   22  C   UNL     1       4.979  27.549  52.666  1.00  0.00     0.309 C 
HETATM   23  N   UNL     1       3.708  27.630  52.144  1.00  0.00    -0.353 N 
HETATM   24  H   UNL     1       3.208  26.752  52.039  1.00  0.00     0.162 HD
HETATM   25  O   UNL     1       5.753  28.481  52.832  1.00  0.00    -0.262 OA
BRANCH  23  26
HETATM   26  C   UNL     1       3.168  28.852  51.582  1.00  0.00     0.128 C 
BRANCH  26  27
HETATM   27  C   UNL     1       3.830  29.187  50.246  1.00  0.00     0.058 C 
BRANCH  27  28
HETATM   28  C   UNL     1       3.526  28.163  49.182  1.00  0.00    -0.057 A 
HETATM   29  C   UNL     1       4.554  27.377  48.641  1.00  0.00     0.010 A 
HETATM   30  C   UNL     1       4.277  26.423  47.659  1.00  0.00     0.037 A 
HETATM   31  C   UNL     1       2.970  26.263  47.212  1.00  0.00     0.065 A 
HETATM   32  C   UNL     1       1.941  27.041  47.725  1.00  0.00     0.037 A 
HETATM   33  C   UNL     1       2.217  27.992  48.710  1.00  0.00     0.010 A 
BRANCH  31  34
HETATM   34  O   UNL     1       2.653  25.340  46.259  1.00  0.00    -0.361 OA
HETATM   35  H   UNL     1       2.473  25.807  45.427  1.00  0.00     0.217 HD
ENDBRANCH  31  34
ENDBRANCH  27  28
ENDBRANCH  26  27
ENDBRANCH  23  26
ENDBRANCH   2  22
TORSDOF 9
ENDMDL
MODEL 8
REMARK VINA RESULT:      -9.3      2.159      5.292
REMARK  9 active torsions:
REMARK  status: ('A' for Active; 'I' for Inactive)
REMARK    1  A    between atoms: C_3  and  C_4 
REMARK       I    between atoms: C_4  and  N_5 
REMARK    2  A    between atoms: N_5  and  C_6 
REMARK    3  A    between atoms: C_6  and  C_7 
REMARK    4  A    between atoms: C_14  and  N_15 
REMARK       I    between atoms: N_15  and  C_16 
REMARK    5  A    between atoms: C_16  and  C_17 
REMARK       I    between atoms: C_17  and  N_18 
REMARK    6  A    between atoms: N_18  and  C_19 
REMARK    7  A    between atoms: C_19  and  C_20 
REMARK    8  A    between atoms: C_20  and  C_21 
REMARK    9  A    between atoms: C_24  and  O_25 
ROOT
HETATM    1  N   UNL     1       8.386  30.671  59.547  1.00  0.00    -0.318 N 
HETATM    2  C   UNL     1       9.309  31.036  58.591  1.00  0.00     0.313 C 
HETATM    3  O   UNL     1       9.947  32.078  58.508  1.00  0.00    -0.262 OA
HETATM    4  H   UNL     1       8.195  29.672  59.587  1.00  0.00     0.169 HD
ENDROOT
BRANCH   1   5
HETATM    5  C   UNL     1       7.913  31.494  60.588  1.00  0.00     0.051 A 
HETATM    6  C   UNL     1       6.840  32.400  60.487  1.00  0.00     0.058 A 
HETATM    7  C   UNL     1       6.523  33.226  61.582  1.00  0.00     0.019 A 
HETATM    8  C   UNL     1       7.252  33.142  62.769  1.00  0.00     0.001 A 
HETATM    9  C   UNL     1       8.276  32.209  62.887  1.00  0.00     0.002 A 
HETATM   10  C   UNL     1       8.594  31.380  61.809  1.00  0.00     0.030 A 
BRANCH   6  11
HETATM   11  C   UNL     1       5.867  32.358  59.361  1.00  0.00     0.254 C 
HETATM   12  N   UNL     1       4.872  31.406  59.459  1.00  0.00    -0.353 N 
HETATM   13  H   UNL     1       4.709  30.961  60.353  1.00  0.00     0.163 HD
HETATM   14  O   UNL     1       6.004  33.103  58.397  1.00  0.00    -0.268 OA
BRANCH  12  15
HETATM   15  C   UNL     1       3.835  31.303  58.456  1.00  0.00     0.162 C 
BRANCH  15  16
HETATM   16  C   UNL     1       4.261  30.447  57.296  1.00  0.00    -0.023 A 
HETATM   17  C   UNL     1       5.057  29.323  57.494  1.00  0.00     0.125 A 
HETATM   18  N   UNL     1       5.439  28.477  56.509  1.00  0.00    -0.273 NA
HETATM   19  C   UNL     1       4.996  28.754  55.265  1.00  0.00     0.116 A 
HETATM   20  C   UNL     1       4.190  29.837  54.959  1.00  0.00     0.020 A 
HETATM   21  C   UNL     1       3.815  30.690  55.993  1.00  0.00     0.012 A 
ENDBRANCH  15  16
ENDBRANCH  12  15
ENDBRANCH   6  11
ENDBRANCH   1   5
BRANCH   2  22
HETATM   22  C   UNL     1       9.619  29.880  57.612  1.00  0.00     0.309 C 
HETATM   23  N   UNL     1       8.654  28.899  57.589  1.00  0.00    -0.353 N 
HETATM   24  H   UNL     1       7.893  29.002  58.254  1.00  0.00     0.162 HD
HETATM   25  O   UNL     1      10.629  29.916  56.923  1.00  0.00    -0.262 OA
BRANCH  23  26
HETATM   26  C   UNL     1       8.793  27.680  56.818  1.00  0.00     0.128 C 
BRANCH  26  27
HETATM   27  C   UNL     1       8.124  26.500  57.523  1.00  0.00     0.058 C 
BRANCH  27  28
HETATM   28  C   UNL     1       7.976  25.302  56.619  1.00  0.00    -0.057 A 
HETATM   29  C   UNL     1       7.010  25.296  55.603  1.00  0.00     0.010 A 
HETATM   30  C   UNL     1       6.872  24.191  54.760  1.00  0.00     0.037 A 
HETATM   31  C   UNL     1       7.698  23.087  54.941  1.00  0.00     0.065 A 
HETATM   32  C   UNL     1       8.651  23.068  55.951  1.00  0.00     0.037 A 
HETATM   33  C   UNL     1       8.792  24.175  56.791  1.00  0.00     0.010 A 
BRANCH  31  34
HETATM   34  O   UNL     1       7.602  21.989  54.138  1.00  0.00    -0.361 OA
HETATM   35  H   UNL     1       7.995  21.232  54.604  1.00  0.00     0.217 HD
ENDBRANCH  31  34
ENDBRANCH  27  28
ENDBRANCH  26  27
ENDBRANCH  23  26
ENDBRANCH   2  22
TORSDOF 9
ENDMDL
MODEL 9
REMARK VINA RESULT:      -9.2      3.318      4.426
REMARK  9 active torsions:
REMARK  status: ('A' for Active; 'I' for Inactive)
REMARK    1  A    between atoms: C_3  and  C_4 
REMARK       I    between atoms: C_4  and  N_5 
REMARK    2  A    between atoms: N_5  and  C_6 
REMARK    3  A    between atoms: C_6  and  C_7 
REMARK    4  A    between atoms: C_14  and  N_15 
REMARK       I    between atoms: N_15  and  C_16 
REMARK    5  A    between atoms: C_16  and  C_17 
REMARK       I    between atoms: C_17  and  N_18 
REMARK    6  A    between atoms: N_18  and  C_19 
REMARK    7  A    between atoms: C_19  and  C_20 
REMARK    8  A    between atoms: C_20  and  C_21 
REMARK    9  A    between atoms: C_24  and  O_25 
ROOT
HETATM    1  N   UNL     1       5.726  29.289  54.335  1.00  0.00    -0.318 N 
HETATM    2  C   UNL     1       5.760  27.915  54.441  1.00  0.00     0.313 C 
HETATM    3  O   UNL     1       4.898  27.164  54.881  1.00  0.00    -0.262 OA
HETATM    4  H   UNL     1       6.411  29.678  53.692  1.00  0.00     0.169 HD
ENDROOT
BRANCH   1   5
HETATM    5  C   UNL     1       4.700  30.124  54.819  1.00  0.00     0.051 A 
HETATM    6  C   UNL     1       4.424  30.374  56.177  1.00  0.00     0.058 A 
HETATM    7  C   UNL     1       3.313  31.165  56.527  1.00  0.00     0.019 A 
HETATM    8  C   UNL     1       2.495  31.715  55.540  1.00  0.00     0.001 A 
HETATM    9  C   UNL     1       2.799  31.514  54.197  1.00  0.00     0.002 A 
HETATM   10  C   UNL     1       3.903  30.737  53.840  1.00  0.00     0.030 A 
BRANCH   6  11
HETATM   11  C   UNL     1       5.393  30.043  57.259  1.00  0.00     0.254 C 
HETATM   12  N   UNL     1       6.288  31.039  57.593  1.00  0.00    -0.353 N 
HETATM   13  H   UNL     1       6.106  31.983  57.278  1.00  0.00     0.163 HD
HETATM   14  O   UNL     1       5.400  28.924  57.761  1.00  0.00    -0.268 OA
BRANCH  12  15
HETATM   15  C   UNL     1       7.241  30.859  58.666  1.00  0.00     0.162 C 
BRANCH  15  16
HETATM   16  C   UNL     1       8.622  30.580  58.145  1.00  0.00    -0.023 A 
HETATM   17  C   UNL     1       9.681  31.435  58.436  1.00  0.00     0.125 A 
HETATM   18  N   UNL     1      10.960  31.226  58.046  1.00  0.00    -0.273 NA
HETATM   19  C   UNL     1      11.203  30.100  57.344  1.00  0.00     0.116 A 
HETATM   20  C   UNL     1      10.229  29.175  57.011  1.00  0.00     0.020 A 
HETATM   21  C   UNL     1       8.922  29.420  57.424  1.00  0.00     0.012 A 
ENDBRANCH  15  16
ENDBRANCH  12  15
ENDBRANCH   6  11
ENDBRANCH   1   5
BRANCH   2  22
HETATM   22  C   UNL     1       7.022  27.313  53.781  1.00  0.00     0.309 C 
HETATM   23  N   UNL     1       6.824  26.060  53.248  1.00  0.00    -0.353 N 
HETATM   24  H   UNL     1       5.909  25.645  53.403  1.00  0.00     0.162 HD
HETATM   25  O   UNL     1       8.058  27.961  53.739  1.00  0.00    -0.262 OA
BRANCH  23  26
HETATM   26  C   UNL     1       7.896  25.274  52.673  1.00  0.00     0.128 C 
BRANCH  26  27
HETATM   27  C   UNL     1       7.437  23.847  52.371  1.00  0.00     0.058 C 
BRANCH  27  28
HETATM   28  C   UNL     1       8.002  22.844  53.344  1.00  0.00    -0.057 A 
HETATM   29  C   UNL     1       8.449  23.258  54.608  1.00  0.00     0.010 A 
HETATM   30  C   UNL     1       8.969  22.332  55.516  1.00  0.00     0.037 A 
HETATM   31  C   UNL     1       9.049  20.992  55.153  1.00  0.00     0.065 A 
HETATM   32  C   UNL     1       8.626  20.565  53.901  1.00  0.00     0.037 A 
HETATM   33  C   UNL     1       8.102  21.490  52.995  1.00  0.00     0.010 A 
BRANCH  31  34
HETATM   34  O   UNL     1       9.544  20.053  56.010  1.00  0.00    -0.361 OA
HETATM   35  H   UNL     1       9.303  20.307  56.916  1.00  0.00     0.217 HD
ENDBRANCH  31  34
ENDBRANCH  27  28
ENDBRANCH  26  27
ENDBRANCH  23  26
ENDBRANCH   2  22
TORSDOF 9
ENDMDL
MODEL 10
REMARK VINA RESULT:      -9.2      4.765      8.674
REMARK  9 active torsions:
REMARK  status: ('A' for Active; 'I' for Inactive)
REMARK    1  A    between atoms: C_3  and  C_4 
REMARK       I    between atoms: C_4  and  N_5 
REMARK    2  A    between atoms: N_5  and  C_6 
REMARK    3  A    between atoms: C_6  and  C_7 
REMARK    4  A    between atoms: C_14  and  N_15 
REMARK       I    between atoms: N_15  and  C_16 
REMARK    5  A    between atoms: C_16  and  C_17 
REMARK       I    between atoms: C_17  and  N_18 
REMARK    6  A    between atoms: N_18  and  C_19 
REMARK    7  A    between atoms: C_19  and  C_20 
REMARK    8  A    between atoms: C_20  and  C_21 
REMARK    9  A    between atoms: C_24  and  O_25 
ROOT
HETATM    1  N   UNL     1       5.736  27.955  55.645  1.00  0.00    -0.318 N 
HETATM    2  C   UNL     1       6.941  28.257  56.244  1.00  0.00     0.313 C 
HETATM    3  O   UNL     1       7.479  29.350  56.363  1.00  0.00    -0.262 OA
HETATM    4  H   UNL     1       5.352  27.050  55.906  1.00  0.00     0.169 HD
ENDROOT
BRANCH   1   5
HETATM    5  C   UNL     1       4.918  28.863  54.946  1.00  0.00     0.051 A 
HETATM    6  C   UNL     1       4.817  28.959  53.545  1.00  0.00     0.058 A 
HETATM    7  C   UNL     1       4.022  29.970  52.972  1.00  0.00     0.019 A 
HETATM    8  C   UNL     1       3.323  30.866  53.781  1.00  0.00     0.001 A 
HETATM    9  C   UNL     1       3.378  30.737  55.165  1.00  0.00     0.002 A 
HETATM   10  C   UNL     1       4.158  29.733  55.742  1.00  0.00     0.030 A 
BRANCH   6  11
HETATM   11  C   UNL     1       5.317  27.889  52.637  1.00  0.00     0.254 C 
HETATM   12  N   UNL     1       4.484  27.546  51.592  1.00  0.00    -0.353 N 
HETATM   13  H   UNL     1       3.720  28.165  51.355  1.00  0.00     0.163 HD
HETATM   14  O   UNL     1       6.386  27.333  52.868  1.00  0.00    -0.268 OA
BRANCH  12  15
HETATM   15  C   UNL     1       4.883  26.561  50.610  1.00  0.00     0.162 C 
BRANCH  15  16
HETATM   16  C   UNL     1       4.062  26.658  49.356  1.00  0.00    -0.023 A 
HETATM   17  C   UNL     1       3.645  27.894  48.870  1.00  0.00     0.125 A 
HETATM   18  N   UNL     1       2.948  28.067  47.723  1.00  0.00    -0.273 NA
HETATM   19  C   UNL     1       2.664  26.955  47.012  1.00  0.00     0.116 A 
HETATM   20  C   UNL     1       3.042  25.681  47.396  1.00  0.00     0.020 A 
HETATM   21  C   UNL     1       3.756  25.535  48.582  1.00  0.00     0.012 A 
ENDBRANCH  15  16
ENDBRANCH  12  15
ENDBRANCH   6  11
ENDBRANCH   1   5
BRANCH   2  22
HETATM   22  C   UNL     1       7.565  27.027  56.945  1.00  0.00     0.309 C 
HETATM   23  N   UNL     1       7.947  26.030  56.077  1.00  0.00    -0.353 N 
HETATM   24  H   UNL     1       7.719  26.175  55.097  1.00  0.00     0.162 HD
HETATM   25  O   UNL     1       7.710  27.024  58.159  1.00  0.00    -0.262 OA
BRANCH  23  26
HETATM   26  C   UNL     1       8.461  24.752  56.528  1.00  0.00     0.128 C 
BRANCH  26  27
HETATM   27  C   UNL     1       7.379  23.673  56.482  1.00  0.00     0.058 C 
BRANCH  27  28
HETATM   28  C   UNL     1       7.609  22.677  55.374  1.00  0.00    -0.057 A 
HETATM   29  C   UNL     1       7.643  23.101  54.037  1.00  0.00     0.010 A 
HETATM   30  C   UNL     1       7.861  22.183  53.007  1.00  0.00     0.037 A 
HETATM   31  C   UNL     1       8.036  20.838  53.316  1.00  0.00     0.065 A 
HETATM   32  C   UNL     1       7.991  20.398  54.632  1.00  0.00     0.037 A 
HETATM   33  C   UNL     1       7.777  21.316  55.662  1.00  0.00     0.010 A 
BRANCH  31  34
HETATM   34  O   UNL     1       8.257  19.909  52.342  1.00  0.00    -0.361 OA
HETATM   35  H   UNL     1       9.139  20.065  51.964  1.00  0.00     0.217 HD
ENDBRANCH  31  34
ENDBRANCH  27  28
ENDBRANCH  26  27
ENDBRANCH  23  26
ENDBRANCH   2  22
TORSDOF 9
ENDMDL
