MODEL 1
REMARK VINA RESULT:      -9.7      0.000      0.000
REMARK  9 active torsions:
REMARK  status: ('A' for Active; 'I' for Inactive)
REMARK    1  A    between atoms: S_2  and  C_3 
REMARK    2  A    between atoms: C_3  and  C_4 
REMARK    3  A    between atoms: C_5  and  C_6 
REMARK    4  A    between atoms: C_6  and  O_7 
REMARK    5  A    between atoms: O_7  and  C_8 
REMARK    6  A    between atoms: C_8  and  C_9 
REMARK       I    between atoms: C_9  and  N_10 
REMARK    7  A    between atoms: N_10  and  C_11 
REMARK    8  A    between atoms: C_12  and  C_13 
REMARK       I    between atoms: C_13  and  N_14 
REMARK    9  A    between atoms: N_14  and  C_15 
ROOT
HETATM    1  C   UNL     1       6.410  28.261  56.628  1.00  0.00     0.246 C 
HETATM    2  N   UNL     1       7.254  28.628  57.663  1.00  0.00    -0.324 N 
HETATM    3  O   UNL     1       6.453  28.714  55.489  1.00  0.00    -0.271 OA
HETATM    4  H   UNL     1       6.941  28.415  58.607  1.00  0.00     0.169 HD
ENDROOT
BRANCH   1   5
HETATM    5  C   UNL     1       5.356  27.239  57.060  1.00  0.00     0.282 C 
BRANCH   5   6
HETATM    6  O   UNL     1       5.578  25.981  56.421  1.00  0.00    -0.307 OA
BRANCH   6   7
HETATM    7  C   UNL     1       6.730  25.359  56.820  1.00  0.00     0.318 C 
HETATM    8  O   UNL     1       7.350  25.653  57.835  1.00  0.00    -0.257 OA
BRANCH   7   9
HETATM    9  C   UNL     1       7.071  24.279  55.924  1.00  0.00     0.159 A 
HETATM   10  C   UNL     1       7.154  24.256  54.534  1.00  0.00     0.004 A 
HETATM   11  C   UNL     1       7.548  22.927  54.183  1.00  0.00     0.008 A 
HETATM   12  C   UNL     1       7.682  22.237  55.379  1.00  0.00     0.087 A 
HETATM   13  C   UNL     1       7.806  22.241  52.981  1.00  0.00     0.015 A 
HETATM   14  O   UNL     1       7.400  23.050  56.431  1.00  0.00    -0.303 OA
HETATM   15  C   UNL     1       8.059  20.899  55.471  1.00  0.00     0.038 A 
HETATM   16  C   UNL     1       8.313  20.236  54.267  1.00  0.00     0.003 A 
HETATM   17  C   UNL     1       8.189  20.893  53.041  1.00  0.00     0.001 A 
BRANCH  10  18
HETATM   18  C   UNL     1       6.907  25.393  53.603  1.00  0.00     0.116 C 
BRANCH  18  19
HETATM   19  S   UNL     1       5.270  25.244  52.827  1.00  0.00    -0.169 SA
HETATM   20  C   UNL     1       5.575  26.275  51.374  1.00  0.00     0.090 C 
ENDBRANCH  18  19
ENDBRANCH  10  18
ENDBRANCH   7   9
ENDBRANCH   6   7
ENDBRANCH   5   6
ENDBRANCH   1   5
BRANCH   2  21
HETATM   21  C   UNL     1       8.465  29.350  57.545  1.00  0.00     0.050 A 
HETATM   22  C   UNL     1       8.735  30.421  58.420  1.00  0.00     0.058 A 
HETATM   23  C   UNL     1       9.985  31.055  58.417  1.00  0.00     0.019 A 
HETATM   24  C   UNL     1      10.966  30.649  57.515  1.00  0.00     0.001 A 
HETATM   25  C   UNL     1      10.697  29.617  56.618  1.00  0.00     0.002 A 
HETATM   26  C   UNL     1       9.456  28.971  56.632  1.00  0.00     0.030 A 
BRANCH  22  27
HETATM   27  C   UNL     1       7.692  30.982  59.316  1.00  0.00     0.254 C 
HETATM   28  N   UNL     1       8.097  31.135  60.630  1.00  0.00    -0.352 N 
HETATM   29  H   UNL     1       8.989  30.732  60.900  1.00  0.00     0.163 HD
HETATM   30  O   UNL     1       6.578  31.250  58.886  1.00  0.00    -0.268 OA
BRANCH  28  31
HETATM   31  C   UNL     1       7.254  31.646  61.664  1.00  0.00     0.084 A 
HETATM   32  C   UNL     1       7.852  32.156  62.946  1.00  0.00     0.027 A 
HETATM   33  C   UNL     1       7.254  33.120  61.965  1.00  0.00     0.027 A 
ENDBRANCH  28  31
ENDBRANCH  22  27
ENDBRANCH   2  21
TORSDOF 9
ENDMDL
MODEL 2
REMARK VINA RESULT:      -9.6      1.473      2.368
REMARK  9 active torsions:
REMARK  status: ('A' for Active; 'I' for Inactive)
REMARK    1  A    between atoms: S_2  and  C_3 
REMARK    2  A    between atoms: C_3  and  C_4 
REMARK    3  A    between atoms: C_5  and  C_6 
REMARK    4  A    between atoms: C_6  and  O_7 
REMARK    5  A    between atoms: O_7  and  C_8 
REMARK    6  A    between atoms: C_8  and  C_9 
REMARK       I    between atoms: C_9  and  N_10 
REMARK    7  A    between atoms: N_10  and  C_11 
REMARK    8  A    between atoms: C_12  and  C_13 
REMARK       I    between atoms: C_13  and  N_14 
REMARK    9  A    between atoms: N_14  and  C_15 
ROOT
HETATM    1  C   UNL     1       7.575  27.685  56.550  1.00  0.00     0.246 C 
HETATM    2  N   UNL     1       6.734  28.184  57.530  1.00  0.00    -0.324 N 
HETATM    3  O   UNL     1       7.681  28.136  55.415  1.00  0.00    -0.271 OA
HETATM    4  H   UNL     1       6.516  27.565  58.307  1.00  0.00     0.169 HD
ENDROOT
BRANCH   1   5
HETATM    5  C   UNL     1       8.351  26.449  57.013  1.00  0.00     0.282 C 
BRANCH   5   6
HETATM    6  O   UNL     1       7.488  25.532  57.686  1.00  0.00    -0.307 OA
BRANCH   6   7
HETATM    7  C   UNL     1       6.454  25.082  56.911  1.00  0.00     0.318 C 
HETATM    8  O   UNL     1       5.313  25.523  56.969  1.00  0.00    -0.257 OA
BRANCH   7   9
HETATM    9  C   UNL     1       6.906  24.071  55.984  1.00  0.00     0.159 A 
HETATM   10  C   UNL     1       7.013  24.106  54.596  1.00  0.00     0.004 A 
HETATM   11  C   UNL     1       7.530  22.832  54.206  1.00  0.00     0.008 A 
HETATM   12  C   UNL     1       7.705  22.112  55.379  1.00  0.00     0.087 A 
HETATM   13  C   UNL     1       7.868  22.216  52.986  1.00  0.00     0.015 A 
HETATM   14  O   UNL     1       7.333  22.858  56.453  1.00  0.00    -0.303 OA
HETATM   15  C   UNL     1       8.198  20.810  55.431  1.00  0.00     0.038 A 
HETATM   16  C   UNL     1       8.530  20.217  54.209  1.00  0.00     0.003 A 
HETATM   17  C   UNL     1       8.368  20.906  53.005  1.00  0.00     0.001 A 
BRANCH  10  18
HETATM   18  C   UNL     1       6.682  25.251  53.702  1.00  0.00     0.116 C 
BRANCH  18  19
HETATM   19  S   UNL     1       4.960  25.140  53.128  1.00  0.00    -0.169 SA
HETATM   20  C   UNL     1       5.223  25.657  51.415  1.00  0.00     0.090 C 
ENDBRANCH  18  19
ENDBRANCH  10  18
ENDBRANCH   7   9
ENDBRANCH   6   7
ENDBRANCH   5   6
ENDBRANCH   1   5
BRANCH   2  21
HETATM   21  C   UNL     1       6.074  29.436  57.514  1.00  0.00     0.050 A 
HETATM   22  C   UNL     1       6.671  30.554  58.131  1.00  0.00     0.058 A 
HETATM   23  C   UNL     1       6.108  31.832  58.003  1.00  0.00     0.019 A 
HETATM   24  C   UNL     1       4.925  31.999  57.287  1.00  0.00     0.001 A 
HETATM   25  C   UNL     1       4.305  30.895  56.706  1.00  0.00     0.002 A 
HETATM   26  C   UNL     1       4.875  29.622  56.817  1.00  0.00     0.030 A 
BRANCH  22  27
HETATM   27  C   UNL     1       7.861  30.422  59.010  1.00  0.00     0.254 C 
HETATM   28  N   UNL     1       7.638  30.795  60.324  1.00  0.00    -0.352 N 
HETATM   29  H   UNL     1       6.758  31.251  60.543  1.00  0.00     0.163 HD
HETATM   30  O   UNL     1       8.928  30.031  58.559  1.00  0.00    -0.268 OA
BRANCH  28  31
HETATM   31  C   UNL     1       8.643  30.758  61.338  1.00  0.00     0.084 A 
HETATM   32  C   UNL     1       9.670  31.853  61.428  1.00  0.00     0.027 A 
HETATM   33  C   UNL     1       8.596  31.749  62.470  1.00  0.00     0.027 A 
ENDBRANCH  28  31
ENDBRANCH  22  27
ENDBRANCH   2  21
TORSDOF 9
ENDMDL
MODEL 3
REMARK VINA RESULT:      -9.3      2.697      8.934
REMARK  9 active torsions:
REMARK  status: ('A' for Active; 'I' for Inactive)
REMARK    1  A    between atoms: S_2  and  C_3 
REMARK    2  A    between atoms: C_3  and  C_4 
REMARK    3  A    between atoms: C_5  and  C_6 
REMARK    4  A    between atoms: C_6  and  O_7 
REMARK    5  A    between atoms: O_7  and  C_8 
REMARK    6  A    between atoms: C_8  and  C_9 
REMARK       I    between atoms: C_9  and  N_10 
REMARK    7  A    between atoms: N_10  and  C_11 
REMARK    8  A    between atoms: C_12  and  C_13 
REMARK       I    between atoms: C_13  and  N_14 
REMARK    9  A    between atoms: N_14  and  C_15 
ROOT
HETATM    1  C   UNL     1       8.015  24.855  57.011  1.00  0.00     0.246 C 
HETATM    2  N   UNL     1       7.113  24.291  56.126  1.00  0.00    -0.324 N 
HETATM    3  O   UNL     1       9.110  24.384  57.298  1.00  0.00    -0.271 OA
HETATM    4  H   UNL     1       6.146  24.601  56.194  1.00  0.00     0.169 HD
ENDROOT
BRANCH   1   5
HETATM    5  C   UNL     1       7.485  26.139  57.654  1.00  0.00     0.282 C 
BRANCH   5   6
HETATM    6  O   UNL     1       8.445  27.191  57.549  1.00  0.00    -0.307 OA
BRANCH   6   7
HETATM    7  C   UNL     1       7.937  28.346  57.020  1.00  0.00     0.318 C 
HETATM    8  O   UNL     1       7.541  28.454  55.866  1.00  0.00    -0.257 OA
BRANCH   7   9
HETATM    9  C   UNL     1       7.876  29.389  58.018  1.00  0.00     0.159 A 
HETATM   10  C   UNL     1       7.048  30.504  58.104  1.00  0.00     0.004 A 
HETATM   11  C   UNL     1       7.418  31.181  59.308  1.00  0.00     0.008 A 
HETATM   12  C   UNL     1       8.441  30.432  59.872  1.00  0.00     0.087 A 
HETATM   13  C   UNL     1       6.994  32.345  59.976  1.00  0.00     0.015 A 
HETATM   14  O   UNL     1       8.717  29.348  59.099  1.00  0.00    -0.303 OA
HETATM   15  C   UNL     1       9.082  30.757  61.065  1.00  0.00     0.038 A 
HETATM   16  C   UNL     1       8.645  31.915  61.715  1.00  0.00     0.003 A 
HETATM   17  C   UNL     1       7.619  32.698  61.181  1.00  0.00     0.001 A 
BRANCH  10  18
HETATM   18  C   UNL     1       5.973  30.897  57.150  1.00  0.00     0.116 C 
BRANCH  18  19
HETATM   19  S   UNL     1       4.332  30.575  57.863  1.00  0.00    -0.169 SA
HETATM   20  C   UNL     1       3.774  32.288  58.016  1.00  0.00     0.090 C 
ENDBRANCH  18  19
ENDBRANCH  10  18
ENDBRANCH   7   9
ENDBRANCH   6   7
ENDBRANCH   5   6
ENDBRANCH   1   5
BRANCH   2  21
HETATM   21  C   UNL     1       7.381  23.257  55.196  1.00  0.00     0.050 A 
HETATM   22  C   UNL     1       7.618  23.572  53.842  1.00  0.00     0.058 A 
HETATM   23  C   UNL     1       8.027  22.585  52.936  1.00  0.00     0.019 A 
HETATM   24  C   UNL     1       8.169  21.267  53.364  1.00  0.00     0.001 A 
HETATM   25  C   UNL     1       7.899  20.937  54.690  1.00  0.00     0.002 A 
HETATM   26  C   UNL     1       7.508  21.924  55.601  1.00  0.00     0.030 A 
BRANCH  22  27
HETATM   27  C   UNL     1       7.364  24.930  53.298  1.00  0.00     0.254 C 
HETATM   28  N   UNL     1       6.493  24.955  52.223  1.00  0.00    -0.352 N 
HETATM   29  H   UNL     1       6.221  24.066  51.814  1.00  0.00     0.163 HD
HETATM   30  O   UNL     1       7.917  25.909  53.780  1.00  0.00    -0.268 OA
BRANCH  28  31
HETATM   31  C   UNL     1       6.114  26.150  51.538  1.00  0.00     0.084 A 
HETATM   32  C   UNL     1       5.017  26.119  50.510  1.00  0.00     0.027 A 
HETATM   33  C   UNL     1       4.784  26.788  51.832  1.00  0.00     0.027 A 
ENDBRANCH  28  31
ENDBRANCH  22  27
ENDBRANCH   2  21
TORSDOF 9
ENDMDL
MODEL 4
REMARK VINA RESULT:      -9.2      2.456      9.285
REMARK  9 active torsions:
REMARK  status: ('A' for Active; 'I' for Inactive)
REMARK    1  A    between atoms: S_2  and  C_3 
REMARK    2  A    between atoms: C_3  and  C_4 
REMARK    3  A    between atoms: C_5  and  C_6 
REMARK    4  A    between atoms: C_6  and  O_7 
REMARK    5  A    between atoms: O_7  and  C_8 
REMARK    6  A    between atoms: C_8  and  C_9 
REMARK       I    between atoms: C_9  and  N_10 
REMARK    7  A    between atoms: N_10  and  C_11 
REMARK    8  A    between atoms: C_12  and  C_13 
REMARK       I    between atoms: C_13  and  N_14 
REMARK    9  A    between atoms: N_14  and  C_15 
ROOT
HETATM    1  C   UNL     1       7.027  27.091  56.056  1.00  0.00     0.246 C 
HETATM    2  N   UNL     1       7.512  26.730  54.810  1.00  0.00    -0.324 N 
HETATM    3  O   UNL     1       5.862  27.389  56.299  1.00  0.00    -0.271 OA
HETATM    4  H   UNL     1       8.518  26.796  54.673  1.00  0.00     0.169 HD
ENDROOT
BRANCH   1   5
HETATM    5  C   UNL     1       8.120  27.131  57.126  1.00  0.00     0.282 C 
BRANCH   5   6
HETATM    6  O   UNL     1       7.810  28.098  58.130  1.00  0.00    -0.307 OA
BRANCH   6   7
HETATM    7  C   UNL     1       8.526  29.258  58.014  1.00  0.00     0.318 C 
HETATM    8  O   UNL     1       9.315  29.487  57.106  1.00  0.00    -0.257 OA
BRANCH   7   9
HETATM    9  C   UNL     1       8.178  30.188  59.063  1.00  0.00     0.159 A 
HETATM   10  C   UNL     1       7.243  31.219  59.077  1.00  0.00     0.004 A 
HETATM   11  C   UNL     1       7.314  31.801  60.381  1.00  0.00     0.008 A 
HETATM   12  C   UNL     1       8.282  31.083  61.071  1.00  0.00     0.087 A 
HETATM   13  C   UNL     1       6.661  32.855  61.048  1.00  0.00     0.015 A 
HETATM   14  O   UNL     1       8.801  30.107  60.280  1.00  0.00    -0.303 OA
HETATM   15  C   UNL     1       8.652  31.337  62.389  1.00  0.00     0.038 A 
HETATM   16  C   UNL     1       7.991  32.386  63.034  1.00  0.00     0.003 A 
HETATM   17  C   UNL     1       7.012  33.135  62.377  1.00  0.00     0.001 A 
BRANCH  10  18
HETATM   18  C   UNL     1       6.333  31.618  57.967  1.00  0.00     0.116 C 
BRANCH  18  19
HETATM   19  S   UNL     1       4.921  30.479  57.853  1.00  0.00    -0.169 SA
HETATM   20  C   UNL     1       4.511  30.746  56.112  1.00  0.00     0.090 C 
ENDBRANCH  18  19
ENDBRANCH  10  18
ENDBRANCH   7   9
ENDBRANCH   6   7
ENDBRANCH   5   6
ENDBRANCH   1   5
BRANCH   2  21
HETATM   21  C   UNL     1       6.741  26.366  53.681  1.00  0.00     0.050 A 
HETATM   22  C   UNL     1       6.465  25.007  53.425  1.00  0.00     0.058 A 
HETATM   23  C   UNL     1       5.586  24.632  52.399  1.00  0.00     0.019 A 
HETATM   24  C   UNL     1       5.003  25.609  51.596  1.00  0.00     0.001 A 
HETATM   25  C   UNL     1       5.299  26.953  51.814  1.00  0.00     0.002 A 
HETATM   26  C   UNL     1       6.162  27.330  52.849  1.00  0.00     0.030 A 
BRANCH  22  27
HETATM   27  C   UNL     1       7.152  23.916  54.163  1.00  0.00     0.254 C 
HETATM   28  N   UNL     1       7.806  23.008  53.350  1.00  0.00    -0.352 N 
HETATM   29  H   UNL     1       7.651  23.071  52.349  1.00  0.00     0.163 HD
HETATM   30  O   UNL     1       7.096  23.858  55.384  1.00  0.00    -0.268 OA
BRANCH  28  31
HETATM   31  C   UNL     1       8.523  21.876  53.845  1.00  0.00     0.084 A 
HETATM   32  C   UNL     1       7.783  20.639  54.273  1.00  0.00     0.027 A 
HETATM   33  C   UNL     1       8.600  20.622  53.016  1.00  0.00     0.027 A 
ENDBRANCH  28  31
ENDBRANCH  22  27
ENDBRANCH   2  21
TORSDOF 9
ENDMDL
MODEL 5
REMARK VINA RESULT:      -9.1      1.860      3.563
REMARK  9 active torsions:
REMARK  status: ('A' for Active; 'I' for Inactive)
REMARK    1  A    between atoms: S_2  and  C_3 
REMARK    2  A    between atoms: C_3  and  C_4 
REMARK    3  A    between atoms: C_5  and  C_6 
REMARK    4  A    between atoms: C_6  and  O_7 
REMARK    5  A    between atoms: O_7  and  C_8 
REMARK    6  A    between atoms: C_8  and  C_9 
REMARK       I    between atoms: C_9  and  N_10 
REMARK    7  A    between atoms: N_10  and  C_11 
REMARK    8  A    between atoms: C_12  and  C_13 
REMARK       I    between atoms: C_13  and  N_14 
REMARK    9  A    between atoms: N_14  and  C_15 
ROOT
HETATM    1  C   UNL     1       9.381  29.789  57.740  1.00  0.00     0.246 C 
HETATM    2  N   UNL     1       8.448  29.754  58.763  1.00  0.00    -0.324 N 
HETATM    3  O   UNL     1      10.081  30.754  57.456  1.00  0.00    -0.271 OA
HETATM    4  H   UNL     1       7.738  29.027  58.713  1.00  0.00     0.169 HD
ENDROOT
BRANCH   1   5
HETATM    5  C   UNL     1       9.428  28.484  56.942  1.00  0.00     0.282 C 
BRANCH   5   6
HETATM    6  O   UNL     1       8.109  28.007  56.672  1.00  0.00    -0.307 OA
BRANCH   6   7
HETATM    7  C   UNL     1       7.838  26.792  57.239  1.00  0.00     0.318 C 
HETATM    8  O   UNL     1       7.594  26.631  58.429  1.00  0.00    -0.257 OA
BRANCH   7   9
HETATM    9  C   UNL     1       7.818  25.748  56.241  1.00  0.00     0.159 A 
HETATM   10  C   UNL     1       7.058  25.627  55.081  1.00  0.00     0.004 A 
HETATM   11  C   UNL     1       7.462  24.400  54.468  1.00  0.00     0.008 A 
HETATM   12  C   UNL     1       8.441  23.862  55.293  1.00  0.00     0.087 A 
HETATM   13  C   UNL     1       7.104  23.693  53.305  1.00  0.00     0.015 A 
HETATM   14  O   UNL     1       8.661  24.675  56.360  1.00  0.00    -0.303 OA
HETATM   15  C   UNL     1       9.098  22.660  55.044  1.00  0.00     0.038 A 
HETATM   16  C   UNL     1       8.729  21.974  53.882  1.00  0.00     0.003 A 
HETATM   17  C   UNL     1       7.749  22.479  53.026  1.00  0.00     0.001 A 
BRANCH  10  18
HETATM   18  C   UNL     1       6.048  26.594  54.568  1.00  0.00     0.116 C 
BRANCH  18  19
HETATM   19  S   UNL     1       6.814  27.773  53.416  1.00  0.00    -0.169 SA
HETATM   20  C   UNL     1       5.305  28.403  52.644  1.00  0.00     0.090 C 
ENDBRANCH  18  19
ENDBRANCH  10  18
ENDBRANCH   7   9
ENDBRANCH   6   7
ENDBRANCH   5   6
ENDBRANCH   1   5
BRANCH   2  21
HETATM   21  C   UNL     1       8.327  30.685  59.822  1.00  0.00     0.050 A 
HETATM   22  C   UNL     1       7.226  31.564  59.865  1.00  0.00     0.058 A 
HETATM   23  C   UNL     1       7.009  32.392  60.975  1.00  0.00     0.019 A 
HETATM   24  C   UNL     1       7.909  32.375  62.038  1.00  0.00     0.001 A 
HETATM   25  C   UNL     1       9.023  31.539  61.989  1.00  0.00     0.002 A 
HETATM   26  C   UNL     1       9.231  30.699  60.890  1.00  0.00     0.030 A 
BRANCH  22  27
HETATM   27  C   UNL     1       6.302  31.720  58.712  1.00  0.00     0.254 C 
HETATM   28  N   UNL     1       5.612  30.567  58.380  1.00  0.00    -0.352 N 
HETATM   29  H   UNL     1       5.888  29.703  58.837  1.00  0.00     0.163 HD
HETATM   30  O   UNL     1       6.211  32.789  58.126  1.00  0.00    -0.268 OA
BRANCH  28  31
HETATM   31  C   UNL     1       4.681  30.485  57.301  1.00  0.00     0.084 A 
HETATM   32  C   UNL     1       5.168  30.285  55.893  1.00  0.00     0.027 A 
HETATM   33  C   UNL     1       4.461  29.169  56.604  1.00  0.00     0.027 A 
ENDBRANCH  28  31
ENDBRANCH  22  27
ENDBRANCH   2  21
TORSDOF 9
ENDMDL
MODEL 6
REMARK VINA RESULT:      -9.1      1.807      3.092
REMARK  9 active torsions:
REMARK  status: ('A' for Active; 'I' for Inactive)
REMARK    1  A    between atoms: S_2  and  C_3 
REMARK    2  A    between atoms: C_3  and  C_4 
REMARK    3  A    between atoms: C_5  and  C_6 
REMARK    4  A    between atoms: C_6  and  O_7 
REMARK    5  A    between atoms: O_7  and  C_8 
REMARK    6  A    between atoms: C_8  and  C_9 
REMARK       I    between atoms: C_9  and  N_10 
REMARK    7  A    between atoms: N_10  and  C_11 
REMARK    8  A    between atoms: C_12  and  C_13 
REMARK       I    between atoms: C_13  and  N_14 
REMARK    9  A    between atoms: N_14  and  C_15 
ROOT
HETATM    1  C   UNL     1       7.714  28.734  57.392  1.00  0.00     0.246 C 
HETATM    2  N   UNL     1       7.979  30.088  57.510  1.00  0.00    -0.324 N 
HETATM    3  O   UNL     1       7.837  27.911  58.292  1.00  0.00    -0.271 OA
HETATM    4  H   UNL     1       8.126  30.604  56.645  1.00  0.00     0.169 HD
ENDROOT
BRANCH   1   5
HETATM    5  C   UNL     1       7.283  28.339  55.978  1.00  0.00     0.282 C 
BRANCH   5   6
HETATM    6  O   UNL     1       7.630  26.981  55.704  1.00  0.00    -0.307 OA
BRANCH   6   7
HETATM    7  C   UNL     1       6.548  26.168  55.506  1.00  0.00     0.318 C 
HETATM    8  O   UNL     1       5.388  26.513  55.696  1.00  0.00    -0.257 OA
BRANCH   7   9
HETATM    9  C   UNL     1       6.955  24.883  54.986  1.00  0.00     0.159 A 
HETATM   10  C   UNL     1       7.361  24.518  53.706  1.00  0.00     0.004 A 
HETATM   11  C   UNL     1       7.658  23.121  53.767  1.00  0.00     0.008 A 
HETATM   12  C   UNL     1       7.417  22.733  55.078  1.00  0.00     0.087 A 
HETATM   13  C   UNL     1       8.107  22.148  52.853  1.00  0.00     0.015 A 
HETATM   14  O   UNL     1       6.996  23.794  55.816  1.00  0.00    -0.303 OA
HETATM   15  C   UNL     1       7.590  21.436  55.554  1.00  0.00     0.038 A 
HETATM   16  C   UNL     1       8.038  20.485  54.631  1.00  0.00     0.003 A 
HETATM   17  C   UNL     1       8.292  20.833  53.303  1.00  0.00     0.001 A 
BRANCH  10  18
HETATM   18  C   UNL     1       7.488  25.409  52.518  1.00  0.00     0.116 C 
BRANCH  18  19
HETATM   19  S   UNL     1       5.866  25.678  51.742  1.00  0.00    -0.169 SA
HETATM   20  C   UNL     1       5.697  27.443  52.096  1.00  0.00     0.090 C 
ENDBRANCH  18  19
ENDBRANCH  10  18
ENDBRANCH   7   9
ENDBRANCH   6   7
ENDBRANCH   5   6
ENDBRANCH   1   5
BRANCH   2  21
HETATM   21  C   UNL     1       8.158  30.809  58.715  1.00  0.00     0.050 A 
HETATM   22  C   UNL     1       7.110  31.606  59.220  1.00  0.00     0.058 A 
HETATM   23  C   UNL     1       7.211  32.210  60.481  1.00  0.00     0.019 A 
HETATM   24  C   UNL     1       8.373  32.054  61.234  1.00  0.00     0.001 A 
HETATM   25  C   UNL     1       9.430  31.301  60.727  1.00  0.00     0.002 A 
HETATM   26  C   UNL     1       9.325  30.682  59.477  1.00  0.00     0.030 A 
BRANCH  22  27
HETATM   27  C   UNL     1       5.901  31.913  58.415  1.00  0.00     0.254 C 
HETATM   28  N   UNL     1       4.986  30.877  58.350  1.00  0.00    -0.352 N 
HETATM   29  H   UNL     1       5.267  29.974  58.721  1.00  0.00     0.163 HD
HETATM   30  O   UNL     1       5.781  32.996  57.859  1.00  0.00    -0.268 OA
BRANCH  28  31
HETATM   31  C   UNL     1       3.759  30.949  57.624  1.00  0.00     0.084 A 
HETATM   32  C   UNL     1       3.767  31.244  56.150  1.00  0.00     0.027 A 
HETATM   33  C   UNL     1       3.414  29.869  56.634  1.00  0.00     0.027 A 
ENDBRANCH  28  31
ENDBRANCH  22  27
ENDBRANCH   2  21
TORSDOF 9
ENDMDL
MODEL 7
REMARK VINA RESULT:      -8.8      2.807      9.161
REMARK  9 active torsions:
REMARK  status: ('A' for Active; 'I' for Inactive)
REMARK    1  A    between atoms: S_2  and  C_3 
REMARK    2  A    between atoms: C_3  and  C_4 
REMARK    3  A    between atoms: C_5  and  C_6 
REMARK    4  A    between atoms: C_6  and  O_7 
REMARK    5  A    between atoms: O_7  and  C_8 
REMARK    6  A    between atoms: C_8  and  C_9 
REMARK       I    between atoms: C_9  and  N_10 
REMARK    7  A    between atoms: N_10  and  C_11 
REMARK    8  A    between atoms: C_12  and  C_13 
REMARK       I    between atoms: C_13  and  N_14 
REMARK    9  A    between atoms: N_14  and  C_15 
ROOT
HETATM    1  C   UNL     1       5.710  27.171  55.707  1.00  0.00     0.246 C 
HETATM    2  N   UNL     1       5.328  26.412  54.614  1.00  0.00    -0.324 N 
HETATM    3  O   UNL     1       6.694  26.955  56.406  1.00  0.00    -0.271 OA
HETATM    4  H   UNL     1       4.363  26.503  54.305  1.00  0.00     0.169 HD
ENDROOT
BRANCH   1   5
HETATM    5  C   UNL     1       4.736  28.314  55.999  1.00  0.00     0.282 C 
BRANCH   5   6
HETATM    6  O   UNL     1       5.113  29.009  57.188  1.00  0.00    -0.307 OA
BRANCH   6   7
HETATM    7  C   UNL     1       5.814  30.160  56.951  1.00  0.00     0.318 C 
HETATM    8  O   UNL     1       5.745  30.802  55.910  1.00  0.00    -0.257 OA
BRANCH   7   9
HETATM    9  C   UNL     1       6.589  30.542  58.109  1.00  0.00     0.159 A 
HETATM   10  C   UNL     1       7.845  30.116  58.532  1.00  0.00     0.004 A 
HETATM   11  C   UNL     1       8.124  30.837  59.735  1.00  0.00     0.008 A 
HETATM   12  C   UNL     1       7.023  31.652  59.959  1.00  0.00     0.087 A 
HETATM   13  C   UNL     1       9.191  30.885  60.653  1.00  0.00     0.015 A 
HETATM   14  O   UNL     1       6.098  31.480  58.979  1.00  0.00    -0.303 OA
HETATM   15  C   UNL     1       6.903  32.523  61.040  1.00  0.00     0.038 A 
HETATM   16  C   UNL     1       7.974  32.557  61.938  1.00  0.00     0.003 A 
HETATM   17  C   UNL     1       9.099  31.752  61.751  1.00  0.00     0.001 A 
BRANCH  10  18
HETATM   18  C   UNL     1       8.731  29.129  57.853  1.00  0.00     0.116 C 
BRANCH  18  19
HETATM   19  S   UNL     1      10.178  29.958  57.128  1.00  0.00    -0.169 SA
HETATM   20  C   UNL     1       9.921  29.472  55.405  1.00  0.00     0.090 C 
ENDBRANCH  18  19
ENDBRANCH  10  18
ENDBRANCH   7   9
ENDBRANCH   6   7
ENDBRANCH   5   6
ENDBRANCH   1   5
BRANCH   2  21
HETATM   21  C   UNL     1       6.120  25.452  53.939  1.00  0.00     0.050 A 
HETATM   22  C   UNL     1       6.480  25.658  52.592  1.00  0.00     0.058 A 
HETATM   23  C   UNL     1       7.380  24.797  51.948  1.00  0.00     0.019 A 
HETATM   24  C   UNL     1       7.901  23.702  52.633  1.00  0.00     0.001 A 
HETATM   25  C   UNL     1       7.523  23.466  53.953  1.00  0.00     0.002 A 
HETATM   26  C   UNL     1       6.638  24.334  54.603  1.00  0.00     0.030 A 
BRANCH  22  27
HETATM   27  C   UNL     1       5.863  26.731  51.771  1.00  0.00     0.254 C 
HETATM   28  N   UNL     1       5.478  26.326  50.506  1.00  0.00    -0.352 N 
HETATM   29  H   UNL     1       5.767  25.403  50.196  1.00  0.00     0.163 HD
HETATM   30  O   UNL     1       5.747  27.865  52.214  1.00  0.00    -0.268 OA
BRANCH  28  31
HETATM   31  C   UNL     1       4.874  27.193  49.546  1.00  0.00     0.084 A 
HETATM   32  C   UNL     1       4.875  26.829  48.088  1.00  0.00     0.027 A 
HETATM   33  C   UNL     1       3.595  26.781  48.869  1.00  0.00     0.027 A 
ENDBRANCH  28  31
ENDBRANCH  22  27
ENDBRANCH   2  21
TORSDOF 9
ENDMDL
MODEL 8
REMARK VINA RESULT:      -8.8      2.411      4.948
REMARK  9 active torsions:
REMARK  status: ('A' for Active; 'I' for Inactive)
REMARK    1  A    between atoms: S_2  and  C_3 
REMARK    2  A    between atoms: C_3  and  C_4 
REMARK    3  A    between atoms: C_5  and  C_6 
REMARK    4  A    between atoms: C_6  and  O_7 
REMARK    5  A    between atoms: O_7  and  C_8 
REMARK    6  A    between atoms: C_8  and  C_9 
REMARK       I    between atoms: C_9  and  N_10 
REMARK    7  A    between atoms: N_10  and  C_11 
REMARK    8  A    between atoms: C_12  and  C_13 
REMARK       I    between atoms: C_13  and  N_14 
REMARK    9  A    between atoms: N_14  and  C_15 
ROOT
HETATM    1  C   UNL     1       8.683  31.567  59.640  1.00  0.00     0.246 C 
HETATM    2  N   UNL     1       7.764  31.278  60.635  1.00  0.00    -0.324 N 
HETATM    3  O   UNL     1       9.161  32.675  59.422  1.00  0.00    -0.271 OA
HETATM    4  H   UNL     1       7.230  30.418  60.532  1.00  0.00     0.169 HD
ENDROOT
BRANCH   1   5
HETATM    5  C   UNL     1       9.025  30.347  58.782  1.00  0.00     0.282 C 
BRANCH   5   6
HETATM    6  O   UNL     1       8.034  29.329  58.931  1.00  0.00    -0.307 OA
BRANCH   6   7
HETATM    7  C   UNL     1       7.243  29.170  57.826  1.00  0.00     0.318 C 
HETATM    8  O   UNL     1       6.639  30.084  57.278  1.00  0.00    -0.257 OA
BRANCH   7   9
HETATM    9  C   UNL     1       7.269  27.801  57.365  1.00  0.00     0.159 A 
HETATM   10  C   UNL     1       6.401  27.122  56.513  1.00  0.00     0.004 A 
HETATM   11  C   UNL     1       6.919  25.795  56.396  1.00  0.00     0.008 A 
HETATM   12  C   UNL     1       8.065  25.758  57.179  1.00  0.00     0.087 A 
HETATM   13  C   UNL     1       6.539  24.625  55.710  1.00  0.00     0.015 A 
HETATM   14  O   UNL     1       8.280  26.968  57.761  1.00  0.00    -0.303 OA
HETATM   15  C   UNL     1       8.871  24.632  57.332  1.00  0.00     0.038 A 
HETATM   16  C   UNL     1       8.478  23.482  56.640  1.00  0.00     0.003 A 
HETATM   17  C   UNL     1       7.332  23.476  55.843  1.00  0.00     0.001 A 
BRANCH  10  18
HETATM   18  C   UNL     1       5.193  27.675  55.838  1.00  0.00     0.116 C 
BRANCH  18  19
HETATM   19  S   UNL     1       5.595  28.224  54.152  1.00  0.00    -0.169 SA
HETATM   20  C   UNL     1       3.986  27.912  53.387  1.00  0.00     0.090 C 
ENDBRANCH  18  19
ENDBRANCH  10  18
ENDBRANCH   7   9
ENDBRANCH   6   7
ENDBRANCH   5   6
ENDBRANCH   1   5
BRANCH   2  21
HETATM   21  C   UNL     1       7.427  32.104  61.734  1.00  0.00     0.050 A 
HETATM   22  C   UNL     1       6.195  32.789  61.749  1.00  0.00     0.058 A 
HETATM   23  C   UNL     1       5.778  33.494  62.886  1.00  0.00     0.019 A 
HETATM   24  C   UNL     1       6.603  33.552  64.007  1.00  0.00     0.001 A 
HETATM   25  C   UNL     1       7.841  32.912  63.990  1.00  0.00     0.002 A 
HETATM   26  C   UNL     1       8.251  32.193  62.862  1.00  0.00     0.030 A 
BRANCH  22  27
HETATM   27  C   UNL     1       5.329  32.869  60.545  1.00  0.00     0.254 C 
HETATM   28  N   UNL     1       4.733  34.104  60.358  1.00  0.00    -0.352 N 
HETATM   29  H   UNL     1       4.813  34.786  61.107  1.00  0.00     0.163 HD
HETATM   30  O   UNL     1       5.172  31.894  59.823  1.00  0.00    -0.268 OA
BRANCH  28  31
HETATM   31  C   UNL     1       3.854  34.403  59.273  1.00  0.00     0.084 A 
HETATM   32  C   UNL     1       3.478  35.827  58.972  1.00  0.00     0.027 A 
HETATM   33  C   UNL     1       4.392  35.084  58.044  1.00  0.00     0.027 A 
ENDBRANCH  28  31
ENDBRANCH  22  27
ENDBRANCH   2  21
TORSDOF 9
ENDMDL
MODEL 9
REMARK VINA RESULT:      -8.8      4.226      7.717
REMARK  9 active torsions:
REMARK  status: ('A' for Active; 'I' for Inactive)
REMARK    1  A    between atoms: S_2  and  C_3 
REMARK    2  A    between atoms: C_3  and  C_4 
REMARK    3  A    between atoms: C_5  and  C_6 
REMARK    4  A    between atoms: C_6  and  O_7 
REMARK    5  A    between atoms: O_7  and  C_8 
REMARK    6  A    between atoms: C_8  and  C_9 
REMARK       I    between atoms: C_9  and  N_10 
REMARK    7  A    between atoms: N_10  and  C_11 
REMARK    8  A    between atoms: C_12  and  C_13 
REMARK       I    between atoms: C_13  and  N_14 
REMARK    9  A    between atoms: N_14  and  C_15 
ROOT
HETATM    1  C   UNL     1       4.492  27.980  52.435  1.00  0.00     0.246 C 
HETATM    2  N   UNL     1       5.320  27.744  51.351  1.00  0.00    -0.324 N 
HETATM    3  O   UNL     1       3.321  28.338  52.364  1.00  0.00    -0.271 OA
HETATM    4  H   UNL     1       6.321  27.745  51.529  1.00  0.00     0.169 HD
ENDROOT
BRANCH   1   5
HETATM    5  C   UNL     1       5.207  27.793  53.775  1.00  0.00     0.282 C 
BRANCH   5   6
HETATM    6  O   UNL     1       5.559  26.423  53.974  1.00  0.00    -0.307 OA
BRANCH   6   7
HETATM    7  C   UNL     1       6.896  26.173  53.825  1.00  0.00     0.318 C 
HETATM    8  O   UNL     1       7.726  27.031  53.549  1.00  0.00    -0.257 OA
BRANCH   7   9
HETATM    9  C   UNL     1       7.197  24.787  54.098  1.00  0.00     0.159 A 
HETATM   10  C   UNL     1       7.196  24.086  55.301  1.00  0.00     0.004 A 
HETATM   11  C   UNL     1       7.557  22.741  54.977  1.00  0.00     0.008 A 
HETATM   12  C   UNL     1       7.748  22.715  53.602  1.00  0.00     0.087 A 
HETATM   13  C   UNL     1       7.740  21.548  55.701  1.00  0.00     0.015 A 
HETATM   14  O   UNL     1       7.528  23.946  53.069  1.00  0.00    -0.303 OA
HETATM   15  C   UNL     1       8.110  21.577  52.885  1.00  0.00     0.038 A 
HETATM   16  C   UNL     1       8.285  20.402  53.622  1.00  0.00     0.003 A 
HETATM   17  C   UNL     1       8.104  20.385  55.007  1.00  0.00     0.001 A 
BRANCH  10  18
HETATM   18  C   UNL     1       6.860  24.623  56.650  1.00  0.00     0.116 C 
BRANCH  18  19
HETATM   19  S   UNL     1       8.338  25.318  57.450  1.00  0.00    -0.169 SA
HETATM   20  C   UNL     1       7.928  27.071  57.276  1.00  0.00     0.090 C 
ENDBRANCH  18  19
ENDBRANCH  10  18
ENDBRANCH   7   9
ENDBRANCH   6   7
ENDBRANCH   5   6
ENDBRANCH   1   5
BRANCH   2  21
HETATM   21  C   UNL     1       4.917  27.591  50.003  1.00  0.00     0.050 A 
HETATM   22  C   UNL     1       5.111  28.645  49.086  1.00  0.00     0.058 A 
HETATM   23  C   UNL     1       4.854  28.465  47.720  1.00  0.00     0.019 A 
HETATM   24  C   UNL     1       4.367  27.244  47.261  1.00  0.00     0.001 A 
HETATM   25  C   UNL     1       4.134  26.208  48.163  1.00  0.00     0.002 A 
HETATM   26  C   UNL     1       4.407  26.379  49.525  1.00  0.00     0.030 A 
BRANCH  22  27
HETATM   27  C   UNL     1       5.507  30.005  49.530  1.00  0.00     0.254 C 
HETATM   28  N   UNL     1       4.871  31.029  48.851  1.00  0.00    -0.352 N 
HETATM   29  H   UNL     1       4.316  30.784  48.036  1.00  0.00     0.163 HD
HETATM   30  O   UNL     1       6.344  30.156  50.409  1.00  0.00    -0.268 OA
BRANCH  28  31
HETATM   31  C   UNL     1       5.107  32.415  49.106  1.00  0.00     0.084 A 
HETATM   32  C   UNL     1       6.308  33.101  48.515  1.00  0.00     0.027 A 
HETATM   33  C   UNL     1       4.936  33.417  47.996  1.00  0.00     0.027 A 
ENDBRANCH  28  31
ENDBRANCH  22  27
ENDBRANCH   2  21
TORSDOF 9
ENDMDL
MODEL 10
REMARK VINA RESULT:      -8.6      2.719      9.390
REMARK  9 active torsions:
REMARK  status: ('A' for Active; 'I' for Inactive)
REMARK    1  A    between atoms: S_2  and  C_3 
REMARK    2  A    between atoms: C_3  and  C_4 
REMARK    3  A    between atoms: C_5  and  C_6 
REMARK    4  A    between atoms: C_6  and  O_7 
REMARK    5  A    between atoms: O_7  and  C_8 
REMARK    6  A    between atoms: C_8  and  C_9 
REMARK       I    between atoms: C_9  and  N_10 
REMARK    7  A    between atoms: N_10  and  C_11 
REMARK    8  A    between atoms: C_12  and  C_13 
REMARK       I    between atoms: C_13  and  N_14 
REMARK    9  A    between atoms: N_14  and  C_15 
ROOT
HETATM    1  C   UNL     1       5.737  28.526  55.647  1.00  0.00     0.246 C 
HETATM    2  N   UNL     1       4.873  27.622  55.051  1.00  0.00    -0.324 N 
HETATM    3  O   UNL     1       6.891  28.737  55.293  1.00  0.00    -0.271 OA
HETATM    4  H   UNL     1       4.070  27.325  55.600  1.00  0.00     0.169 HD
ENDROOT
BRANCH   1   5
HETATM    5  C   UNL     1       5.113  29.228  56.856  1.00  0.00     0.282 C 
BRANCH   5   6
HETATM    6  O   UNL     1       6.127  29.699  57.745  1.00  0.00    -0.307 OA
BRANCH   6   7
HETATM    7  C   UNL     1       6.142  31.060  57.886  1.00  0.00     0.318 C 
HETATM    8  O   UNL     1       5.762  31.842  57.023  1.00  0.00    -0.257 OA
BRANCH   7   9
HETATM    9  C   UNL     1       6.604  31.439  59.201  1.00  0.00     0.159 A 
HETATM   10  C   UNL     1       7.800  31.149  59.853  1.00  0.00     0.004 A 
HETATM   11  C   UNL     1       7.723  31.792  61.127  1.00  0.00     0.008 A 
HETATM   12  C   UNL     1       6.492  32.432  61.162  1.00  0.00     0.087 A 
HETATM   13  C   UNL     1       8.566  31.901  62.250  1.00  0.00     0.015 A 
HETATM   14  O   UNL     1       5.816  32.224  60.000  1.00  0.00    -0.303 OA
HETATM   15  C   UNL     1       6.030  33.180  62.242  1.00  0.00     0.038 A 
HETATM   16  C   UNL     1       6.883  33.278  63.346  1.00  0.00     0.003 A 
HETATM   17  C   UNL     1       8.130  32.649  63.352  1.00  0.00     0.001 A 
BRANCH  10  18
HETATM   18  C   UNL     1       8.940  30.351  59.319  1.00  0.00     0.116 C 
BRANCH  18  19
HETATM   19  S   UNL     1      10.052  31.401  58.335  1.00  0.00    -0.169 SA
HETATM   20  C   UNL     1      10.846  30.099  57.363  1.00  0.00     0.090 C 
ENDBRANCH  18  19
ENDBRANCH  10  18
ENDBRANCH   7   9
ENDBRANCH   6   7
ENDBRANCH   5   6
ENDBRANCH   1   5
BRANCH   2  21
HETATM   21  C   UNL     1       5.044  27.001  53.791  1.00  0.00     0.050 A 
HETATM   22  C   UNL     1       5.410  25.641  53.720  1.00  0.00     0.058 A 
HETATM   23  C   UNL     1       5.443  24.969  52.491  1.00  0.00     0.019 A 
HETATM   24  C   UNL     1       5.147  25.658  51.316  1.00  0.00     0.001 A 
HETATM   25  C   UNL     1       4.823  27.012  51.370  1.00  0.00     0.002 A 
HETATM   26  C   UNL     1       4.772  27.680  52.598  1.00  0.00     0.030 A 
BRANCH  22  27
HETATM   27  C   UNL     1       5.857  24.887  54.919  1.00  0.00     0.254 C 
HETATM   28  N   UNL     1       6.842  23.950  54.662  1.00  0.00    -0.352 N 
HETATM   29  H   UNL     1       7.069  23.755  53.692  1.00  0.00     0.163 HD
HETATM   30  O   UNL     1       5.352  25.098  56.013  1.00  0.00    -0.268 OA
BRANCH  28  31
HETATM   31  C   UNL     1       7.411  23.106  55.664  1.00  0.00     0.084 A 
HETATM   32  C   UNL     1       7.852  21.710  55.318  1.00  0.00     0.027 A 
HETATM   33  C   UNL     1       8.876  22.767  55.608  1.00  0.00     0.027 A 
ENDBRANCH  28  31
ENDBRANCH  22  27
ENDBRANCH   2  21
TORSDOF 9
ENDMDL
