MODEL 1
REMARK VINA RESULT:      -9.8      0.000      0.000
REMARK  2 active torsions:
REMARK  status: ('A' for Active; 'I' for Inactive)
REMARK    1  A    between atoms: C_4  and  C_5 
REMARK    2  A    between atoms: C_11  and  C_12 
ROOT
HETATM    1  C   UNL     1       8.000  24.239  55.975  1.00  0.00     0.098 A 
HETATM    2  N   UNL     1       9.170  24.604  56.540  1.00  0.00    -0.172 NA
HETATM    3  N   UNL     1       8.906  25.750  57.182  1.00  0.00    -0.261 N 
HETATM    4  H   UNL     1       9.661  26.211  57.677  1.00  0.00     0.191 HD
HETATM    5  C   UNL     1       7.615  26.142  57.046  1.00  0.00     0.133 A 
HETATM    6  C   UNL     1       6.981  25.189  56.290  1.00  0.00     0.028 A 
HETATM    7  C   UNL     1       5.547  25.339  55.926  1.00  0.00     0.067 C 
HETATM    8  C   UNL     1       4.851  26.401  56.795  1.00  0.00     0.117 C 
HETATM    9  C   UNL     1       5.729  27.554  57.275  1.00  0.00     0.224 C 
HETATM   10  O   UNL     1       5.251  28.652  57.561  1.00  0.00    -0.273 OA
HETATM   11  N   UNL     1       7.058  27.300  57.512  1.00  0.00    -0.312 N 
HETATM   12  H   UNL     1       7.605  28.041  57.934  1.00  0.00     0.170 HD
ENDROOT
BRANCH   7  13
HETATM   13  C   UNL     1       5.448  25.648  54.439  1.00  0.00    -0.046 A 
HETATM   14  C   UNL     1       5.697  26.973  54.025  1.00  0.00     0.047 A 
HETATM   15  C   UNL     1       5.654  27.268  52.680  1.00  0.00     0.105 A 
HETATM   16  C   UNL     1       5.374  26.311  51.737  1.00  0.00     0.105 A 
HETATM   17  O   UNL     1       5.881  28.491  52.128  1.00  0.00    -0.323 OA
HETATM   18  O   UNL     1       5.382  26.809  50.472  1.00  0.00    -0.323 OA
HETATM   19  C   UNL     1       5.132  25.003  52.089  1.00  0.00     0.040 A 
HETATM   20  C   UNL     1       5.716  28.189  50.727  1.00  0.00     0.352 A 
HETATM   21  C   UNL     1       5.183  24.669  53.448  1.00  0.00     0.011 A 
ENDBRANCH   7  13
BRANCH   1  22
HETATM   22  C   UNL     1       7.932  23.049  55.123  1.00  0.00    -0.005 A 
HETATM   23  C   UNL     1       8.092  23.122  53.735  1.00  0.00     0.014 A 
HETATM   24  C   UNL     1       8.048  21.963  52.953  1.00  0.00     0.001 A 
HETATM   25  C   UNL     1       7.831  20.722  53.549  1.00  0.00     0.000 A 
HETATM   26  C   UNL     1       7.652  20.637  54.927  1.00  0.00     0.001 A 
HETATM   27  C   UNL     1       7.701  21.793  55.708  1.00  0.00     0.014 A 
ENDBRANCH   1  22
TORSDOF 2
ENDMDL
MODEL 2
REMARK VINA RESULT:      -9.3      0.935      1.812
REMARK  2 active torsions:
REMARK  status: ('A' for Active; 'I' for Inactive)
REMARK    1  A    between atoms: C_4  and  C_5 
REMARK    2  A    between atoms: C_11  and  C_12 
ROOT
HETATM    1  C   UNL     1       7.826  24.975  55.994  1.00  0.00     0.098 A 
HETATM    2  N   UNL     1       8.924  25.247  56.729  1.00  0.00    -0.172 NA
HETATM    3  N   UNL     1       8.614  26.349  57.426  1.00  0.00    -0.261 N 
HETATM    4  H   UNL     1       9.313  26.739  58.048  1.00  0.00     0.191 HD
HETATM    5  C   UNL     1       7.364  26.802  57.162  1.00  0.00     0.133 A 
HETATM    6  C   UNL     1       6.804  25.937  56.256  1.00  0.00     0.028 A 
HETATM    7  C   UNL     1       5.434  26.172  55.728  1.00  0.00     0.067 C 
HETATM    8  C   UNL     1       4.663  27.190  56.589  1.00  0.00     0.117 C 
HETATM    9  C   UNL     1       5.506  28.266  57.269  1.00  0.00     0.224 C 
HETATM   10  O   UNL     1       5.028  29.356  57.583  1.00  0.00    -0.273 OA
HETATM   11  N   UNL     1       6.786  27.941  57.649  1.00  0.00    -0.312 N 
HETATM   12  H   UNL     1       7.296  28.625  58.196  1.00  0.00     0.170 HD
ENDROOT
BRANCH   7  13
HETATM   13  C   UNL     1       5.535  26.600  54.271  1.00  0.00    -0.046 A 
HETATM   14  C   UNL     1       5.010  25.730  53.293  1.00  0.00     0.047 A 
HETATM   15  C   UNL     1       5.054  26.116  51.970  1.00  0.00     0.105 A 
HETATM   16  C   UNL     1       5.594  27.317  51.583  1.00  0.00     0.105 A 
HETATM   17  O   UNL     1       4.580  25.395  50.919  1.00  0.00    -0.323 OA
HETATM   18  O   UNL     1       5.537  27.502  50.237  1.00  0.00    -0.323 OA
HETATM   19  C   UNL     1       6.111  28.203  52.500  1.00  0.00     0.040 A 
HETATM   20  C   UNL     1       4.882  26.285  49.824  1.00  0.00     0.352 A 
HETATM   21  C   UNL     1       6.069  27.845  53.854  1.00  0.00     0.011 A 
ENDBRANCH   7  13
BRANCH   1  22
HETATM   22  C   UNL     1       7.832  23.859  55.045  1.00  0.00    -0.005 A 
HETATM   23  C   UNL     1       7.673  22.532  55.461  1.00  0.00     0.014 A 
HETATM   24  C   UNL     1       7.657  21.491  54.527  1.00  0.00     0.001 A 
HETATM   25  C   UNL     1       7.813  21.765  53.169  1.00  0.00     0.000 A 
HETATM   26  C   UNL     1       7.991  23.078  52.742  1.00  0.00     0.001 A 
HETATM   27  C   UNL     1       8.002  24.117  53.674  1.00  0.00     0.014 A 
ENDBRANCH   1  22
TORSDOF 2
ENDMDL
MODEL 3
REMARK VINA RESULT:      -9.1      2.630      5.435
REMARK  2 active torsions:
REMARK  status: ('A' for Active; 'I' for Inactive)
REMARK    1  A    between atoms: C_4  and  C_5 
REMARK    2  A    between atoms: C_11  and  C_12 
ROOT
HETATM    1  C   UNL     1       4.960  28.019  53.520  1.00  0.00     0.098 A 
HETATM    2  N   UNL     1       3.767  28.243  54.109  1.00  0.00    -0.172 NA
HETATM    3  N   UNL     1       4.014  28.203  55.426  1.00  0.00    -0.261 N 
HETATM    4  H   UNL     1       3.240  28.340  56.066  1.00  0.00     0.191 HD
HETATM    5  C   UNL     1       5.316  27.956  55.708  1.00  0.00     0.133 A 
HETATM    6  C   UNL     1       5.976  27.847  54.510  1.00  0.00     0.028 A 
HETATM    7  C   UNL     1       7.430  27.541  54.468  1.00  0.00     0.067 C 
HETATM    8  C   UNL     1       8.095  27.764  55.838  1.00  0.00     0.117 C 
HETATM    9  C   UNL     1       7.211  27.518  57.059  1.00  0.00     0.224 C 
HETATM   10  O   UNL     1       7.691  27.214  58.151  1.00  0.00    -0.273 OA
HETATM   11  N   UNL     1       5.866  27.777  56.947  1.00  0.00    -0.312 N 
HETATM   12  H   UNL     1       5.309  27.717  57.791  1.00  0.00     0.170 HD
ENDROOT
BRANCH   7  13
HETATM   13  C   UNL     1       7.618  26.120  53.954  1.00  0.00    -0.046 A 
HETATM   14  C   UNL     1       7.489  25.064  54.881  1.00  0.00     0.047 A 
HETATM   15  C   UNL     1       7.614  23.768  54.431  1.00  0.00     0.105 A 
HETATM   16  C   UNL     1       7.860  23.479  53.112  1.00  0.00     0.105 A 
HETATM   17  O   UNL     1       7.505  22.649  55.197  1.00  0.00    -0.323 OA
HETATM   18  O   UNL     1       7.946  22.142  52.879  1.00  0.00    -0.323 OA
HETATM   19  C   UNL     1       7.986  24.473  52.168  1.00  0.00     0.040 A 
HETATM   20  C   UNL     1       7.707  21.622  54.203  1.00  0.00     0.352 A 
HETATM   21  C   UNL     1       7.850  25.801  52.593  1.00  0.00     0.011 A 
ENDBRANCH   7  13
BRANCH   1  22
HETATM   22  C   UNL     1       5.056  27.922  52.061  1.00  0.00    -0.005 A 
HETATM   23  C   UNL     1       4.783  26.731  51.379  1.00  0.00     0.014 A 
HETATM   24  C   UNL     1       4.857  26.679  49.984  1.00  0.00     0.001 A 
HETATM   25  C   UNL     1       5.218  27.812  49.257  1.00  0.00     0.000 A 
HETATM   26  C   UNL     1       5.510  28.999  49.923  1.00  0.00     0.001 A 
HETATM   27  C   UNL     1       5.431  29.052  51.316  1.00  0.00     0.014 A 
ENDBRANCH   1  22
TORSDOF 2
ENDMDL
MODEL 4
REMARK VINA RESULT:      -9.0      2.846      4.979
REMARK  2 active torsions:
REMARK  status: ('A' for Active; 'I' for Inactive)
REMARK    1  A    between atoms: C_4  and  C_5 
REMARK    2  A    between atoms: C_11  and  C_12 
ROOT
HETATM    1  C   UNL     1       5.938  25.068  53.719  1.00  0.00     0.098 A 
HETATM    2  N   UNL     1       4.747  24.452  53.571  1.00  0.00    -0.172 NA
HETATM    3  N   UNL     1       3.911  25.406  53.139  1.00  0.00    -0.261 N 
HETATM    4  H   UNL     1       2.943  25.159  52.968  1.00  0.00     0.191 HD
HETATM    5  C   UNL     1       4.515  26.613  53.010  1.00  0.00     0.133 A 
HETATM    6  C   UNL     1       5.832  26.444  53.355  1.00  0.00     0.028 A 
HETATM    7  C   UNL     1       6.772  27.597  53.352  1.00  0.00     0.067 C 
HETATM    8  C   UNL     1       6.196  28.794  52.574  1.00  0.00     0.117 C 
HETATM    9  C   UNL     1       4.676  28.939  52.596  1.00  0.00     0.224 C 
HETATM   10  O   UNL     1       4.131  30.030  52.432  1.00  0.00    -0.273 OA
HETATM   11  N   UNL     1       3.918  27.795  52.669  1.00  0.00    -0.312 N 
HETATM   12  H   UNL     1       2.915  27.895  52.571  1.00  0.00     0.170 HD
ENDROOT
BRANCH   7  13
HETATM   13  C   UNL     1       7.119  27.951  54.791  1.00  0.00    -0.046 A 
HETATM   14  C   UNL     1       8.317  28.658  55.023  1.00  0.00     0.047 A 
HETATM   15  C   UNL     1       8.632  29.025  56.314  1.00  0.00     0.105 A 
HETATM   16  C   UNL     1       7.814  28.721  57.373  1.00  0.00     0.105 A 
HETATM   17  O   UNL     1       9.740  29.716  56.693  1.00  0.00    -0.323 OA
HETATM   18  O   UNL     1       8.307  29.174  58.557  1.00  0.00    -0.323 OA
HETATM   19  C   UNL     1       6.631  28.040  57.198  1.00  0.00     0.040 A 
HETATM   20  C   UNL     1       9.522  29.815  58.116  1.00  0.00     0.352 A 
HETATM   21  C   UNL     1       6.277  27.665  55.895  1.00  0.00     0.011 A 
ENDBRANCH   7  13
BRANCH   1  22
HETATM   22  C   UNL     1       7.088  24.331  54.252  1.00  0.00    -0.005 A 
HETATM   23  C   UNL     1       7.537  24.510  55.565  1.00  0.00     0.014 A 
HETATM   24  C   UNL     1       8.621  23.772  56.052  1.00  0.00     0.001 A 
HETATM   25  C   UNL     1       9.274  22.858  55.227  1.00  0.00     0.000 A 
HETATM   26  C   UNL     1       8.850  22.683  53.913  1.00  0.00     0.001 A 
HETATM   27  C   UNL     1       7.765  23.416  53.429  1.00  0.00     0.014 A 
ENDBRANCH   1  22
TORSDOF 2
ENDMDL
MODEL 5
REMARK VINA RESULT:      -8.4      9.027     11.541
REMARK  2 active torsions:
REMARK  status: ('A' for Active; 'I' for Inactive)
REMARK    1  A    between atoms: C_4  and  C_5 
REMARK    2  A    between atoms: C_11  and  C_12 
ROOT
HETATM    1  C   UNL     1       3.714  33.868  61.402  1.00  0.00     0.098 A 
HETATM    2  N   UNL     1       2.478  33.517  61.814  1.00  0.00    -0.172 NA
HETATM    3  N   UNL     1       2.558  33.461  63.151  1.00  0.00    -0.261 N 
HETATM    4  H   UNL     1       1.729  33.203  63.673  1.00  0.00     0.191 HD
HETATM    5  C   UNL     1       3.798  33.754  63.614  1.00  0.00     0.133 A 
HETATM    6  C   UNL     1       4.579  34.043  62.524  1.00  0.00     0.028 A 
HETATM    7  C   UNL     1       6.019  34.377  62.688  1.00  0.00     0.067 C 
HETATM    8  C   UNL     1       6.356  34.727  64.150  1.00  0.00     0.117 C 
HETATM    9  C   UNL     1       5.521  34.021  65.216  1.00  0.00     0.224 C 
HETATM   10  O   UNL     1       5.949  33.844  66.356  1.00  0.00    -0.273 OA
HETATM   11  N   UNL     1       4.218  33.706  64.914  1.00  0.00    -0.312 N 
HETATM   12  H   UNL     1       3.643  33.340  65.664  1.00  0.00     0.170 HD
ENDROOT
BRANCH   7  13
HETATM   13  C   UNL     1       6.854  33.219  62.160  1.00  0.00    -0.046 A 
HETATM   14  C   UNL     1       7.436  33.358  60.883  1.00  0.00     0.047 A 
HETATM   15  C   UNL     1       8.230  32.340  60.401  1.00  0.00     0.105 A 
HETATM   16  C   UNL     1       8.467  31.200  61.127  1.00  0.00     0.105 A 
HETATM   17  O   UNL     1       8.866  32.332  59.199  1.00  0.00    -0.323 OA
HETATM   18  O   UNL     1       9.275  30.324  60.473  1.00  0.00    -0.323 OA
HETATM   19  C   UNL     1       7.928  31.020  62.381  1.00  0.00     0.040 A 
HETATM   20  C   UNL     1       9.535  31.054  59.256  1.00  0.00     0.352 A 
HETATM   21  C   UNL     1       7.128  32.044  62.904  1.00  0.00     0.011 A 
ENDBRANCH   7  13
BRANCH   1  22
HETATM   22  C   UNL     1       4.017  33.957  59.971  1.00  0.00    -0.005 A 
HETATM   23  C   UNL     1       4.020  35.179  59.289  1.00  0.00     0.014 A 
HETATM   24  C   UNL     1       4.339  35.233  57.928  1.00  0.00     0.001 A 
HETATM   25  C   UNL     1       4.645  34.064  57.233  1.00  0.00     0.000 A 
HETATM   26  C   UNL     1       4.628  32.839  57.893  1.00  0.00     0.001 A 
HETATM   27  C   UNL     1       4.314  32.786  59.253  1.00  0.00     0.014 A 
ENDBRANCH   1  22
TORSDOF 2
ENDMDL
MODEL 6
REMARK VINA RESULT:      -8.2      3.659      7.054
REMARK  2 active torsions:
REMARK  status: ('A' for Active; 'I' for Inactive)
REMARK    1  A    between atoms: C_4  and  C_5 
REMARK    2  A    between atoms: C_11  and  C_12 
ROOT
HETATM    1  C   UNL     1       4.268  28.143  54.202  1.00  0.00     0.098 A 
HETATM    2  N   UNL     1       3.971  27.929  52.903  1.00  0.00    -0.172 NA
HETATM    3  N   UNL     1       4.531  26.748  52.606  1.00  0.00    -0.261 N 
HETATM    4  H   UNL     1       4.435  26.393  51.662  1.00  0.00     0.191 HD
HETATM    5  C   UNL     1       5.183  26.198  53.659  1.00  0.00     0.133 A 
HETATM    6  C   UNL     1       5.028  27.051  54.722  1.00  0.00     0.028 A 
HETATM    7  C   UNL     1       5.658  26.752  56.035  1.00  0.00     0.067 C 
HETATM    8  C   UNL     1       6.107  25.282  56.125  1.00  0.00     0.117 C 
HETATM    9  C   UNL     1       6.533  24.630  54.812  1.00  0.00     0.224 C 
HETATM   10  O   UNL     1       7.311  23.678  54.789  1.00  0.00    -0.273 OA
HETATM   11  N   UNL     1       5.918  25.045  53.655  1.00  0.00    -0.312 N 
HETATM   12  H   UNL     1       6.127  24.531  52.808  1.00  0.00     0.170 HD
ENDROOT
BRANCH   7  13
HETATM   13  C   UNL     1       6.806  27.726  56.261  1.00  0.00    -0.046 A 
HETATM   14  C   UNL     1       7.012  28.205  57.572  1.00  0.00     0.047 A 
HETATM   15  C   UNL     1       8.071  29.056  57.809  1.00  0.00     0.105 A 
HETATM   16  C   UNL     1       8.924  29.447  56.808  1.00  0.00     0.105 A 
HETATM   17  O   UNL     1       8.404  29.589  59.015  1.00  0.00    -0.323 OA
HETATM   18  O   UNL     1       9.898  30.284  57.253  1.00  0.00    -0.323 OA
HETATM   19  C   UNL     1       8.769  29.002  55.515  1.00  0.00     0.040 A 
HETATM   20  C   UNL     1       9.570  30.360  58.655  1.00  0.00     0.352 A 
HETATM   21  C   UNL     1       7.710  28.125  55.245  1.00  0.00     0.011 A 
ENDBRANCH   7  13
BRANCH   1  22
HETATM   22  C   UNL     1       3.868  29.393  54.854  1.00  0.00    -0.005 A 
HETATM   23  C   UNL     1       3.671  29.477  56.237  1.00  0.00     0.014 A 
HETATM   24  C   UNL     1       3.315  30.691  56.831  1.00  0.00     0.001 A 
HETATM   25  C   UNL     1       3.141  31.832  56.048  1.00  0.00     0.000 A 
HETATM   26  C   UNL     1       3.316  31.759  54.669  1.00  0.00     0.001 A 
HETATM   27  C   UNL     1       3.676  30.547  54.077  1.00  0.00     0.014 A 
ENDBRANCH   1  22
TORSDOF 2
ENDMDL
MODEL 7
REMARK VINA RESULT:      -8.2      2.181      4.846
REMARK  2 active torsions:
REMARK  status: ('A' for Active; 'I' for Inactive)
REMARK    1  A    between atoms: C_4  and  C_5 
REMARK    2  A    between atoms: C_11  and  C_12 
ROOT
HETATM    1  C   UNL     1       7.961  25.736  56.787  1.00  0.00     0.098 A 
HETATM    2  N   UNL     1       7.935  24.869  57.820  1.00  0.00    -0.172 NA
HETATM    3  N   UNL     1       7.899  23.653  57.256  1.00  0.00    -0.261 N 
HETATM    4  H   UNL     1       7.866  22.841  57.861  1.00  0.00     0.191 HD
HETATM    5  C   UNL     1       7.892  23.705  55.901  1.00  0.00     0.133 A 
HETATM    6  C   UNL     1       7.950  25.029  55.546  1.00  0.00     0.028 A 
HETATM    7  C   UNL     1       7.925  25.434  54.116  1.00  0.00     0.067 C 
HETATM    8  C   UNL     1       8.223  24.244  53.186  1.00  0.00     0.117 C 
HETATM    9  C   UNL     1       7.774  22.873  53.687  1.00  0.00     0.224 C 
HETATM   10  O   UNL     1       7.529  21.951  52.909  1.00  0.00    -0.273 OA
HETATM   11  N   UNL     1       7.779  22.647  55.042  1.00  0.00    -0.312 N 
HETATM   12  H   UNL     1       7.586  21.703  55.356  1.00  0.00     0.170 HD
ENDROOT
BRANCH   7  13
HETATM   13  C   UNL     1       6.583  26.087  53.815  1.00  0.00    -0.046 A 
HETATM   14  C   UNL     1       6.532  27.496  53.780  1.00  0.00     0.047 A 
HETATM   15  C   UNL     1       5.337  28.109  53.468  1.00  0.00     0.105 A 
HETATM   16  C   UNL     1       4.202  27.387  53.194  1.00  0.00     0.105 A 
HETATM   17  O   UNL     1       5.133  29.451  53.384  1.00  0.00    -0.323 OA
HETATM   18  O   UNL     1       3.136  28.182  52.911  1.00  0.00    -0.323 OA
HETATM   19  C   UNL     1       4.203  26.011  53.208  1.00  0.00     0.040 A 
HETATM   20  C   UNL     1       3.737  29.489  53.021  1.00  0.00     0.352 A 
HETATM   21  C   UNL     1       5.407  25.359  53.508  1.00  0.00     0.011 A 
ENDBRANCH   7  13
BRANCH   1  22
HETATM   22  C   UNL     1       7.932  27.180  57.036  1.00  0.00    -0.005 A 
HETATM   23  C   UNL     1       9.081  27.972  56.932  1.00  0.00     0.014 A 
HETATM   24  C   UNL     1       9.016  29.351  57.150  1.00  0.00     0.001 A 
HETATM   25  C   UNL     1       7.803  29.952  57.486  1.00  0.00     0.000 A 
HETATM   26  C   UNL     1       6.656  29.174  57.611  1.00  0.00     0.001 A 
HETATM   27  C   UNL     1       6.721  27.797  57.389  1.00  0.00     0.014 A 
ENDBRANCH   1  22
TORSDOF 2
ENDMDL
MODEL 8
REMARK VINA RESULT:      -8.2      3.636      6.022
REMARK  2 active torsions:
REMARK  status: ('A' for Active; 'I' for Inactive)
REMARK    1  A    between atoms: C_4  and  C_5 
REMARK    2  A    between atoms: C_11  and  C_12 
ROOT
HETATM    1  C   UNL     1       5.194  26.161  50.917  1.00  0.00     0.098 A 
HETATM    2  N   UNL     1       4.350  25.502  50.096  1.00  0.00    -0.172 NA
HETATM    3  N   UNL     1       3.756  26.457  49.366  1.00  0.00    -0.261 N 
HETATM    4  H   UNL     1       3.066  26.178  48.678  1.00  0.00     0.191 HD
HETATM    5  C   UNL     1       4.178  27.703  49.690  1.00  0.00     0.133 A 
HETATM    6  C   UNL     1       5.123  27.567  50.676  1.00  0.00     0.028 A 
HETATM    7  C   UNL     1       5.766  28.763  51.282  1.00  0.00     0.067 C 
HETATM    8  C   UNL     1       5.543  30.022  50.424  1.00  0.00     0.117 C 
HETATM    9  C   UNL     1       4.237  30.070  49.634  1.00  0.00     0.224 C 
HETATM   10  O   UNL     1       3.728  31.138  49.297  1.00  0.00    -0.273 OA
HETATM   11  N   UNL     1       3.708  28.884  49.185  1.00  0.00    -0.312 N 
HETATM   12  H   UNL     1       2.905  28.937  48.570  1.00  0.00     0.170 HD
ENDROOT
BRANCH   7  13
HETATM   13  C   UNL     1       5.251  28.929  52.704  1.00  0.00    -0.046 A 
HETATM   14  C   UNL     1       6.065  28.459  53.757  1.00  0.00     0.047 A 
HETATM   15  C   UNL     1       5.638  28.636  55.055  1.00  0.00     0.105 A 
HETATM   16  C   UNL     1       4.447  29.252  55.349  1.00  0.00     0.105 A 
HETATM   17  O   UNL     1       6.313  28.250  56.171  1.00  0.00    -0.323 OA
HETATM   18  O   UNL     1       4.216  29.326  56.687  1.00  0.00    -0.323 OA
HETATM   19  C   UNL     1       3.622  29.734  54.359  1.00  0.00     0.040 A 
HETATM   20  C   UNL     1       5.409  28.699  57.202  1.00  0.00     0.352 A 
HETATM   21  C   UNL     1       4.036  29.582  53.029  1.00  0.00     0.011 A 
ENDBRANCH   7  13
BRANCH   1  22
HETATM   22  C   UNL     1       5.970  25.427  51.920  1.00  0.00    -0.005 A 
HETATM   23  C   UNL     1       7.325  25.133  51.738  1.00  0.00     0.014 A 
HETATM   24  C   UNL     1       8.044  24.454  52.727  1.00  0.00     0.001 A 
HETATM   25  C   UNL     1       7.412  24.051  53.902  1.00  0.00     0.000 A 
HETATM   26  C   UNL     1       6.060  24.321  54.089  1.00  0.00     0.001 A 
HETATM   27  C   UNL     1       5.343  25.003  53.104  1.00  0.00     0.014 A 
ENDBRANCH   1  22
TORSDOF 2
ENDMDL
MODEL 9
REMARK VINA RESULT:      -8.1      2.791      5.880
REMARK  2 active torsions:
REMARK  status: ('A' for Active; 'I' for Inactive)
REMARK    1  A    between atoms: C_4  and  C_5 
REMARK    2  A    between atoms: C_11  and  C_12 
ROOT
HETATM    1  C   UNL     1       6.481  26.135  53.156  1.00  0.00     0.098 A 
HETATM    2  N   UNL     1       7.282  25.663  52.178  1.00  0.00    -0.172 NA
HETATM    3  N   UNL     1       8.022  24.710  52.762  1.00  0.00    -0.261 N 
HETATM    4  H   UNL     1       8.709  24.222  52.200  1.00  0.00     0.191 HD
HETATM    5  C   UNL     1       7.734  24.555  54.078  1.00  0.00     0.133 A 
HETATM    6  C   UNL     1       6.730  25.440  54.379  1.00  0.00     0.028 A 
HETATM    7  C   UNL     1       6.201  25.547  55.764  1.00  0.00     0.067 C 
HETATM    8  C   UNL     1       6.617  24.338  56.623  1.00  0.00     0.117 C 
HETATM    9  C   UNL     1       7.958  23.699  56.274  1.00  0.00     0.224 C 
HETATM   10  O   UNL     1       8.607  23.068  57.108  1.00  0.00    -0.273 OA
HETATM   11  N   UNL     1       8.366  23.726  54.962  1.00  0.00    -0.312 N 
HETATM   12  H   UNL     1       9.201  23.204  54.724  1.00  0.00     0.170 HD
ENDROOT
BRANCH   7  13
HETATM   13  C   UNL     1       6.657  26.870  56.363  1.00  0.00    -0.046 A 
HETATM   14  C   UNL     1       5.668  27.829  56.668  1.00  0.00     0.047 A 
HETATM   15  C   UNL     1       6.053  29.018  57.249  1.00  0.00     0.105 A 
HETATM   16  C   UNL     1       7.367  29.292  57.535  1.00  0.00     0.105 A 
HETATM   17  O   UNL     1       5.220  30.030  57.610  1.00  0.00    -0.323 OA
HETATM   18  O   UNL     1       7.531  30.516  58.105  1.00  0.00    -0.323 OA
HETATM   19  C   UNL     1       8.368  28.387  57.263  1.00  0.00     0.040 A 
HETATM   20  C   UNL     1       6.163  30.972  58.161  1.00  0.00     0.352 A 
HETATM   21  C   UNL     1       8.006  27.163  56.686  1.00  0.00     0.011 A 
ENDBRANCH   7  13
BRANCH   1  22
HETATM   22  C   UNL     1       5.572  27.253  52.889  1.00  0.00    -0.005 A 
HETATM   23  C   UNL     1       4.242  27.247  53.325  1.00  0.00     0.014 A 
HETATM   24  C   UNL     1       3.408  28.342  53.077  1.00  0.00     0.001 A 
HETATM   25  C   UNL     1       3.891  29.448  52.380  1.00  0.00     0.000 A 
HETATM   26  C   UNL     1       5.206  29.461  51.925  1.00  0.00     0.001 A 
HETATM   27  C   UNL     1       6.040  28.369  52.177  1.00  0.00     0.014 A 
ENDBRANCH   1  22
TORSDOF 2
ENDMDL
MODEL 10
REMARK VINA RESULT:      -8.1     10.086     12.680
REMARK  2 active torsions:
REMARK  status: ('A' for Active; 'I' for Inactive)
REMARK    1  A    between atoms: C_4  and  C_5 
REMARK    2  A    between atoms: C_11  and  C_12 
ROOT
HETATM    1  C   UNL     1       6.736  33.127  63.809  1.00  0.00     0.098 A 
HETATM    2  N   UNL     1       7.570  32.947  64.855  1.00  0.00    -0.172 NA
HETATM    3  N   UNL     1       6.909  33.432  65.916  1.00  0.00    -0.261 N 
HETATM    4  H   UNL     1       7.365  33.404  66.821  1.00  0.00     0.191 HD
HETATM    5  C   UNL     1       5.688  33.924  65.593  1.00  0.00     0.133 A 
HETATM    6  C   UNL     1       5.519  33.733  64.245  1.00  0.00     0.028 A 
HETATM    7  C   UNL     1       4.283  34.198  63.561  1.00  0.00     0.067 C 
HETATM    8  C   UNL     1       3.161  34.508  64.570  1.00  0.00     0.117 C 
HETATM    9  C   UNL     1       3.612  35.009  65.939  1.00  0.00     0.224 C 
HETATM   10  O   UNL     1       2.880  35.702  66.645  1.00  0.00    -0.273 OA
HETATM   11  N   UNL     1       4.812  34.555  66.432  1.00  0.00    -0.312 N 
HETATM   12  H   UNL     1       5.048  34.805  67.385  1.00  0.00     0.170 HD
ENDROOT
BRANCH   7  13
HETATM   13  C   UNL     1       4.626  35.395  62.686  1.00  0.00    -0.046 A 
HETATM   14  C   UNL     1       3.988  35.497  61.433  1.00  0.00     0.047 A 
HETATM   15  C   UNL     1       4.251  36.594  60.641  1.00  0.00     0.105 A 
HETATM   16  C   UNL     1       5.116  37.583  61.038  1.00  0.00     0.105 A 
HETATM   17  O   UNL     1       3.708  36.838  59.418  1.00  0.00    -0.323 OA
HETATM   18  O   UNL     1       5.234  38.573  60.113  1.00  0.00    -0.323 OA
HETATM   19  C   UNL     1       5.758  37.533  62.254  1.00  0.00     0.040 A 
HETATM   20  C   UNL     1       4.329  38.100  59.095  1.00  0.00     0.352 A 
HETATM   21  C   UNL     1       5.499  36.437  63.088  1.00  0.00     0.011 A 
ENDBRANCH   7  13
BRANCH   1  22
HETATM   22  C   UNL     1       7.165  32.770  62.454  1.00  0.00    -0.005 A 
HETATM   23  C   UNL     1       6.258  32.664  61.394  1.00  0.00     0.014 A 
HETATM   24  C   UNL     1       6.703  32.347  60.107  1.00  0.00     0.001 A 
HETATM   25  C   UNL     1       8.058  32.122  59.869  1.00  0.00     0.000 A 
HETATM   26  C   UNL     1       8.970  32.206  60.917  1.00  0.00     0.001 A 
HETATM   27  C   UNL     1       8.525  32.527  62.201  1.00  0.00     0.014 A 
ENDBRANCH   1  22
TORSDOF 2
ENDMDL
