MODEL 1
REMARK VINA RESULT:      -9.9      0.000      0.000
REMARK  6 active torsions:
REMARK  status: ('A' for Active; 'I' for Inactive)
REMARK    1  A    between atoms: C_5  and  C_6 
REMARK    2  A    between atoms: C_6  and  N_7 
REMARK    3  A    between atoms: C_9  and  C_10 
REMARK    4  A    between atoms: C_17  and  C_18 
REMARK       I    between atoms: C_18  and  N_19 
REMARK    5  A    between atoms: N_19  and  C_20 
REMARK    6  A    between atoms: C_23  and  O_24 
ROOT
HETATM    1  N   UNL     1       5.783  26.906  51.908  1.00  0.00    -0.275 N 
HETATM    2  N   UNL     1       6.435  25.732  51.944  1.00  0.00    -0.171 NA
HETATM    3  C   UNL     1       6.436  25.369  53.241  1.00  0.00     0.104 A 
HETATM    4  C   UNL     1       5.849  26.398  54.048  1.00  0.00     0.080 A 
HETATM    5  C   UNL     1       5.385  27.331  53.136  1.00  0.00     0.132 A 
ENDROOT
BRANCH   4   6
HETATM    6  C   UNL     1       5.721  26.582  55.487  1.00  0.00     0.255 C 
HETATM    7  N   UNL     1       6.407  27.662  55.989  1.00  0.00    -0.352 N 
HETATM    8  H   UNL     1       6.887  28.242  55.312  1.00  0.00     0.163 HD
HETATM    9  O   UNL     1       4.974  25.876  56.150  1.00  0.00    -0.268 OA
BRANCH   7  10
HETATM   10  C   UNL     1       6.283  28.232  57.330  1.00  0.00     0.084 C 
HETATM   11  C   UNL     1       7.637  28.380  58.040  1.00  0.00     0.028 C 
HETATM   12  C   UNL     1       8.316  29.733  57.834  1.00  0.00     0.034 C 
HETATM   13  C   UNL     1       7.375  30.894  58.132  1.00  0.00     0.118 C 
HETATM   14  C   UNL     1       6.093  30.821  57.310  1.00  0.00     0.034 C 
HETATM   15  C   UNL     1       5.383  29.471  57.426  1.00  0.00     0.028 C 
BRANCH  13  16
HETATM   16  O   UNL     1       7.028  30.875  59.517  1.00  0.00    -0.396 OA
HETATM   17  H   UNL     1       6.067  31.013  59.574  1.00  0.00     0.210 HD
ENDBRANCH  13  16
ENDBRANCH   7  10
ENDBRANCH   4   6
BRANCH   3  18
HETATM   18  C   UNL     1       7.017  24.071  53.617  1.00  0.00    -0.005 A 
HETATM   19  C   UNL     1       7.536  23.228  52.620  1.00  0.00     0.014 A 
HETATM   20  C   UNL     1       8.076  21.978  52.937  1.00  0.00     0.007 A 
HETATM   21  C   UNL     1       8.106  21.539  54.264  1.00  0.00    -0.062 A 
HETATM   22  C   UNL     1       8.701  20.202  54.594  1.00  0.00     0.048 C 
HETATM   23  C   UNL     1       7.588  22.369  55.263  1.00  0.00     0.007 A 
HETATM   24  C   UNL     1       7.035  23.617  54.941  1.00  0.00     0.014 A 
ENDBRANCH   3  18
BRANCH   1  25
HETATM   25  C   UNL     1       5.735  27.674  50.669  1.00  0.00     0.189 C 
BRANCH  25  26
HETATM   26  C   UNL     1       4.449  27.490  49.905  1.00  0.00    -0.038 A 
HETATM   27  C   UNL     1       3.451  28.473  49.942  1.00  0.00     0.009 A 
HETATM   28  C   UNL     1       2.292  28.342  49.172  1.00  0.00     0.007 A 
HETATM   29  C   UNL     1       2.104  27.220  48.358  1.00  0.00    -0.062 A 
HETATM   30  C   UNL     1       0.889  27.103  47.487  1.00  0.00     0.048 C 
HETATM   31  C   UNL     1       3.098  26.236  48.319  1.00  0.00     0.007 A 
HETATM   32  C   UNL     1       4.257  26.368  49.086  1.00  0.00     0.009 A 
ENDBRANCH  25  26
ENDBRANCH   1  25
TORSDOF 6
ENDMDL
MODEL 2
REMARK VINA RESULT:      -9.9      2.382      7.746
REMARK  6 active torsions:
REMARK  status: ('A' for Active; 'I' for Inactive)
REMARK    1  A    between atoms: C_5  and  C_6 
REMARK    2  A    between atoms: C_6  and  N_7 
REMARK    3  A    between atoms: C_9  and  C_10 
REMARK    4  A    between atoms: C_17  and  C_18 
REMARK       I    between atoms: C_18  and  N_19 
REMARK    5  A    between atoms: N_19  and  C_20 
REMARK    6  A    between atoms: C_23  and  O_24 
ROOT
HETATM    1  N   UNL     1       7.821  24.577  57.225  1.00  0.00    -0.275 N 
HETATM    2  N   UNL     1       8.553  25.629  57.627  1.00  0.00    -0.171 NA
HETATM    3  C   UNL     1       7.884  26.713  57.188  1.00  0.00     0.104 A 
HETATM    4  C   UNL     1       6.751  26.316  56.405  1.00  0.00     0.080 A 
HETATM    5  C   UNL     1       6.718  24.937  56.518  1.00  0.00     0.132 A 
ENDROOT
BRANCH   4   6
HETATM    6  C   UNL     1       5.789  27.058  55.601  1.00  0.00     0.255 C 
HETATM    7  N   UNL     1       5.728  26.672  54.283  1.00  0.00    -0.352 N 
HETATM    8  H   UNL     1       6.313  25.889  54.017  1.00  0.00     0.163 HD
HETATM    9  O   UNL     1       5.042  27.882  56.110  1.00  0.00    -0.268 OA
BRANCH   7  10
HETATM   10  C   UNL     1       4.713  27.060  53.304  1.00  0.00     0.084 C 
HETATM   11  C   UNL     1       4.782  28.549  52.936  1.00  0.00     0.028 C 
HETATM   12  C   UNL     1       5.663  28.864  51.728  1.00  0.00     0.034 C 
HETATM   13  C   UNL     1       5.324  27.985  50.530  1.00  0.00     0.118 C 
HETATM   14  C   UNL     1       5.404  26.500  50.864  1.00  0.00     0.034 C 
HETATM   15  C   UNL     1       4.584  26.119  52.098  1.00  0.00     0.028 C 
BRANCH  13  16
HETATM   16  O   UNL     1       3.997  28.282  50.092  1.00  0.00    -0.396 OA
HETATM   17  H   UNL     1       3.387  27.870  50.727  1.00  0.00     0.210 HD
ENDBRANCH  13  16
ENDBRANCH   7  10
ENDBRANCH   4   6
BRANCH   3  18
HETATM   18  C   UNL     1       8.391  28.050  57.534  1.00  0.00    -0.005 A 
HETATM   19  C   UNL     1       9.606  28.495  56.988  1.00  0.00     0.014 A 
HETATM   20  C   UNL     1      10.129  29.750  57.312  1.00  0.00     0.007 A 
HETATM   21  C   UNL     1       9.446  30.592  58.194  1.00  0.00    -0.062 A 
HETATM   22  C   UNL     1      10.009  31.943  58.522  1.00  0.00     0.048 C 
HETATM   23  C   UNL     1       8.237  30.157  58.745  1.00  0.00     0.007 A 
HETATM   24  C   UNL     1       7.721  28.892  58.430  1.00  0.00     0.014 A 
ENDBRANCH   3  18
BRANCH   1  25
HETATM   25  C   UNL     1       8.338  23.224  57.392  1.00  0.00     0.189 C 
BRANCH  25  26
HETATM   26  C   UNL     1       8.385  22.443  56.104  1.00  0.00    -0.038 A 
HETATM   27  C   UNL     1       7.924  21.120  56.056  1.00  0.00     0.009 A 
HETATM   28  C   UNL     1       7.893  20.420  54.847  1.00  0.00     0.007 A 
HETATM   29  C   UNL     1       8.330  21.025  53.664  1.00  0.00    -0.062 A 
HETATM   30  C   UNL     1       8.244  20.297  52.356  1.00  0.00     0.048 C 
HETATM   31  C   UNL     1       8.790  22.345  53.708  1.00  0.00     0.007 A 
HETATM   32  C   UNL     1       8.821  23.046  54.916  1.00  0.00     0.009 A 
ENDBRANCH  25  26
ENDBRANCH   1  25
TORSDOF 6
ENDMDL
MODEL 3
REMARK VINA RESULT:      -9.9      3.019      8.690
REMARK  6 active torsions:
REMARK  status: ('A' for Active; 'I' for Inactive)
REMARK    1  A    between atoms: C_5  and  C_6 
REMARK    2  A    between atoms: C_6  and  N_7 
REMARK    3  A    between atoms: C_9  and  C_10 
REMARK    4  A    between atoms: C_17  and  C_18 
REMARK       I    between atoms: C_18  and  N_19 
REMARK    5  A    between atoms: N_19  and  C_20 
REMARK    6  A    between atoms: C_23  and  O_24 
ROOT
HETATM    1  N   UNL     1       8.753  29.935  58.009  1.00  0.00    -0.275 N 
HETATM    2  N   UNL     1       8.978  28.637  57.748  1.00  0.00    -0.171 NA
HETATM    3  C   UNL     1       7.861  28.202  57.133  1.00  0.00     0.104 A 
HETATM    4  C   UNL     1       6.874  29.241  57.098  1.00  0.00     0.080 A 
HETATM    5  C   UNL     1       7.522  30.351  57.612  1.00  0.00     0.132 A 
ENDROOT
BRANCH   4   6
HETATM    6  C   UNL     1       5.478  29.274  56.684  1.00  0.00     0.255 C 
HETATM    7  N   UNL     1       5.281  29.180  55.328  1.00  0.00    -0.352 N 
HETATM    8  H   UNL     1       6.111  29.051  54.762  1.00  0.00     0.163 HD
HETATM    9  O   UNL     1       4.575  29.282  57.510  1.00  0.00    -0.268 OA
BRANCH   7  10
HETATM   10  C   UNL     1       4.010  28.951  54.641  1.00  0.00     0.084 C 
HETATM   11  C   UNL     1       3.463  30.218  53.967  1.00  0.00     0.028 C 
HETATM   12  C   UNL     1       3.893  30.398  52.512  1.00  0.00     0.034 C 
HETATM   13  C   UNL     1       3.640  29.145  51.683  1.00  0.00     0.118 C 
HETATM   14  C   UNL     1       4.314  27.914  52.280  1.00  0.00     0.034 C 
HETATM   15  C   UNL     1       3.970  27.699  53.755  1.00  0.00     0.028 C 
BRANCH  13  16
HETATM   16  O   UNL     1       2.234  28.904  51.613  1.00  0.00    -0.396 OA
HETATM   17  H   UNL     1       2.115  27.964  51.390  1.00  0.00     0.210 HD
ENDBRANCH  13  16
ENDBRANCH   7  10
ENDBRANCH   4   6
BRANCH   3  18
HETATM   18  C   UNL     1       7.813  26.817  56.640  1.00  0.00    -0.005 A 
HETATM   19  C   UNL     1       8.183  25.764  57.492  1.00  0.00     0.014 A 
HETATM   20  C   UNL     1       8.171  24.437  57.052  1.00  0.00     0.007 A 
HETATM   21  C   UNL     1       7.789  24.133  55.742  1.00  0.00    -0.062 A 
HETATM   22  C   UNL     1       7.765  22.704  55.285  1.00  0.00     0.048 C 
HETATM   23  C   UNL     1       7.421  25.175  54.885  1.00  0.00     0.007 A 
HETATM   24  C   UNL     1       7.448  26.505  55.325  1.00  0.00     0.014 A 
ENDBRANCH   3  18
BRANCH   1  25
HETATM   25  C   UNL     1       9.700  30.689  58.823  1.00  0.00     0.189 C 
BRANCH  25  26
HETATM   26  C   UNL     1       9.110  31.182  60.118  1.00  0.00    -0.038 A 
HETATM   27  C   UNL     1       9.241  30.428  61.293  1.00  0.00     0.009 A 
HETATM   28  C   UNL     1       8.764  30.921  62.511  1.00  0.00     0.007 A 
HETATM   29  C   UNL     1       8.138  32.170  62.577  1.00  0.00    -0.062 A 
HETATM   30  C   UNL     1       7.678  32.725  63.892  1.00  0.00     0.048 C 
HETATM   31  C   UNL     1       8.006  32.924  61.407  1.00  0.00     0.007 A 
HETATM   32  C   UNL     1       8.484  32.435  60.189  1.00  0.00     0.009 A 
ENDBRANCH  25  26
ENDBRANCH   1  25
TORSDOF 6
ENDMDL
MODEL 4
REMARK VINA RESULT:      -9.8      2.230      6.583
REMARK  6 active torsions:
REMARK  status: ('A' for Active; 'I' for Inactive)
REMARK    1  A    between atoms: C_5  and  C_6 
REMARK    2  A    between atoms: C_6  and  N_7 
REMARK    3  A    between atoms: C_9  and  C_10 
REMARK    4  A    between atoms: C_17  and  C_18 
REMARK       I    between atoms: C_18  and  N_19 
REMARK    5  A    between atoms: N_19  and  C_20 
REMARK    6  A    between atoms: C_23  and  O_24 
ROOT
HETATM    1  N   UNL     1       5.551  27.326  53.832  1.00  0.00    -0.275 N 
HETATM    2  N   UNL     1       5.982  28.283  54.670  1.00  0.00    -0.171 NA
HETATM    3  C   UNL     1       6.945  27.699  55.409  1.00  0.00     0.104 A 
HETATM    4  C   UNL     1       7.047  26.306  55.084  1.00  0.00     0.080 A 
HETATM    5  C   UNL     1       6.179  26.135  54.020  1.00  0.00     0.132 A 
ENDROOT
BRANCH   4   6
HETATM    6  C   UNL     1       7.806  25.204  55.657  1.00  0.00     0.255 C 
HETATM    7  N   UNL     1       7.937  24.111  54.836  1.00  0.00    -0.352 N 
HETATM    8  H   UNL     1       7.541  24.197  53.908  1.00  0.00     0.163 HD
HETATM    9  O   UNL     1       8.354  25.314  56.746  1.00  0.00    -0.268 OA
BRANCH   7  10
HETATM   10  C   UNL     1       8.826  22.966  55.036  1.00  0.00     0.084 C 
HETATM   11  C   UNL     1       8.355  22.039  56.165  1.00  0.00     0.028 C 
HETATM   12  C   UNL     1       7.449  20.896  55.711  1.00  0.00     0.034 C 
HETATM   13  C   UNL     1       8.046  20.126  54.538  1.00  0.00     0.118 C 
HETATM   14  C   UNL     1       8.373  21.036  53.359  1.00  0.00     0.034 C 
HETATM   15  C   UNL     1       9.239  22.235  53.750  1.00  0.00     0.028 C 
BRANCH  13  16
HETATM   16  O   UNL     1       9.248  19.482  54.964  1.00  0.00    -0.396 OA
HETATM   17  H   UNL     1       8.987  18.659  55.413  1.00  0.00     0.210 HD
ENDBRANCH  13  16
ENDBRANCH   7  10
ENDBRANCH   4   6
BRANCH   3  18
HETATM   18  C   UNL     1       7.684  28.512  56.388  1.00  0.00    -0.005 A 
HETATM   19  C   UNL     1       7.053  28.908  57.578  1.00  0.00     0.014 A 
HETATM   20  C   UNL     1       7.717  29.699  58.520  1.00  0.00     0.007 A 
HETATM   21  C   UNL     1       9.031  30.116  58.291  1.00  0.00    -0.062 A 
HETATM   22  C   UNL     1       9.739  30.952  59.316  1.00  0.00     0.048 C 
HETATM   23  C   UNL     1       9.667  29.729  57.107  1.00  0.00     0.007 A 
HETATM   24  C   UNL     1       8.995  28.947  56.157  1.00  0.00     0.014 A 
ENDBRANCH   3  18
BRANCH   1  25
HETATM   25  C   UNL     1       4.387  27.568  52.988  1.00  0.00     0.189 C 
BRANCH  25  26
HETATM   26  C   UNL     1       4.725  27.664  51.523  1.00  0.00    -0.038 A 
HETATM   27  C   UNL     1       4.624  26.539  50.693  1.00  0.00     0.009 A 
HETATM   28  C   UNL     1       4.860  26.644  49.319  1.00  0.00     0.007 A 
HETATM   29  C   UNL     1       5.213  27.872  48.750  1.00  0.00    -0.062 A 
HETATM   30  C   UNL     1       5.410  28.000  47.269  1.00  0.00     0.048 C 
HETATM   31  C   UNL     1       5.315  28.997  49.576  1.00  0.00     0.007 A 
HETATM   32  C   UNL     1       5.077  28.894  50.948  1.00  0.00     0.009 A 
ENDBRANCH  25  26
ENDBRANCH   1  25
TORSDOF 6
ENDMDL
MODEL 5
REMARK VINA RESULT:      -9.5      2.466      7.187
REMARK  6 active torsions:
REMARK  status: ('A' for Active; 'I' for Inactive)
REMARK    1  A    between atoms: C_5  and  C_6 
REMARK    2  A    between atoms: C_6  and  N_7 
REMARK    3  A    between atoms: C_9  and  C_10 
REMARK    4  A    between atoms: C_17  and  C_18 
REMARK       I    between atoms: C_18  and  N_19 
REMARK    5  A    between atoms: N_19  and  C_20 
REMARK    6  A    between atoms: C_23  and  O_24 
ROOT
HETATM    1  N   UNL     1       6.228  27.063  56.158  1.00  0.00    -0.275 N 
HETATM    2  N   UNL     1       6.809  25.855  56.081  1.00  0.00    -0.171 NA
HETATM    3  C   UNL     1       6.532  25.407  54.841  1.00  0.00     0.104 A 
HETATM    4  C   UNL     1       5.670  26.328  54.160  1.00  0.00     0.080 A 
HETATM    5  C   UNL     1       5.561  27.404  55.023  1.00  0.00     0.132 A 
ENDROOT
BRANCH   4   6
HETATM    6  C   UNL     1       4.971  26.277  52.883  1.00  0.00     0.255 C 
HETATM    7  N   UNL     1       4.752  27.502  52.301  1.00  0.00    -0.352 N 
HETATM    8  H   UNL     1       5.137  28.304  52.786  1.00  0.00     0.163 HD
HETATM    9  O   UNL     1       4.704  25.207  52.352  1.00  0.00    -0.268 OA
BRANCH   7  10
HETATM   10  C   UNL     1       4.296  27.754  50.935  1.00  0.00     0.084 C 
HETATM   11  C   UNL     1       3.145  28.767  50.871  1.00  0.00     0.028 C 
HETATM   12  C   UNL     1       3.587  30.219  50.689  1.00  0.00     0.034 C 
HETATM   13  C   UNL     1       4.565  30.376  49.530  1.00  0.00     0.118 C 
HETATM   14  C   UNL     1       5.783  29.471  49.677  1.00  0.00     0.034 C 
HETATM   15  C   UNL     1       5.415  28.005  49.915  1.00  0.00     0.028 C 
BRANCH  13  16
HETATM   16  O   UNL     1       3.900  30.049  48.308  1.00  0.00    -0.396 OA
HETATM   17  H   UNL     1       3.163  30.676  48.207  1.00  0.00     0.210 HD
ENDBRANCH  13  16
ENDBRANCH   7  10
ENDBRANCH   4   6
BRANCH   3  18
HETATM   18  C   UNL     1       7.097  24.120  54.406  1.00  0.00    -0.005 A 
HETATM   19  C   UNL     1       7.541  23.970  53.082  1.00  0.00     0.014 A 
HETATM   20  C   UNL     1       8.062  22.756  52.627  1.00  0.00     0.007 A 
HETATM   21  C   UNL     1       8.150  21.658  53.488  1.00  0.00    -0.062 A 
HETATM   22  C   UNL     1       8.726  20.365  52.993  1.00  0.00     0.048 C 
HETATM   23  C   UNL     1       7.708  21.797  54.808  1.00  0.00     0.007 A 
HETATM   24  C   UNL     1       7.172  23.012  55.258  1.00  0.00     0.014 A 
ENDBRANCH   3  18
BRANCH   1  25
HETATM   25  C   UNL     1       6.190  27.774  57.430  1.00  0.00     0.189 C 
BRANCH  25  26
HETATM   26  C   UNL     1       7.301  28.782  57.581  1.00  0.00    -0.038 A 
HETATM   27  C   UNL     1       7.069  30.005  58.224  1.00  0.00     0.009 A 
HETATM   28  C   UNL     1       8.116  30.907  58.436  1.00  0.00     0.007 A 
HETATM   29  C   UNL     1       9.411  30.609  58.000  1.00  0.00    -0.062 A 
HETATM   30  C   UNL     1      10.547  31.548  58.277  1.00  0.00     0.048 C 
HETATM   31  C   UNL     1       9.645  29.389  57.358  1.00  0.00     0.007 A 
HETATM   32  C   UNL     1       8.601  28.485  57.147  1.00  0.00     0.009 A 
ENDBRANCH  25  26
ENDBRANCH   1  25
TORSDOF 6
ENDMDL
MODEL 6
REMARK VINA RESULT:      -9.5      4.021      7.357
REMARK  6 active torsions:
REMARK  status: ('A' for Active; 'I' for Inactive)
REMARK    1  A    between atoms: C_5  and  C_6 
REMARK    2  A    between atoms: C_6  and  N_7 
REMARK    3  A    between atoms: C_9  and  C_10 
REMARK    4  A    between atoms: C_17  and  C_18 
REMARK       I    between atoms: C_18  and  N_19 
REMARK    5  A    between atoms: N_19  and  C_20 
REMARK    6  A    between atoms: C_23  and  O_24 
ROOT
HETATM    1  N   UNL     1       6.918  26.298  57.288  1.00  0.00    -0.275 N 
HETATM    2  N   UNL     1       5.789  26.931  56.927  1.00  0.00    -0.171 NA
HETATM    3  C   UNL     1       6.063  28.244  57.054  1.00  0.00     0.104 A 
HETATM    4  C   UNL     1       7.374  28.428  57.604  1.00  0.00     0.080 A 
HETATM    5  C   UNL     1       7.904  27.152  57.672  1.00  0.00     0.132 A 
ENDROOT
BRANCH   4   6
HETATM    6  C   UNL     1       8.103  29.603  58.063  1.00  0.00     0.255 C 
HETATM    7  N   UNL     1       7.587  30.192  59.192  1.00  0.00    -0.352 N 
HETATM    8  H   UNL     1       6.792  29.729  59.616  1.00  0.00     0.163 HD
HETATM    9  O   UNL     1       9.144  29.950  57.523  1.00  0.00    -0.268 OA
BRANCH   7  10
HETATM   10  C   UNL     1       8.223  31.223  60.011  1.00  0.00     0.084 C 
HETATM   11  C   UNL     1       7.230  32.281  60.510  1.00  0.00     0.028 C 
HETATM   12  C   UNL     1       6.613  31.978  61.875  1.00  0.00     0.034 C 
HETATM   13  C   UNL     1       7.672  31.639  62.917  1.00  0.00     0.118 C 
HETATM   14  C   UNL     1       8.564  30.484  62.476  1.00  0.00     0.034 C 
HETATM   15  C   UNL     1       9.178  30.695  61.091  1.00  0.00     0.028 C 
BRANCH  13  16
HETATM   16  O   UNL     1       8.493  32.786  63.142  1.00  0.00    -0.396 OA
HETATM   17  H   UNL     1       9.347  32.465  63.481  1.00  0.00     0.210 HD
ENDBRANCH  13  16
ENDBRANCH   7  10
ENDBRANCH   4   6
BRANCH   3  18
HETATM   18  C   UNL     1       5.042  29.225  56.657  1.00  0.00    -0.005 A 
HETATM   19  C   UNL     1       4.746  29.408  55.296  1.00  0.00     0.014 A 
HETATM   20  C   UNL     1       3.799  30.348  54.881  1.00  0.00     0.007 A 
HETATM   21  C   UNL     1       3.124  31.132  55.822  1.00  0.00    -0.062 A 
HETATM   22  C   UNL     1       2.098  32.127  55.365  1.00  0.00     0.048 C 
HETATM   23  C   UNL     1       3.413  30.959  57.179  1.00  0.00     0.007 A 
HETATM   24  C   UNL     1       4.374  30.026  57.592  1.00  0.00     0.014 A 
ENDBRANCH   3  18
BRANCH   1  25
HETATM   25  C   UNL     1       6.928  24.847  57.425  1.00  0.00     0.189 C 
BRANCH  25  26
HETATM   26  C   UNL     1       7.366  24.135  56.171  1.00  0.00    -0.038 A 
HETATM   27  C   UNL     1       8.370  23.158  56.221  1.00  0.00     0.009 A 
HETATM   28  C   UNL     1       8.723  22.440  55.075  1.00  0.00     0.007 A 
HETATM   29  C   UNL     1       8.087  22.692  53.855  1.00  0.00    -0.062 A 
HETATM   30  C   UNL     1       8.422  21.884  52.637  1.00  0.00     0.048 C 
HETATM   31  C   UNL     1       7.084  23.666  53.802  1.00  0.00     0.007 A 
HETATM   32  C   UNL     1       6.730  24.383  54.947  1.00  0.00     0.009 A 
ENDBRANCH  25  26
ENDBRANCH   1  25
TORSDOF 6
ENDMDL
MODEL 7
REMARK VINA RESULT:      -9.5      1.593      2.160
REMARK  6 active torsions:
REMARK  status: ('A' for Active; 'I' for Inactive)
REMARK    1  A    between atoms: C_5  and  C_6 
REMARK    2  A    between atoms: C_6  and  N_7 
REMARK    3  A    between atoms: C_9  and  C_10 
REMARK    4  A    between atoms: C_17  and  C_18 
REMARK       I    between atoms: C_18  and  N_19 
REMARK    5  A    between atoms: N_19  and  C_20 
REMARK    6  A    between atoms: C_23  and  O_24 
ROOT
HETATM    1  N   UNL     1       4.872  27.685  50.230  1.00  0.00    -0.275 N 
HETATM    2  N   UNL     1       5.629  26.618  50.537  1.00  0.00    -0.171 NA
HETATM    3  C   UNL     1       5.598  26.537  51.881  1.00  0.00     0.104 A 
HETATM    4  C   UNL     1       4.878  27.648  52.431  1.00  0.00     0.080 A 
HETATM    5  C   UNL     1       4.376  28.316  51.327  1.00  0.00     0.132 A 
ENDROOT
BRANCH   4   6
HETATM    6  C   UNL     1       4.661  28.117  53.793  1.00  0.00     0.255 C 
HETATM    7  N   UNL     1       5.711  27.892  54.650  1.00  0.00    -0.352 N 
HETATM    8  H   UNL     1       6.538  27.472  54.244  1.00  0.00     0.163 HD
HETATM    9  O   UNL     1       3.655  28.747  54.091  1.00  0.00    -0.268 OA
BRANCH   7  10
HETATM   10  C   UNL     1       5.881  28.448  55.991  1.00  0.00     0.084 C 
HETATM   11  C   UNL     1       6.148  27.370  57.052  1.00  0.00     0.028 C 
HETATM   12  C   UNL     1       7.626  27.071  57.294  1.00  0.00     0.034 C 
HETATM   13  C   UNL     1       8.432  28.341  57.543  1.00  0.00     0.118 C 
HETATM   14  C   UNL     1       8.280  29.349  56.409  1.00  0.00     0.034 C 
HETATM   15  C   UNL     1       6.820  29.660  56.075  1.00  0.00     0.028 C 
BRANCH  13  16
HETATM   16  O   UNL     1       7.986  28.950  58.756  1.00  0.00    -0.396 OA
HETATM   17  H   UNL     1       7.758  29.872  58.546  1.00  0.00     0.210 HD
ENDBRANCH  13  16
ENDBRANCH   7  10
ENDBRANCH   4   6
BRANCH   3  18
HETATM   18  C   UNL     1       6.278  25.413  52.543  1.00  0.00    -0.005 A 
HETATM   19  C   UNL     1       7.399  24.825  51.936  1.00  0.00     0.014 A 
HETATM   20  C   UNL     1       8.057  23.741  52.524  1.00  0.00     0.007 A 
HETATM   21  C   UNL     1       7.603  23.216  53.738  1.00  0.00    -0.062 A 
HETATM   22  C   UNL     1       8.326  22.062  54.368  1.00  0.00     0.048 C 
HETATM   23  C   UNL     1       6.485  23.792  54.349  1.00  0.00     0.007 A 
HETATM   24  C   UNL     1       5.819  24.871  53.750  1.00  0.00     0.014 A 
ENDBRANCH   3  18
BRANCH   1  25
HETATM   25  C   UNL     1       4.816  28.167  48.855  1.00  0.00     0.189 C 
BRANCH  25  26
HETATM   26  C   UNL     1       3.471  27.957  48.207  1.00  0.00    -0.038 A 
HETATM   27  C   UNL     1       2.543  29.005  48.140  1.00  0.00     0.009 A 
HETATM   28  C   UNL     1       1.328  28.836  47.469  1.00  0.00     0.007 A 
HETATM   29  C   UNL     1       1.013  27.615  46.864  1.00  0.00    -0.062 A 
HETATM   30  C   UNL     1      -0.264  27.450  46.095  1.00  0.00     0.048 C 
HETATM   31  C   UNL     1       1.938  26.568  46.930  1.00  0.00     0.007 A 
HETATM   32  C   UNL     1       3.153  26.735  47.597  1.00  0.00     0.009 A 
ENDBRANCH  25  26
ENDBRANCH   1  25
TORSDOF 6
ENDMDL
MODEL 8
REMARK VINA RESULT:      -9.4      3.176      6.484
REMARK  6 active torsions:
REMARK  status: ('A' for Active; 'I' for Inactive)
REMARK    1  A    between atoms: C_5  and  C_6 
REMARK    2  A    between atoms: C_6  and  N_7 
REMARK    3  A    between atoms: C_9  and  C_10 
REMARK    4  A    between atoms: C_17  and  C_18 
REMARK       I    between atoms: C_18  and  N_19 
REMARK    5  A    between atoms: N_19  and  C_20 
REMARK    6  A    between atoms: C_23  and  O_24 
ROOT
HETATM    1  N   UNL     1       6.664  25.784  53.568  1.00  0.00    -0.275 N 
HETATM    2  N   UNL     1       7.562  26.366  54.380  1.00  0.00    -0.171 NA
HETATM    3  C   UNL     1       6.938  27.451  54.878  1.00  0.00     0.104 A 
HETATM    4  C   UNL     1       5.642  27.599  54.281  1.00  0.00     0.080 A 
HETATM    5  C   UNL     1       5.490  26.467  53.499  1.00  0.00     0.132 A 
ENDROOT
BRANCH   4   6
HETATM    6  C   UNL     1       4.628  28.641  54.352  1.00  0.00     0.255 C 
HETATM    7  N   UNL     1       4.628  29.361  55.522  1.00  0.00    -0.352 N 
HETATM    8  H   UNL     1       5.354  29.131  56.190  1.00  0.00     0.163 HD
HETATM    9  O   UNL     1       3.916  28.896  53.390  1.00  0.00    -0.268 OA
BRANCH   7  10
HETATM   10  C   UNL     1       3.899  30.601  55.788  1.00  0.00     0.084 C 
HETATM   11  C   UNL     1       2.927  30.477  56.970  1.00  0.00     0.028 C 
HETATM   12  C   UNL     1       3.520  30.867  58.323  1.00  0.00     0.034 C 
HETATM   13  C   UNL     1       4.204  32.229  58.274  1.00  0.00     0.118 C 
HETATM   14  C   UNL     1       5.276  32.297  57.192  1.00  0.00     0.034 C 
HETATM   15  C   UNL     1       4.765  31.868  55.815  1.00  0.00     0.028 C 
BRANCH  13  16
HETATM   16  O   UNL     1       3.225  33.235  58.008  1.00  0.00    -0.396 OA
HETATM   17  H   UNL     1       2.772  32.983  57.185  1.00  0.00     0.210 HD
ENDBRANCH  13  16
ENDBRANCH   7  10
ENDBRANCH   4   6
BRANCH   3  18
HETATM   18  C   UNL     1       7.634  28.278  55.876  1.00  0.00    -0.005 A 
HETATM   19  C   UNL     1       8.787  28.988  55.506  1.00  0.00     0.014 A 
HETATM   20  C   UNL     1       9.487  29.765  56.432  1.00  0.00     0.007 A 
HETATM   21  C   UNL     1       9.049  29.849  57.757  1.00  0.00    -0.062 A 
HETATM   22  C   UNL     1       9.800  30.699  58.739  1.00  0.00     0.048 C 
HETATM   23  C   UNL     1       7.903  29.143  58.136  1.00  0.00     0.007 A 
HETATM   24  C   UNL     1       7.211  28.353  57.208  1.00  0.00     0.014 A 
ENDBRANCH   3  18
BRANCH   1  25
HETATM   25  C   UNL     1       7.061  24.661  52.728  1.00  0.00     0.189 C 
BRANCH  25  26
HETATM   26  C   UNL     1       7.363  23.410  53.512  1.00  0.00    -0.038 A 
HETATM   27  C   UNL     1       7.918  22.289  52.879  1.00  0.00     0.009 A 
HETATM   28  C   UNL     1       8.272  21.157  53.618  1.00  0.00     0.007 A 
HETATM   29  C   UNL     1       8.068  21.119  55.002  1.00  0.00    -0.062 A 
HETATM   30  C   UNL     1       8.500  19.929  55.806  1.00  0.00     0.048 C 
HETATM   31  C   UNL     1       7.515  22.236  55.636  1.00  0.00     0.007 A 
HETATM   32  C   UNL     1       7.162  23.368  54.899  1.00  0.00     0.009 A 
ENDBRANCH  25  26
ENDBRANCH   1  25
TORSDOF 6
ENDMDL
MODEL 9
REMARK VINA RESULT:      -9.3      2.523      7.941
REMARK  6 active torsions:
REMARK  status: ('A' for Active; 'I' for Inactive)
REMARK    1  A    between atoms: C_5  and  C_6 
REMARK    2  A    between atoms: C_6  and  N_7 
REMARK    3  A    between atoms: C_9  and  C_10 
REMARK    4  A    between atoms: C_17  and  C_18 
REMARK       I    between atoms: C_18  and  N_19 
REMARK    5  A    between atoms: N_19  and  C_20 
REMARK    6  A    between atoms: C_23  and  O_24 
ROOT
HETATM    1  N   UNL     1       4.610  28.766  55.022  1.00  0.00    -0.275 N 
HETATM    2  N   UNL     1       5.109  27.520  55.061  1.00  0.00    -0.171 NA
HETATM    3  C   UNL     1       5.555  27.278  53.813  1.00  0.00     0.104 A 
HETATM    4  C   UNL     1       5.234  28.375  52.948  1.00  0.00     0.080 A 
HETATM    5  C   UNL     1       4.689  29.331  53.788  1.00  0.00     0.132 A 
ENDROOT
BRANCH   4   6
HETATM    6  C   UNL     1       5.357  28.577  51.511  1.00  0.00     0.255 C 
HETATM    7  N   UNL     1       4.569  27.750  50.747  1.00  0.00    -0.352 N 
HETATM    8  H   UNL     1       3.954  27.124  51.253  1.00  0.00     0.163 HD
HETATM    9  O   UNL     1       6.039  29.486  51.057  1.00  0.00    -0.268 OA
BRANCH   7  10
HETATM   10  C   UNL     1       4.303  27.871  49.314  1.00  0.00     0.084 C 
HETATM   11  C   UNL     1       4.568  26.568  48.548  1.00  0.00     0.028 C 
HETATM   12  C   UNL     1       3.352  25.654  48.410  1.00  0.00     0.034 C 
HETATM   13  C   UNL     1       2.134  26.402  47.878  1.00  0.00     0.118 C 
HETATM   14  C   UNL     1       1.785  27.614  48.734  1.00  0.00     0.034 C 
HETATM   15  C   UNL     1       2.973  28.551  48.959  1.00  0.00     0.028 C 
BRANCH  13  16
HETATM   16  O   UNL     1       2.401  26.846  46.547  1.00  0.00    -0.396 OA
HETATM   17  H   UNL     1       2.261  27.809  46.534  1.00  0.00     0.210 HD
ENDBRANCH  13  16
ENDBRANCH   7  10
ENDBRANCH   4   6
BRANCH   3  18
HETATM   18  C   UNL     1       6.238  26.006  53.535  1.00  0.00    -0.005 A 
HETATM   19  C   UNL     1       6.086  24.928  54.422  1.00  0.00     0.014 A 
HETATM   20  C   UNL     1       6.738  23.711  54.202  1.00  0.00     0.007 A 
HETATM   21  C   UNL     1       7.564  23.545  53.086  1.00  0.00    -0.062 A 
HETATM   22  C   UNL     1       8.247  22.230  52.852  1.00  0.00     0.048 C 
HETATM   23  C   UNL     1       7.725  24.614  52.199  1.00  0.00     0.007 A 
HETATM   24  C   UNL     1       7.081  25.838  52.429  1.00  0.00     0.014 A 
ENDBRANCH   3  18
BRANCH   1  25
HETATM   25  C   UNL     1       3.889  29.299  56.172  1.00  0.00     0.189 C 
BRANCH  25  26
HETATM   26  C   UNL     1       4.757  30.127  57.085  1.00  0.00    -0.038 A 
HETATM   27  C   UNL     1       4.204  31.173  57.837  1.00  0.00     0.009 A 
HETATM   28  C   UNL     1       4.990  31.891  58.743  1.00  0.00     0.007 A 
HETATM   29  C   UNL     1       6.345  31.584  58.907  1.00  0.00    -0.062 A 
HETATM   30  C   UNL     1       7.177  32.314  59.920  1.00  0.00     0.048 C 
HETATM   31  C   UNL     1       6.899  30.541  58.158  1.00  0.00     0.007 A 
HETATM   32  C   UNL     1       6.115  29.822  57.254  1.00  0.00     0.009 A 
ENDBRANCH  25  26
ENDBRANCH   1  25
TORSDOF 6
ENDMDL
MODEL 10
REMARK VINA RESULT:      -9.1      3.055      6.739
REMARK  6 active torsions:
REMARK  status: ('A' for Active; 'I' for Inactive)
REMARK    1  A    between atoms: C_5  and  C_6 
REMARK    2  A    between atoms: C_6  and  N_7 
REMARK    3  A    between atoms: C_9  and  C_10 
REMARK    4  A    between atoms: C_17  and  C_18 
REMARK       I    between atoms: C_18  and  N_19 
REMARK    5  A    between atoms: N_19  and  C_20 
REMARK    6  A    between atoms: C_23  and  O_24 
ROOT
HETATM    1  N   UNL     1       7.642  25.676  56.553  1.00  0.00    -0.275 N 
HETATM    2  N   UNL     1       6.610  26.126  55.821  1.00  0.00    -0.171 NA
HETATM    3  C   UNL     1       6.800  27.456  55.721  1.00  0.00     0.104 A 
HETATM    4  C   UNL     1       7.937  27.857  56.497  1.00  0.00     0.080 A 
HETATM    5  C   UNL     1       8.480  26.669  56.955  1.00  0.00     0.132 A 
ENDROOT
BRANCH   4   6
HETATM    6  C   UNL     1       8.496  29.156  56.843  1.00  0.00     0.255 C 
HETATM    7  N   UNL     1       7.812  29.830  57.827  1.00  0.00    -0.352 N 
HETATM    8  H   UNL     1       7.027  29.342  58.241  1.00  0.00     0.163 HD
HETATM    9  O   UNL     1       9.548  29.542  56.352  1.00  0.00    -0.268 OA
BRANCH   7  10
HETATM   10  C   UNL     1       8.257  31.026  58.540  1.00  0.00     0.084 C 
HETATM   11  C   UNL     1       7.091  31.925  58.977  1.00  0.00     0.028 C 
HETATM   12  C   UNL     1       6.556  31.632  60.378  1.00  0.00     0.034 C 
HETATM   13  C   UNL     1       7.671  31.583  61.416  1.00  0.00     0.118 C 
HETATM   14  C   UNL     1       8.755  30.576  61.048  1.00  0.00     0.034 C 
HETATM   15  C   UNL     1       9.304  30.776  59.634  1.00  0.00     0.028 C 
BRANCH  13  16
HETATM   16  O   UNL     1       8.269  32.875  61.524  1.00  0.00    -0.396 OA
HETATM   17  H   UNL     1       7.544  33.522  61.580  1.00  0.00     0.210 HD
ENDBRANCH  13  16
ENDBRANCH   7  10
ENDBRANCH   4   6
BRANCH   3  18
HETATM   18  C   UNL     1       5.868  28.249  54.904  1.00  0.00    -0.005 A 
HETATM   19  C   UNL     1       5.870  28.101  53.508  1.00  0.00     0.014 A 
HETATM   20  C   UNL     1       5.015  28.854  52.699  1.00  0.00     0.007 A 
HETATM   21  C   UNL     1       4.136  29.779  53.270  1.00  0.00    -0.062 A 
HETATM   22  C   UNL     1       3.211  30.571  52.393  1.00  0.00     0.048 C 
HETATM   23  C   UNL     1       4.128  29.935  54.660  1.00  0.00     0.007 A 
HETATM   24  C   UNL     1       4.997  29.189  55.468  1.00  0.00     0.014 A 
ENDBRANCH   3  18
BRANCH   1  25
HETATM   25  C   UNL     1       7.670  24.288  56.998  1.00  0.00     0.189 C 
BRANCH  25  26
HETATM   26  C   UNL     1       7.781  23.303  55.863  1.00  0.00    -0.038 A 
HETATM   27  C   UNL     1       8.095  23.740  54.569  1.00  0.00     0.009 A 
HETATM   28  C   UNL     1       8.277  22.820  53.532  1.00  0.00     0.007 A 
HETATM   29  C   UNL     1       8.137  21.448  53.765  1.00  0.00    -0.062 A 
HETATM   30  C   UNL     1       8.388  20.457  52.669  1.00  0.00     0.048 C 
HETATM   31  C   UNL     1       7.825  21.009  55.056  1.00  0.00     0.007 A 
HETATM   32  C   UNL     1       7.645  21.926  56.094  1.00  0.00     0.009 A 
ENDBRANCH  25  26
ENDBRANCH   1  25
TORSDOF 6
ENDMDL
