MODEL 1
REMARK VINA RESULT:      -7.3      0.000      0.000
REMARK  3 active torsions:
REMARK  status: ('A' for Active; 'I' for Inactive)
REMARK    1  A    between atoms: C_2  and  N_3 
REMARK    2  A    between atoms: C_2  and  C_14 
REMARK       I    between atoms: N_3  and  C_4 
REMARK    3  A    between atoms: C_4  and  C_5 
ROOT
HETATM    1  N   UNL     1       6.838  24.602  53.610  1.00  0.00    -0.347 N 
HETATM    2  C   UNL     1       6.946  25.933  53.292  1.00  0.00     0.268 C 
HETATM    3  O   UNL     1       7.664  26.714  53.904  1.00  0.00    -0.266 OA
HETATM    4  H   UNL     1       6.307  23.992  53.007  1.00  0.00     0.163 HD
ENDROOT
BRANCH   1   5
HETATM    5  C   UNL     1       7.622  23.983  54.667  1.00  0.00     0.114 C 
HETATM    6  C   UNL     1       6.849  24.109  55.983  1.00  0.00     0.037 C 
BRANCH   5   7
HETATM    7  C   UNL     1       7.979  22.533  54.375  1.00  0.00    -0.033 A 
HETATM    8  C   UNL     1       7.926  21.972  53.092  1.00  0.00     0.028 A 
HETATM    9  C   UNL     1       8.270  20.638  52.924  1.00  0.00     0.116 A 
HETATM   10  N   UNL     1       8.655  19.825  53.930  1.00  0.00    -0.273 NA
HETATM   11  C   UNL     1       8.714  20.377  55.157  1.00  0.00     0.116 A 
HETATM   12  C   UNL     1       8.397  21.701  55.424  1.00  0.00     0.028 A 
ENDBRANCH   5   7
ENDBRANCH   1   5
BRANCH   2  13
HETATM   13  C   UNL     1       6.149  26.360  52.162  1.00  0.00     0.103 A 
HETATM   14  N   UNL     1       5.866  27.698  51.955  1.00  0.00    -0.341 N 
HETATM   15  H   UNL     1       6.187  28.449  52.555  1.00  0.00     0.167 HD
HETATM   16  C   UNL     1       5.105  27.838  50.838  1.00  0.00     0.126 A 
HETATM   17 CL   UNL     1       4.642  29.409  50.390  1.00  0.00    -0.063 Cl
HETATM   18  C   UNL     1       4.865  26.607  50.298  1.00  0.00     0.074 A 
HETATM   19 CL   UNL     1       3.967  26.214  48.914  1.00  0.00    -0.081 Cl
HETATM   20  C   UNL     1       5.523  25.665  51.133  1.00  0.00     0.062 A 
ENDBRANCH   2  13
TORSDOF 3
ENDMDL
MODEL 2
REMARK VINA RESULT:      -7.2      4.438      6.695
REMARK  3 active torsions:
REMARK  status: ('A' for Active; 'I' for Inactive)
REMARK    1  A    between atoms: C_2  and  N_3 
REMARK    2  A    between atoms: C_2  and  C_14 
REMARK       I    between atoms: N_3  and  C_4 
REMARK    3  A    between atoms: C_4  and  C_5 
ROOT
HETATM    1  N   UNL     1       6.563  25.667  55.488  1.00  0.00    -0.347 N 
HETATM    2  C   UNL     1       6.467  25.044  54.268  1.00  0.00     0.268 C 
HETATM    3  O   UNL     1       5.954  25.565  53.285  1.00  0.00    -0.266 OA
HETATM    4  H   UNL     1       7.084  25.224  56.229  1.00  0.00     0.163 HD
ENDROOT
BRANCH   1   5
HETATM    5  C   UNL     1       6.121  27.036  55.704  1.00  0.00     0.114 C 
HETATM    6  C   UNL     1       4.950  27.018  56.690  1.00  0.00     0.037 C 
BRANCH   5   7
HETATM    7  C   UNL     1       7.235  27.953  56.188  1.00  0.00    -0.033 A 
HETATM    8  C   UNL     1       8.173  28.543  55.331  1.00  0.00     0.028 A 
HETATM    9  C   UNL     1       9.154  29.365  55.867  1.00  0.00     0.116 A 
HETATM   10  N   UNL     1       9.274  29.639  57.183  1.00  0.00    -0.273 NA
HETATM   11  C   UNL     1       8.361  29.076  57.997  1.00  0.00     0.116 A 
HETATM   12  C   UNL     1       7.340  28.247  57.556  1.00  0.00     0.028 A 
ENDBRANCH   5   7
ENDBRANCH   1   5
BRANCH   2  13
HETATM   13  C   UNL     1       7.027  23.711  54.215  1.00  0.00     0.103 A 
HETATM   14  N   UNL     1       7.211  22.969  55.368  1.00  0.00    -0.341 N 
HETATM   15  H   UNL     1       6.973  23.292  56.299  1.00  0.00     0.167 HD
HETATM   16  C   UNL     1       7.751  21.762  55.055  1.00  0.00     0.126 A 
HETATM   17 CL   UNL     1       8.059  20.681  56.327  1.00  0.00    -0.063 Cl
HETATM   18  C   UNL     1       7.940  21.688  53.704  1.00  0.00     0.074 A 
HETATM   19 CL   UNL     1       8.587  20.413  52.793  1.00  0.00    -0.081 Cl
HETATM   20  C   UNL     1       7.484  22.920  53.166  1.00  0.00     0.062 A 
ENDBRANCH   2  13
TORSDOF 3
ENDMDL
MODEL 3
REMARK VINA RESULT:      -7.2      3.538      4.565
REMARK  3 active torsions:
REMARK  status: ('A' for Active; 'I' for Inactive)
REMARK    1  A    between atoms: C_2  and  N_3 
REMARK    2  A    between atoms: C_2  and  C_14 
REMARK       I    between atoms: N_3  and  C_4 
REMARK    3  A    between atoms: C_4  and  C_5 
ROOT
HETATM    1  N   UNL     1       7.077  25.181  54.369  1.00  0.00    -0.347 N 
HETATM    2  C   UNL     1       6.062  26.096  54.504  1.00  0.00     0.268 C 
HETATM    3  O   UNL     1       5.066  26.106  53.790  1.00  0.00    -0.266 OA
HETATM    4  H   UNL     1       7.820  25.165  55.049  1.00  0.00     0.163 HD
ENDROOT
BRANCH   1   5
HETATM    5  C   UNL     1       7.028  24.095  53.402  1.00  0.00     0.114 C 
HETATM    6  C   UNL     1       7.864  24.493  52.183  1.00  0.00     0.037 C 
BRANCH   5   7
HETATM    7  C   UNL     1       7.490  22.764  53.977  1.00  0.00    -0.033 A 
HETATM    8  C   UNL     1       7.533  22.493  55.351  1.00  0.00     0.028 A 
HETATM    9  C   UNL     1       7.970  21.248  55.781  1.00  0.00     0.116 A 
HETATM   10  N   UNL     1       8.371  20.262  54.952  1.00  0.00    -0.273 NA
HETATM   11  C   UNL     1       8.316  20.528  53.633  1.00  0.00     0.116 A 
HETATM   12  C   UNL     1       7.887  21.738  53.106  1.00  0.00     0.028 A 
ENDBRANCH   5   7
ENDBRANCH   1   5
BRANCH   2  13
HETATM   13  C   UNL     1       6.243  27.060  55.568  1.00  0.00     0.103 A 
HETATM   14  N   UNL     1       5.217  27.908  55.943  1.00  0.00    -0.341 N 
HETATM   15  H   UNL     1       4.297  27.914  55.518  1.00  0.00     0.167 HD
HETATM   16  C   UNL     1       5.635  28.714  56.953  1.00  0.00     0.126 A 
HETATM   17 CL   UNL     1       4.527  29.839  57.576  1.00  0.00    -0.063 Cl
HETATM   18  C   UNL     1       6.935  28.423  57.255  1.00  0.00     0.074 A 
HETATM   19 CL   UNL     1       7.936  29.134  58.424  1.00  0.00    -0.081 Cl
HETATM   20  C   UNL     1       7.327  27.376  56.380  1.00  0.00     0.062 A 
ENDBRANCH   2  13
TORSDOF 3
ENDMDL
MODEL 4
REMARK VINA RESULT:      -7.1      3.481      6.798
REMARK  3 active torsions:
REMARK  status: ('A' for Active; 'I' for Inactive)
REMARK    1  A    between atoms: C_2  and  N_3 
REMARK    2  A    between atoms: C_2  and  C_14 
REMARK       I    between atoms: N_3  and  C_4 
REMARK    3  A    between atoms: C_4  and  C_5 
ROOT
HETATM    1  N   UNL     1       6.999  25.744  53.614  1.00  0.00    -0.347 N 
HETATM    2  C   UNL     1       6.553  24.826  54.532  1.00  0.00     0.268 C 
HETATM    3  O   UNL     1       5.751  25.095  55.418  1.00  0.00    -0.266 OA
HETATM    4  H   UNL     1       7.581  25.437  52.851  1.00  0.00     0.163 HD
ENDROOT
BRANCH   1   5
HETATM    5  C   UNL     1       6.506  27.112  53.573  1.00  0.00     0.114 C 
HETATM    6  C   UNL     1       7.662  28.056  53.915  1.00  0.00     0.037 C 
BRANCH   5   7
HETATM    7  C   UNL     1       5.873  27.477  52.238  1.00  0.00    -0.033 A 
HETATM    8  C   UNL     1       5.630  28.798  51.838  1.00  0.00     0.028 A 
HETATM    9  C   UNL     1       5.047  29.032  50.600  1.00  0.00     0.116 A 
HETATM   10  N   UNL     1       4.686  28.058  49.739  1.00  0.00    -0.273 NA
HETATM   11  C   UNL     1       4.934  26.792  50.128  1.00  0.00     0.116 A 
HETATM   12  C   UNL     1       5.519  26.458  51.342  1.00  0.00     0.028 A 
ENDBRANCH   5   7
ENDBRANCH   1   5
BRANCH   2  13
HETATM   13  C   UNL     1       7.094  23.492  54.377  1.00  0.00     0.103 A 
HETATM   14  N   UNL     1       7.298  22.675  55.474  1.00  0.00    -0.341 N 
HETATM   15  H   UNL     1       7.090  22.939  56.430  1.00  0.00     0.167 HD
HETATM   16  C   UNL     1       7.813  21.485  55.069  1.00  0.00     0.126 A 
HETATM   17 CL   UNL     1       8.141  20.319  56.260  1.00  0.00    -0.063 Cl
HETATM   18  C   UNL     1       7.966  21.497  53.712  1.00  0.00     0.074 A 
HETATM   19 CL   UNL     1       8.572  20.277  52.703  1.00  0.00    -0.081 Cl
HETATM   20  C   UNL     1       7.513  22.767  53.267  1.00  0.00     0.062 A 
ENDBRANCH   2  13
TORSDOF 3
ENDMDL
MODEL 5
REMARK VINA RESULT:      -7.1      1.523      2.476
REMARK  3 active torsions:
REMARK  status: ('A' for Active; 'I' for Inactive)
REMARK    1  A    between atoms: C_2  and  N_3 
REMARK    2  A    between atoms: C_2  and  C_14 
REMARK       I    between atoms: N_3  and  C_4 
REMARK    3  A    between atoms: C_4  and  C_5 
ROOT
HETATM    1  N   UNL     1       5.976  25.580  52.755  1.00  0.00    -0.347 N 
HETATM    2  C   UNL     1       5.935  26.850  52.233  1.00  0.00     0.268 C 
HETATM    3  O   UNL     1       6.360  27.834  52.826  1.00  0.00    -0.266 OA
HETATM    4  H   UNL     1       5.701  24.800  52.177  1.00  0.00     0.163 HD
ENDROOT
BRANCH   1   5
HETATM    5  C   UNL     1       6.591  25.281  54.038  1.00  0.00     0.114 C 
HETATM    6  C   UNL     1       5.565  25.553  55.143  1.00  0.00     0.037 C 
BRANCH   5   7
HETATM    7  C   UNL     1       7.129  23.860  54.124  1.00  0.00    -0.033 A 
HETATM    8  C   UNL     1       7.281  23.167  55.332  1.00  0.00     0.028 A 
HETATM    9  C   UNL     1       7.782  21.873  55.311  1.00  0.00     0.116 A 
HETATM   10  N   UNL     1       8.146  21.224  54.186  1.00  0.00    -0.273 NA
HETATM   11  C   UNL     1       7.986  21.894  53.028  1.00  0.00     0.116 A 
HETATM   12  C   UNL     1       7.487  23.186  52.947  1.00  0.00     0.028 A 
ENDBRANCH   5   7
ENDBRANCH   1   5
BRANCH   2  13
HETATM   13  C   UNL     1       5.356  26.951  50.911  1.00  0.00     0.103 A 
HETATM   14  N   UNL     1       4.590  25.924  50.388  1.00  0.00    -0.341 N 
HETATM   15  H   UNL     1       4.385  25.060  50.875  1.00  0.00     0.167 HD
HETATM   16  C   UNL     1       4.167  26.258  49.141  1.00  0.00     0.126 A 
HETATM   17 CL   UNL     1       3.202  25.137  48.307  1.00  0.00    -0.063 Cl
HETATM   18  C   UNL     1       4.648  27.495  48.816  1.00  0.00     0.074 A 
HETATM   19 CL   UNL     1       4.428  28.375  47.384  1.00  0.00    -0.081 Cl
HETATM   20  C   UNL     1       5.403  27.939  49.933  1.00  0.00     0.062 A 
ENDBRANCH   2  13
TORSDOF 3
ENDMDL
MODEL 6
REMARK VINA RESULT:      -7.0      4.305      6.853
REMARK  3 active torsions:
REMARK  status: ('A' for Active; 'I' for Inactive)
REMARK    1  A    between atoms: C_2  and  N_3 
REMARK    2  A    between atoms: C_2  and  C_14 
REMARK       I    between atoms: N_3  and  C_4 
REMARK    3  A    between atoms: C_4  and  C_5 
ROOT
HETATM    1  N   UNL     1       6.601  25.907  54.592  1.00  0.00    -0.347 N 
HETATM    2  C   UNL     1       7.452  25.210  53.771  1.00  0.00     0.268 C 
HETATM    3  O   UNL     1       8.057  25.723  52.838  1.00  0.00    -0.266 OA
HETATM    4  H   UNL     1       6.211  25.450  55.402  1.00  0.00     0.163 HD
ENDROOT
BRANCH   1   5
HETATM    5  C   UNL     1       6.390  27.341  54.464  1.00  0.00     0.114 C 
HETATM    6  C   UNL     1       4.940  27.581  54.034  1.00  0.00     0.037 C 
BRANCH   5   7
HETATM    7  C   UNL     1       6.722  28.108  55.735  1.00  0.00    -0.033 A 
HETATM    8  C   UNL     1       5.976  29.203  56.190  1.00  0.00     0.028 A 
HETATM    9  C   UNL     1       6.357  29.841  57.362  1.00  0.00     0.116 A 
HETATM   10  N   UNL     1       7.420  29.476  58.108  1.00  0.00    -0.273 NA
HETATM   11  C   UNL     1       8.125  28.414  57.669  1.00  0.00     0.116 A 
HETATM   12  C   UNL     1       7.818  27.708  56.515  1.00  0.00     0.028 A 
ENDBRANCH   5   7
ENDBRANCH   1   5
BRANCH   2  13
HETATM   13  C   UNL     1       7.600  23.806  54.092  1.00  0.00     0.103 A 
HETATM   14  N   UNL     1       7.926  22.883  53.114  1.00  0.00    -0.341 N 
HETATM   15  H   UNL     1       8.083  23.114  52.140  1.00  0.00     0.167 HD
HETATM   16  C   UNL     1       8.002  21.643  53.663  1.00  0.00     0.126 A 
HETATM   17 CL   UNL     1       8.396  20.348  52.638  1.00  0.00    -0.063 Cl
HETATM   18  C   UNL     1       7.720  21.721  54.998  1.00  0.00     0.074 A 
HETATM   19 CL   UNL     1       7.668  20.473  56.144  1.00  0.00    -0.081 Cl
HETATM   20  C   UNL     1       7.464  23.089  55.276  1.00  0.00     0.062 A 
ENDBRANCH   2  13
TORSDOF 3
ENDMDL
MODEL 7
REMARK VINA RESULT:      -6.9      4.457      5.614
REMARK  3 active torsions:
REMARK  status: ('A' for Active; 'I' for Inactive)
REMARK    1  A    between atoms: C_2  and  N_3 
REMARK    2  A    between atoms: C_2  and  C_14 
REMARK       I    between atoms: N_3  and  C_4 
REMARK    3  A    between atoms: C_4  and  C_5 
ROOT
HETATM    1  N   UNL     1       6.935  26.156  55.556  1.00  0.00    -0.347 N 
HETATM    2  C   UNL     1       7.046  26.440  56.895  1.00  0.00     0.268 C 
HETATM    3  O   UNL     1       6.577  25.727  57.774  1.00  0.00    -0.266 OA
HETATM    4  H   UNL     1       7.427  26.729  54.888  1.00  0.00     0.163 HD
ENDROOT
BRANCH   1   5
HETATM    5  C   UNL     1       6.304  24.942  55.063  1.00  0.00     0.114 C 
HETATM    6  C   UNL     1       5.380  25.313  53.899  1.00  0.00     0.037 C 
BRANCH   5   7
HETATM    7  C   UNL     1       7.307  23.874  54.651  1.00  0.00    -0.033 A 
HETATM    8  C   UNL     1       8.281  23.359  55.516  1.00  0.00     0.028 A 
HETATM    9  C   UNL     1       9.153  22.386  55.049  1.00  0.00     0.116 A 
HETATM   10  N   UNL     1       9.132  21.894  53.793  1.00  0.00    -0.273 NA
HETATM   11  C   UNL     1       8.185  22.388  52.971  1.00  0.00     0.116 A 
HETATM   12  C   UNL     1       7.265  23.356  53.348  1.00  0.00     0.028 A 
ENDBRANCH   5   7
ENDBRANCH   1   5
BRANCH   2  13
HETATM   13  C   UNL     1       7.772  27.652  57.207  1.00  0.00     0.103 A 
HETATM   14  N   UNL     1       7.173  28.678  57.916  1.00  0.00    -0.341 N 
HETATM   15  H   UNL     1       6.220  28.655  58.258  1.00  0.00     0.167 HD
HETATM   16  C   UNL     1       8.055  29.699  58.075  1.00  0.00     0.126 A 
HETATM   17 CL   UNL     1       7.529  31.071  58.926  1.00  0.00    -0.063 Cl
HETATM   18  C   UNL     1       9.237  29.375  57.473  1.00  0.00     0.074 A 
HETATM   19 CL   UNL     1      10.660  30.291  57.368  1.00  0.00    -0.081 Cl
HETATM   20  C   UNL     1       9.064  28.078  56.920  1.00  0.00     0.062 A 
ENDBRANCH   2  13
TORSDOF 3
ENDMDL
MODEL 8
REMARK VINA RESULT:      -6.9      7.977      9.560
REMARK  3 active torsions:
REMARK  status: ('A' for Active; 'I' for Inactive)
REMARK    1  A    between atoms: C_2  and  N_3 
REMARK    2  A    between atoms: C_2  and  C_14 
REMARK       I    between atoms: N_3  and  C_4 
REMARK    3  A    between atoms: C_4  and  C_5 
ROOT
HETATM    1  N   UNL     1       8.893  30.289  58.366  1.00  0.00    -0.347 N 
HETATM    2  C   UNL     1       9.249  31.474  58.962  1.00  0.00     0.268 C 
HETATM    3  O   UNL     1      10.067  32.249  58.480  1.00  0.00    -0.266 OA
HETATM    4  H   UNL     1       8.143  29.744  58.762  1.00  0.00     0.163 HD
ENDROOT
BRANCH   1   5
HETATM    5  C   UNL     1       9.410  29.877  57.070  1.00  0.00     0.114 C 
HETATM    6  C   UNL     1      10.893  29.529  57.228  1.00  0.00     0.037 C 
BRANCH   5   7
HETATM    7  C   UNL     1       8.634  28.720  56.459  1.00  0.00    -0.033 A 
HETATM    8  C   UNL     1       8.205  28.700  55.125  1.00  0.00     0.028 A 
HETATM    9  C   UNL     1       7.502  27.599  54.658  1.00  0.00     0.116 A 
HETATM   10  N   UNL     1       7.191  26.526  55.414  1.00  0.00    -0.273 NA
HETATM   11  C   UNL     1       7.617  26.549  56.691  1.00  0.00     0.116 A 
HETATM   12  C   UNL     1       8.332  27.600  57.248  1.00  0.00     0.028 A 
ENDBRANCH   5   7
ENDBRANCH   1   5
BRANCH   2  13
HETATM   13  C   UNL     1       8.579  31.758  60.212  1.00  0.00     0.103 A 
HETATM   14  N   UNL     1       7.202  31.675  60.317  1.00  0.00    -0.341 N 
HETATM   15  H   UNL     1       6.586  31.416  59.555  1.00  0.00     0.167 HD
HETATM   16  C   UNL     1       6.820  31.989  61.582  1.00  0.00     0.126 A 
HETATM   17 CL   UNL     1       5.160  31.948  61.939  1.00  0.00    -0.063 Cl
HETATM   18  C   UNL     1       7.924  32.292  62.326  1.00  0.00     0.074 A 
HETATM   19 CL   UNL     1       8.010  32.756  63.955  1.00  0.00    -0.081 Cl
HETATM   20  C   UNL     1       9.043  32.148  61.464  1.00  0.00     0.062 A 
ENDBRANCH   2  13
TORSDOF 3
ENDMDL
MODEL 9
REMARK VINA RESULT:      -6.9      4.586      6.971
REMARK  3 active torsions:
REMARK  status: ('A' for Active; 'I' for Inactive)
REMARK    1  A    between atoms: C_2  and  N_3 
REMARK    2  A    between atoms: C_2  and  C_14 
REMARK       I    between atoms: N_3  and  C_4 
REMARK    3  A    between atoms: C_4  and  C_5 
ROOT
HETATM    1  N   UNL     1       6.619  26.117  55.584  1.00  0.00    -0.347 N 
HETATM    2  C   UNL     1       6.905  25.402  54.448  1.00  0.00     0.268 C 
HETATM    3  O   UNL     1       6.884  25.889  53.324  1.00  0.00    -0.266 OA
HETATM    4  H   UNL     1       6.750  25.685  56.486  1.00  0.00     0.163 HD
ENDROOT
BRANCH   1   5
HETATM    5  C   UNL     1       6.327  27.542  55.559  1.00  0.00     0.114 C 
HETATM    6  C   UNL     1       4.908  27.756  56.094  1.00  0.00     0.037 C 
BRANCH   5   7
HETATM    7  C   UNL     1       7.339  28.372  56.336  1.00  0.00    -0.033 A 
HETATM    8  C   UNL     1       8.514  28.881  55.767  1.00  0.00     0.028 A 
HETATM    9  C   UNL     1       9.378  29.627  56.556  1.00  0.00     0.116 A 
HETATM   10  N   UNL     1       9.165  29.899  57.860  1.00  0.00    -0.273 NA
HETATM   11  C   UNL     1       8.027  29.415  58.395  1.00  0.00     0.116 A 
HETATM   12  C   UNL     1       7.099  28.665  57.686  1.00  0.00     0.028 A 
ENDBRANCH   5   7
ENDBRANCH   1   5
BRANCH   2  13
HETATM   13  C   UNL     1       7.248  24.013  54.668  1.00  0.00     0.103 A 
HETATM   14  N   UNL     1       7.388  23.138  53.606  1.00  0.00    -0.341 N 
HETATM   15  H   UNL     1       7.267  23.395  52.634  1.00  0.00     0.167 HD
HETATM   16  C   UNL     1       7.707  21.902  54.071  1.00  0.00     0.126 A 
HETATM   17 CL   UNL     1       7.931  20.663  52.932  1.00  0.00    -0.063 Cl
HETATM   18  C   UNL     1       7.774  21.935  55.435  1.00  0.00     0.074 A 
HETATM   19 CL   UNL     1       8.125  20.672  56.510  1.00  0.00    -0.081 Cl
HETATM   20  C   UNL     1       7.484  23.271  55.820  1.00  0.00     0.062 A 
ENDBRANCH   2  13
TORSDOF 3
ENDMDL
MODEL 10
REMARK VINA RESULT:      -6.7      3.489      6.779
REMARK  3 active torsions:
REMARK  status: ('A' for Active; 'I' for Inactive)
REMARK    1  A    between atoms: C_2  and  N_3 
REMARK    2  A    between atoms: C_2  and  C_14 
REMARK       I    between atoms: N_3  and  C_4 
REMARK    3  A    between atoms: C_4  and  C_5 
ROOT
HETATM    1  N   UNL     1       7.252  25.889  54.224  1.00  0.00    -0.347 N 
HETATM    2  C   UNL     1       6.610  24.948  54.992  1.00  0.00     0.268 C 
HETATM    3  O   UNL     1       5.584  25.179  55.620  1.00  0.00    -0.266 OA
HETATM    4  H   UNL     1       8.035  25.609  53.654  1.00  0.00     0.163 HD
ENDROOT
BRANCH   1   5
HETATM    5  C   UNL     1       6.730  27.233  54.036  1.00  0.00     0.114 C 
HETATM    6  C   UNL     1       7.907  28.214  54.031  1.00  0.00     0.037 C 
BRANCH   5   7
HETATM    7  C   UNL     1       5.889  27.376  52.776  1.00  0.00    -0.033 A 
HETATM    8  C   UNL     1       5.896  26.437  51.736  1.00  0.00     0.028 A 
HETATM    9  C   UNL     1       5.094  26.654  50.625  1.00  0.00     0.116 A 
HETATM   10  N   UNL     1       4.295  27.730  50.469  1.00  0.00    -0.273 NA
HETATM   11  C   UNL     1       4.286  28.621  51.480  1.00  0.00     0.116 A 
HETATM   12  C   UNL     1       5.046  28.488  52.633  1.00  0.00     0.028 A 
ENDBRANCH   5   7
ENDBRANCH   1   5
BRANCH   2  13
HETATM   13  C   UNL     1       7.229  23.640  55.004  1.00  0.00     0.103 A 
HETATM   14  N   UNL     1       7.380  22.913  53.837  1.00  0.00    -0.341 N 
HETATM   15  H   UNL     1       7.082  23.231  52.923  1.00  0.00     0.167 HD
HETATM   16  C   UNL     1       7.982  21.726  54.112  1.00  0.00     0.126 A 
HETATM   17 CL   UNL     1       8.271  20.668  52.816  1.00  0.00    -0.063 Cl
HETATM   18  C   UNL     1       8.229  21.645  55.453  1.00  0.00     0.074 A 
HETATM   19 CL   UNL     1       8.951  20.381  56.323  1.00  0.00    -0.081 Cl
HETATM   20  C   UNL     1       7.754  22.855  56.025  1.00  0.00     0.062 A 
ENDBRANCH   2  13
TORSDOF 3
ENDMDL
