MODEL 1
REMARK VINA RESULT:     -11.6      0.000      0.000
REMARK  7 active torsions:
REMARK  status: ('A' for Active; 'I' for Inactive)
REMARK    1  A    between atoms: C_3  and  N_4 
REMARK       I    between atoms: N_4  and  C_5 
REMARK    2  A    between atoms: C_5  and  C_6 
REMARK    3  A    between atoms: C_6  and  N_7 
REMARK    4  A    between atoms: N_10  and  C_11 
REMARK    5  A    between atoms: C_11  and  C_12 
REMARK    6  A    between atoms: C_27  and  C_28 
REMARK       I    between atoms: C_28  and  N_29 
REMARK    7  A    between atoms: N_29  and  C_30 
ROOT
HETATM    1  N   UNL     1       6.161  27.059  53.993  1.00  0.00    -0.290 N 
HETATM    2  C   UNL     1       6.890  26.997  55.181  1.00  0.00     0.332 C 
HETATM    3  O   UNL     1       7.941  26.350  55.242  1.00  0.00    -0.246 OA
HETATM    4  N   UNL     1       6.405  27.717  56.260  1.00  0.00    -0.261 N 
HETATM    5  C   UNL     1       5.407  28.671  56.171  1.00  0.00     0.264 C 
HETATM    6  O   UNL     1       5.039  29.378  57.108  1.00  0.00    -0.267 OA
HETATM    7  C   UNL     1       4.785  28.865  54.850  1.00  0.00     0.059 A 
HETATM    8  C   UNL     1       5.137  28.027  53.794  1.00  0.00     0.056 A 
HETATM    9  C   UNL     1       3.875  29.921  54.671  1.00  0.00     0.020 A 
HETATM   10  C   UNL     1       3.292  30.150  53.424  1.00  0.00     0.018 A 
HETATM   11  C   UNL     1       3.588  29.296  52.362  1.00  0.00     0.034 A 
HETATM   12  C   UNL     1       4.496  28.234  52.561  1.00  0.00     0.048 A 
ENDROOT
BRANCH   1  13
HETATM   13  C   UNL     1       6.713  26.264  52.896  1.00  0.00     0.237 C 
BRANCH  13  14
HETATM   14  C   UNL     1       6.491  24.750  53.093  1.00  0.00     0.240 C 
HETATM   15  N   UNL     1       7.620  24.123  53.594  1.00  0.00    -0.323 N 
HETATM   16  H   UNL     1       8.386  24.715  53.901  1.00  0.00     0.169 HD
HETATM   17  O   UNL     1       5.436  24.205  52.778  1.00  0.00    -0.271 OA
BRANCH  15  18
HETATM   18  C   UNL     1       7.829  22.751  53.842  1.00  0.00     0.073 A 
HETATM   19  C   UNL     1       8.268  21.827  52.896  1.00  0.00     0.033 A 
HETATM   20  C   UNL     1       8.455  20.486  53.262  1.00  0.00     0.002 A 
HETATM   21  C   UNL     1       8.207  20.062  54.570  1.00  0.00     0.003 A 
HETATM   22  C   UNL     1       7.770  20.978  55.521  1.00  0.00     0.044 A 
HETATM   23  C   UNL     1       7.584  22.306  55.150  1.00  0.00     0.143 A 
HETATM   24  F   UNL     1       7.167  23.186  56.077  1.00  0.00    -0.204 F 
ENDBRANCH  15  18
ENDBRANCH  13  14
ENDBRANCH   1  13
BRANCH   4  25
HETATM   25  C   UNL     1       7.119  27.593  57.525  1.00  0.00     0.175 C 
BRANCH  25  26
HETATM   26  C   UNL     1       8.045  28.759  57.809  1.00  0.00    -0.037 A 
HETATM   27  C   UNL     1       7.802  29.626  58.887  1.00  0.00     0.048 A 
HETATM   28  C   UNL     1       8.680  30.671  59.090  1.00  0.00     0.105 A 
HETATM   29  C   UNL     1       9.762  30.884  58.267  1.00  0.00     0.105 A 
HETATM   30  O   UNL     1       8.600  31.595  60.087  1.00  0.00    -0.323 OA
HETATM   31  O   UNL     1      10.496  31.966  58.640  1.00  0.00    -0.323 OA
HETATM   32  C   UNL     1      10.028  30.063  57.195  1.00  0.00     0.040 A 
HETATM   33  C   UNL     1       9.771  32.392  59.812  1.00  0.00     0.352 A 
HETATM   34  C   UNL     1       9.160  28.992  56.968  1.00  0.00     0.012 A 
ENDBRANCH  25  26
ENDBRANCH   4  25
BRANCH  11  35
HETATM   35  C   UNL     1       3.030  29.476  50.987  1.00  0.00     0.252 C 
HETATM   36  N   UNL     1       3.025  28.384  50.142  1.00  0.00    -0.352 N 
HETATM   37  H   UNL     1       3.464  27.520  50.424  1.00  0.00     0.163 HD
HETATM   38  O   UNL     1       2.611  30.580  50.649  1.00  0.00    -0.268 OA
BRANCH  36  39
HETATM   39  C   UNL     1       2.547  28.490  48.765  1.00  0.00     0.084 C 
HETATM   40  C   UNL     1       3.713  28.757  47.800  1.00  0.00     0.025 C 
HETATM   41  C   UNL     1       4.586  27.524  47.564  1.00  0.00     0.002 C 
HETATM   42  C   UNL     1       3.758  26.324  47.118  1.00  0.00     0.000 C 
HETATM   43  C   UNL     1       2.634  26.025  48.104  1.00  0.00     0.002 C 
HETATM   44  C   UNL     1       1.750  27.248  48.335  1.00  0.00     0.025 C 
ENDBRANCH  36  39
ENDBRANCH  11  35
TORSDOF 7
ENDMDL
MODEL 2
REMARK VINA RESULT:     -11.4      1.388      1.906
REMARK  7 active torsions:
REMARK  status: ('A' for Active; 'I' for Inactive)
REMARK    1  A    between atoms: C_3  and  N_4 
REMARK       I    between atoms: N_4  and  C_5 
REMARK    2  A    between atoms: C_5  and  C_6 
REMARK    3  A    between atoms: C_6  and  N_7 
REMARK    4  A    between atoms: N_10  and  C_11 
REMARK    5  A    between atoms: C_11  and  C_12 
REMARK    6  A    between atoms: C_27  and  C_28 
REMARK       I    between atoms: C_28  and  N_29 
REMARK    7  A    between atoms: N_29  and  C_30 
ROOT
HETATM    1  N   UNL     1       6.285  26.970  53.856  1.00  0.00    -0.290 N 
HETATM    2  C   UNL     1       6.483  27.151  55.226  1.00  0.00     0.332 C 
HETATM    3  O   UNL     1       7.496  26.712  55.780  1.00  0.00    -0.246 OA
HETATM    4  N   UNL     1       5.520  27.870  55.914  1.00  0.00    -0.261 N 
HETATM    5  C   UNL     1       4.526  28.617  55.307  1.00  0.00     0.264 C 
HETATM    6  O   UNL     1       3.729  29.331  55.913  1.00  0.00    -0.267 OA
HETATM    7  C   UNL     1       4.463  28.573  53.837  1.00  0.00     0.059 A 
HETATM    8  C   UNL     1       5.310  27.716  53.137  1.00  0.00     0.056 A 
HETATM    9  C   UNL     1       3.571  29.427  53.164  1.00  0.00     0.020 A 
HETATM   10  C   UNL     1       3.509  29.431  51.771  1.00  0.00     0.018 A 
HETATM   11  C   UNL     1       4.310  28.548  51.046  1.00  0.00     0.034 A 
HETATM   12  C   UNL     1       5.193  27.690  51.737  1.00  0.00     0.048 A 
ENDROOT
BRANCH   1  13
HETATM   13  C   UNL     1       7.325  26.189  53.188  1.00  0.00     0.237 C 
BRANCH  13  14
HETATM   14  C   UNL     1       7.077  24.669  53.283  1.00  0.00     0.240 C 
HETATM   15  N   UNL     1       8.023  24.040  54.074  1.00  0.00    -0.323 N 
HETATM   16  H   UNL     1       8.662  24.630  54.600  1.00  0.00     0.169 HD
HETATM   17  O   UNL     1       6.163  24.124  52.668  1.00  0.00    -0.271 OA
BRANCH  15  18
HETATM   18  C   UNL     1       8.171  22.664  54.346  1.00  0.00     0.073 A 
HETATM   19  C   UNL     1       8.515  21.697  53.403  1.00  0.00     0.033 A 
HETATM   20  C   UNL     1       8.647  20.356  53.791  1.00  0.00     0.002 A 
HETATM   21  C   UNL     1       8.439  19.974  55.119  1.00  0.00     0.003 A 
HETATM   22  C   UNL     1       8.097  20.933  56.067  1.00  0.00     0.044 A 
HETATM   23  C   UNL     1       7.964  22.261  55.673  1.00  0.00     0.143 A 
HETATM   24  F   UNL     1       7.639  23.181  56.597  1.00  0.00    -0.204 F 
ENDBRANCH  15  18
ENDBRANCH  13  14
ENDBRANCH   1  13
BRANCH   4  25
HETATM   25  C   UNL     1       5.681  27.995  57.359  1.00  0.00     0.175 C 
BRANCH  25  26
HETATM   26  C   UNL     1       6.547  29.170  57.768  1.00  0.00    -0.037 A 
HETATM   27  C   UNL     1       7.943  29.043  57.845  1.00  0.00     0.048 A 
HETATM   28  C   UNL     1       8.675  30.148  58.227  1.00  0.00     0.105 A 
HETATM   29  C   UNL     1       8.076  31.347  58.540  1.00  0.00     0.105 A 
HETATM   30  O   UNL     1      10.030  30.203  58.344  1.00  0.00    -0.323 OA
HETATM   31  O   UNL     1       8.974  32.303  58.892  1.00  0.00    -0.323 OA
HETATM   32  C   UNL     1       6.710  31.508  58.486  1.00  0.00     0.040 A 
HETATM   33  C   UNL     1      10.213  31.580  58.735  1.00  0.00     0.352 A 
HETATM   34  C   UNL     1       5.942  30.408  58.095  1.00  0.00     0.012 A 
ENDBRANCH  25  26
ENDBRANCH   4  25
BRANCH  11  35
HETATM   35  C   UNL     1       4.328  28.497  49.552  1.00  0.00     0.252 C 
HETATM   36  N   UNL     1       3.140  28.715  48.884  1.00  0.00    -0.352 N 
HETATM   37  H   UNL     1       2.277  28.818  49.398  1.00  0.00     0.163 HD
HETATM   38  O   UNL     1       5.382  28.253  48.973  1.00  0.00    -0.268 OA
BRANCH  36  39
HETATM   39  C   UNL     1       3.060  28.628  47.427  1.00  0.00     0.084 C 
HETATM   40  C   UNL     1       2.679  27.208  46.982  1.00  0.00     0.025 C 
HETATM   41  C   UNL     1       1.207  26.878  47.235  1.00  0.00     0.002 C 
HETATM   42  C   UNL     1       0.283  27.921  46.618  1.00  0.00     0.000 C 
HETATM   43  C   UNL     1       0.625  29.326  47.102  1.00  0.00     0.002 C 
HETATM   44  C   UNL     1       2.091  29.667  46.841  1.00  0.00     0.025 C 
ENDBRANCH  36  39
ENDBRANCH  11  35
TORSDOF 7
ENDMDL
MODEL 3
REMARK VINA RESULT:     -10.7      3.325      6.898
REMARK  7 active torsions:
REMARK  status: ('A' for Active; 'I' for Inactive)
REMARK    1  A    between atoms: C_3  and  N_4 
REMARK       I    between atoms: N_4  and  C_5 
REMARK    2  A    between atoms: C_5  and  C_6 
REMARK    3  A    between atoms: C_6  and  N_7 
REMARK    4  A    between atoms: N_10  and  C_11 
REMARK    5  A    between atoms: C_11  and  C_12 
REMARK    6  A    between atoms: C_27  and  C_28 
REMARK       I    between atoms: C_28  and  N_29 
REMARK    7  A    between atoms: N_29  and  C_30 
ROOT
HETATM    1  N   UNL     1       4.739  30.374  56.955  1.00  0.00    -0.290 N 
HETATM    2  C   UNL     1       4.443  31.528  57.683  1.00  0.00     0.332 C 
HETATM    3  O   UNL     1       3.281  31.940  57.767  1.00  0.00    -0.246 OA
HETATM    4  N   UNL     1       5.496  32.156  58.328  1.00  0.00    -0.261 N 
HETATM    5  C   UNL     1       6.748  31.593  58.503  1.00  0.00     0.264 C 
HETATM    6  O   UNL     1       7.654  32.109  59.155  1.00  0.00    -0.267 OA
HETATM    7  C   UNL     1       6.975  30.272  57.894  1.00  0.00     0.059 A 
HETATM    8  C   UNL     1       5.987  29.704  57.092  1.00  0.00     0.056 A 
HETATM    9  C   UNL     1       8.174  29.590  58.165  1.00  0.00     0.020 A 
HETATM   10  C   UNL     1       8.408  28.324  57.629  1.00  0.00     0.018 A 
HETATM   11  C   UNL     1       7.457  27.753  56.783  1.00  0.00     0.034 A 
HETATM   12  C   UNL     1       6.262  28.455  56.511  1.00  0.00     0.048 A 
ENDROOT
BRANCH   1  13
HETATM   13  C   UNL     1       3.592  29.767  56.283  1.00  0.00     0.237 C 
BRANCH  13  14
HETATM   14  C   UNL     1       3.544  30.098  54.777  1.00  0.00     0.240 C 
HETATM   15  N   UNL     1       3.755  28.976  53.994  1.00  0.00    -0.323 N 
HETATM   16  H   UNL     1       3.772  28.074  54.463  1.00  0.00     0.169 HD
HETATM   17  O   UNL     1       3.387  31.248  54.373  1.00  0.00    -0.271 OA
BRANCH  15  18
HETATM   18  C   UNL     1       3.850  28.885  52.591  1.00  0.00     0.073 A 
HETATM   19  C   UNL     1       2.770  28.950  51.712  1.00  0.00     0.033 A 
HETATM   20  C   UNL     1       2.986  28.862  50.329  1.00  0.00     0.002 A 
HETATM   21  C   UNL     1       4.278  28.710  49.817  1.00  0.00     0.003 A 
HETATM   22  C   UNL     1       5.361  28.645  50.687  1.00  0.00     0.044 A 
HETATM   23  C   UNL     1       5.138  28.730  52.058  1.00  0.00     0.143 A 
HETATM   24  F   UNL     1       6.191  28.673  52.890  1.00  0.00    -0.204 F 
ENDBRANCH  15  18
ENDBRANCH  13  14
ENDBRANCH   1  13
BRANCH   4  25
HETATM   25  C   UNL     1       5.207  33.405  59.024  1.00  0.00     0.175 C 
BRANCH  25  26
HETATM   26  C   UNL     1       5.023  33.231  60.518  1.00  0.00    -0.037 A 
HETATM   27  C   UNL     1       5.926  33.807  61.427  1.00  0.00     0.048 A 
HETATM   28  C   UNL     1       5.705  33.609  62.774  1.00  0.00     0.105 A 
HETATM   29  C   UNL     1       4.645  32.864  63.237  1.00  0.00     0.105 A 
HETATM   30  O   UNL     1       6.471  34.100  63.786  1.00  0.00    -0.323 OA
HETATM   31  O   UNL     1       4.611  32.791  64.594  1.00  0.00    -0.323 OA
HETATM   32  C   UNL     1       3.744  32.275  62.379  1.00  0.00     0.040 A 
HETATM   33  C   UNL     1       5.753  33.603  64.935  1.00  0.00     0.352 A 
HETATM   34  C   UNL     1       3.937  32.464  61.008  1.00  0.00     0.012 A 
ENDBRANCH  25  26
ENDBRANCH   4  25
BRANCH  11  35
HETATM   35  C   UNL     1       7.609  26.393  56.180  1.00  0.00     0.252 C 
HETATM   36  N   UNL     1       7.390  26.259  54.823  1.00  0.00    -0.352 N 
HETATM   37  H   UNL     1       7.054  27.041  54.281  1.00  0.00     0.163 HD
HETATM   38  O   UNL     1       7.907  25.447  56.903  1.00  0.00    -0.268 OA
BRANCH  36  39
HETATM   39  C   UNL     1       7.465  24.955  54.166  1.00  0.00     0.084 C 
HETATM   40  C   UNL     1       6.111  24.233  54.227  1.00  0.00     0.025 C 
HETATM   41  C   UNL     1       5.075  24.825  53.270  1.00  0.00     0.002 C 
HETATM   42  C   UNL     1       5.605  24.898  51.843  1.00  0.00     0.000 C 
HETATM   43  C   UNL     1       6.921  25.664  51.774  1.00  0.00     0.002 C 
HETATM   44  C   UNL     1       7.965  25.069  52.718  1.00  0.00     0.025 C 
ENDBRANCH  36  39
ENDBRANCH  11  35
TORSDOF 7
ENDMDL
MODEL 4
REMARK VINA RESULT:     -10.7      1.581      2.159
REMARK  7 active torsions:
REMARK  status: ('A' for Active; 'I' for Inactive)
REMARK    1  A    between atoms: C_3  and  N_4 
REMARK       I    between atoms: N_4  and  C_5 
REMARK    2  A    between atoms: C_5  and  C_6 
REMARK    3  A    between atoms: C_6  and  N_7 
REMARK    4  A    between atoms: N_10  and  C_11 
REMARK    5  A    between atoms: C_11  and  C_12 
REMARK    6  A    between atoms: C_27  and  C_28 
REMARK       I    between atoms: C_28  and  N_29 
REMARK    7  A    between atoms: N_29  and  C_30 
ROOT
HETATM    1  N   UNL     1       4.223  28.070  54.226  1.00  0.00    -0.290 N 
HETATM    2  C   UNL     1       4.686  28.141  55.540  1.00  0.00     0.332 C 
HETATM    3  O   UNL     1       5.091  27.129  56.122  1.00  0.00    -0.246 OA
HETATM    4  N   UNL     1       4.704  29.391  56.137  1.00  0.00    -0.261 N 
HETATM    5  C   UNL     1       4.535  30.582  55.453  1.00  0.00     0.264 C 
HETATM    6  O   UNL     1       4.644  31.695  55.964  1.00  0.00    -0.267 OA
HETATM    7  C   UNL     1       4.246  30.488  54.012  1.00  0.00     0.059 A 
HETATM    8  C   UNL     1       4.049  29.237  53.430  1.00  0.00     0.056 A 
HETATM    9  C   UNL     1       4.214  31.664  53.243  1.00  0.00     0.020 A 
HETATM   10  C   UNL     1       3.973  31.606  51.870  1.00  0.00     0.018 A 
HETATM   11  C   UNL     1       3.723  30.372  51.270  1.00  0.00     0.034 A 
HETATM   12  C   UNL     1       3.749  29.201  52.058  1.00  0.00     0.048 A 
ENDROOT
BRANCH   1  13
HETATM   13  C   UNL     1       4.210  26.723  53.656  1.00  0.00     0.237 C 
BRANCH  13  14
HETATM   14  C   UNL     1       5.623  26.114  53.545  1.00  0.00     0.240 C 
HETATM   15  N   UNL     1       5.673  24.828  54.056  1.00  0.00    -0.323 N 
HETATM   16  H   UNL     1       4.791  24.388  54.304  1.00  0.00     0.169 HD
HETATM   17  O   UNL     1       6.570  26.756  53.096  1.00  0.00    -0.271 OA
BRANCH  15  18
HETATM   18  C   UNL     1       6.788  23.976  54.193  1.00  0.00     0.073 A 
HETATM   19  C   UNL     1       7.412  23.305  53.144  1.00  0.00     0.033 A 
HETATM   20  C   UNL     1       8.526  22.492  53.397  1.00  0.00     0.002 A 
HETATM   21  C   UNL     1       9.023  22.346  54.695  1.00  0.00     0.003 A 
HETATM   22  C   UNL     1       8.407  23.013  55.748  1.00  0.00     0.044 A 
HETATM   23  C   UNL     1       7.300  23.815  55.489  1.00  0.00     0.143 A 
HETATM   24  F   UNL     1       6.714  24.462  56.512  1.00  0.00    -0.204 F 
ENDBRANCH  15  18
ENDBRANCH  13  14
ENDBRANCH   1  13
BRANCH   4  25
HETATM   25  C   UNL     1       5.112  29.460  57.536  1.00  0.00     0.175 C 
BRANCH  25  26
HETATM   26  C   UNL     1       6.557  29.881  57.721  1.00  0.00    -0.037 A 
HETATM   27  C   UNL     1       7.595  29.198  57.066  1.00  0.00     0.048 A 
HETATM   28  C   UNL     1       8.888  29.628  57.279  1.00  0.00     0.105 A 
HETATM   29  C   UNL     1       9.178  30.683  58.112  1.00  0.00     0.105 A 
HETATM   30  O   UNL     1      10.007  29.090  56.720  1.00  0.00    -0.323 OA
HETATM   31  O   UNL     1      10.511  30.942  58.184  1.00  0.00    -0.323 OA
HETATM   32  C   UNL     1       8.190  31.371  58.780  1.00  0.00     0.040 A 
HETATM   33  C   UNL     1      11.026  29.948  57.274  1.00  0.00     0.352 A 
HETATM   34  C   UNL     1       6.868  30.964  58.579  1.00  0.00     0.012 A 
ENDBRANCH  25  26
ENDBRANCH   4  25
BRANCH  11  35
HETATM   35  C   UNL     1       3.478  30.210  49.804  1.00  0.00     0.252 C 
HETATM   36  N   UNL     1       3.694  28.965  49.246  1.00  0.00    -0.352 N 
HETATM   37  H   UNL     1       4.087  28.219  49.801  1.00  0.00     0.163 HD
HETATM   38  O   UNL     1       3.110  31.179  49.146  1.00  0.00    -0.268 OA
BRANCH  36  39
HETATM   39  C   UNL     1       3.531  28.736  47.812  1.00  0.00     0.084 C 
HETATM   40  C   UNL     1       4.580  27.741  47.293  1.00  0.00     0.025 C 
HETATM   41  C   UNL     1       4.292  26.299  47.711  1.00  0.00     0.002 C 
HETATM   42  C   UNL     1       2.881  25.872  47.324  1.00  0.00     0.000 C 
HETATM   43  C   UNL     1       1.835  26.829  47.886  1.00  0.00     0.002 C 
HETATM   44  C   UNL     1       2.109  28.271  47.461  1.00  0.00     0.025 C 
ENDBRANCH  36  39
ENDBRANCH  11  35
TORSDOF 7
ENDMDL
MODEL 5
REMARK VINA RESULT:     -10.6      2.090      8.666
REMARK  7 active torsions:
REMARK  status: ('A' for Active; 'I' for Inactive)
REMARK    1  A    between atoms: C_3  and  N_4 
REMARK       I    between atoms: N_4  and  C_5 
REMARK    2  A    between atoms: C_5  and  C_6 
REMARK    3  A    between atoms: C_6  and  N_7 
REMARK    4  A    between atoms: N_10  and  C_11 
REMARK    5  A    between atoms: C_11  and  C_12 
REMARK    6  A    between atoms: C_27  and  C_28 
REMARK       I    between atoms: C_28  and  N_29 
REMARK    7  A    between atoms: N_29  and  C_30 
ROOT
HETATM    1  N   UNL     1       6.486  27.983  54.425  1.00  0.00    -0.290 N 
HETATM    2  C   UNL     1       5.395  27.706  53.602  1.00  0.00     0.332 C 
HETATM    3  O   UNL     1       5.397  26.716  52.863  1.00  0.00    -0.246 OA
HETATM    4  N   UNL     1       4.309  28.562  53.682  1.00  0.00    -0.261 N 
HETATM    5  C   UNL     1       4.135  29.506  54.679  1.00  0.00     0.264 C 
HETATM    6  O   UNL     1       3.129  30.202  54.805  1.00  0.00    -0.267 OA
HETATM    7  C   UNL     1       5.219  29.641  55.665  1.00  0.00     0.059 A 
HETATM    8  C   UNL     1       6.396  28.913  55.499  1.00  0.00     0.056 A 
HETATM    9  C   UNL     1       5.030  30.475  56.780  1.00  0.00     0.020 A 
HETATM   10  C   UNL     1       6.026  30.601  57.749  1.00  0.00     0.018 A 
HETATM   11  C   UNL     1       7.234  29.923  57.582  1.00  0.00     0.034 A 
HETATM   12  C   UNL     1       7.412  29.097  56.451  1.00  0.00     0.048 A 
ENDROOT
BRANCH   1  13
HETATM   13  C   UNL     1       7.608  27.055  54.283  1.00  0.00     0.237 C 
BRANCH  13  14
HETATM   14  C   UNL     1       7.329  25.685  54.934  1.00  0.00     0.240 C 
HETATM   15  N   UNL     1       8.026  24.665  54.310  1.00  0.00    -0.323 N 
HETATM   16  H   UNL     1       8.724  24.929  53.619  1.00  0.00     0.169 HD
HETATM   17  O   UNL     1       6.533  25.560  55.862  1.00  0.00    -0.271 OA
BRANCH  15  18
HETATM   18  C   UNL     1       7.984  23.280  54.570  1.00  0.00     0.073 A 
HETATM   19  C   UNL     1       7.983  22.706  55.840  1.00  0.00     0.033 A 
HETATM   20  C   UNL     1       7.925  21.312  55.978  1.00  0.00     0.002 A 
HETATM   21  C   UNL     1       7.864  20.485  54.853  1.00  0.00     0.003 A 
HETATM   22  C   UNL     1       7.863  21.049  53.582  1.00  0.00     0.044 A 
HETATM   23  C   UNL     1       7.925  22.433  53.453  1.00  0.00     0.143 A 
HETATM   24  F   UNL     1       7.917  22.970  52.221  1.00  0.00    -0.204 F 
ENDBRANCH  15  18
ENDBRANCH  13  14
ENDBRANCH   1  13
BRANCH   4  25
HETATM   25  C   UNL     1       3.197  28.324  52.767  1.00  0.00     0.175 C 
BRANCH  25  26
HETATM   26  C   UNL     1       3.335  29.060  51.449  1.00  0.00    -0.037 A 
HETATM   27  C   UNL     1       3.763  28.390  50.291  1.00  0.00     0.048 A 
HETATM   28  C   UNL     1       3.871  29.118  49.124  1.00  0.00     0.105 A 
HETATM   29  C   UNL     1       3.587  30.463  49.074  1.00  0.00     0.105 A 
HETATM   30  O   UNL     1       4.259  28.628  47.915  1.00  0.00    -0.323 OA
HETATM   31  O   UNL     1       3.760  30.988  47.832  1.00  0.00    -0.323 OA
HETATM   32  C   UNL     1       3.175  31.157  50.190  1.00  0.00     0.040 A 
HETATM   33  C   UNL     1       4.156  29.812  47.097  1.00  0.00     0.352 A 
HETATM   34  C   UNL     1       3.049  30.446  51.386  1.00  0.00     0.012 A 
ENDBRANCH  25  26
ENDBRANCH   4  25
BRANCH  11  35
HETATM   35  C   UNL     1       8.348  29.979  58.577  1.00  0.00     0.252 C 
HETATM   36  N   UNL     1       8.048  30.386  59.862  1.00  0.00    -0.352 N 
HETATM   37  H   UNL     1       7.121  30.715  60.089  1.00  0.00     0.163 HD
HETATM   38  O   UNL     1       9.484  29.678  58.223  1.00  0.00    -0.268 OA
BRANCH  36  39
HETATM   39  C   UNL     1       9.088  30.520  60.880  1.00  0.00     0.084 C 
HETATM   40  C   UNL     1       9.640  31.953  60.913  1.00  0.00     0.025 C 
HETATM   41  C   UNL     1       8.673  32.951  61.552  1.00  0.00     0.002 C 
HETATM   42  C   UNL     1       8.227  32.494  62.936  1.00  0.00     0.000 C 
HETATM   43  C   UNL     1       7.627  31.093  62.894  1.00  0.00     0.002 C 
HETATM   44  C   UNL     1       8.593  30.088  62.269  1.00  0.00     0.025 C 
ENDBRANCH  36  39
ENDBRANCH  11  35
TORSDOF 7
ENDMDL
MODEL 6
REMARK VINA RESULT:     -10.4      1.934      8.172
REMARK  7 active torsions:
REMARK  status: ('A' for Active; 'I' for Inactive)
REMARK    1  A    between atoms: C_3  and  N_4 
REMARK       I    between atoms: N_4  and  C_5 
REMARK    2  A    between atoms: C_5  and  C_6 
REMARK    3  A    between atoms: C_6  and  N_7 
REMARK    4  A    between atoms: N_10  and  C_11 
REMARK    5  A    between atoms: C_11  and  C_12 
REMARK    6  A    between atoms: C_27  and  C_28 
REMARK       I    between atoms: C_28  and  N_29 
REMARK    7  A    between atoms: N_29  and  C_30 
ROOT
HETATM    1  N   UNL     1       5.607  27.192  51.525  1.00  0.00    -0.290 N 
HETATM    2  C   UNL     1       4.714  27.208  50.452  1.00  0.00     0.332 C 
HETATM    3  O   UNL     1       4.789  26.359  49.557  1.00  0.00    -0.246 OA
HETATM    4  N   UNL     1       3.732  28.185  50.462  1.00  0.00    -0.261 N 
HETATM    5  C   UNL     1       3.427  28.970  51.559  1.00  0.00     0.264 C 
HETATM    6  O   UNL     1       2.495  29.771  51.600  1.00  0.00    -0.267 OA
HETATM    7  C   UNL     1       4.260  28.790  52.760  1.00  0.00     0.059 A 
HETATM    8  C   UNL     1       5.364  27.940  52.711  1.00  0.00     0.056 A 
HETATM    9  C   UNL     1       3.902  29.451  53.947  1.00  0.00     0.020 A 
HETATM   10  C   UNL     1       4.653  29.278  55.110  1.00  0.00     0.018 A 
HETATM   11  C   UNL     1       5.792  28.472  55.076  1.00  0.00     0.034 A 
HETATM   12  C   UNL     1       6.144  27.823  53.873  1.00  0.00     0.048 A 
ENDROOT
BRANCH   1  13
HETATM   13  C   UNL     1       6.631  26.151  51.450  1.00  0.00     0.237 C 
BRANCH  13  14
HETATM   14  C   UNL     1       6.307  24.936  52.344  1.00  0.00     0.240 C 
HETATM   15  N   UNL     1       7.454  24.282  52.761  1.00  0.00    -0.323 N 
HETATM   16  H   UNL     1       8.345  24.729  52.568  1.00  0.00     0.169 HD
HETATM   17  O   UNL     1       5.150  24.601  52.584  1.00  0.00    -0.271 OA
BRANCH  15  18
HETATM   18  C   UNL     1       7.567  23.103  53.527  1.00  0.00     0.073 A 
HETATM   19  C   UNL     1       7.789  21.831  53.004  1.00  0.00     0.033 A 
HETATM   20  C   UNL     1       7.898  20.729  53.865  1.00  0.00     0.002 A 
HETATM   21  C   UNL     1       7.788  20.892  55.249  1.00  0.00     0.003 A 
HETATM   22  C   UNL     1       7.568  22.158  55.779  1.00  0.00     0.044 A 
HETATM   23  C   UNL     1       7.458  23.245  54.918  1.00  0.00     0.143 A 
HETATM   24  F   UNL     1       7.251  24.467  55.440  1.00  0.00    -0.204 F 
ENDBRANCH  15  18
ENDBRANCH  13  14
ENDBRANCH   1  13
BRANCH   4  25
HETATM   25  C   UNL     1       2.846  28.256  49.305  1.00  0.00     0.175 C 
BRANCH  25  26
HETATM   26  C   UNL     1       3.225  29.347  48.324  1.00  0.00    -0.037 A 
HETATM   27  C   UNL     1       4.282  30.229  48.601  1.00  0.00     0.048 A 
HETATM   28  C   UNL     1       4.576  31.203  47.669  1.00  0.00     0.105 A 
HETATM   29  C   UNL     1       3.861  31.333  46.501  1.00  0.00     0.105 A 
HETATM   30  O   UNL     1       5.568  32.129  47.771  1.00  0.00    -0.323 OA
HETATM   31  O   UNL     1       4.310  32.354  45.724  1.00  0.00    -0.323 OA
HETATM   32  C   UNL     1       2.811  30.495  46.198  1.00  0.00     0.040 A 
HETATM   33  C   UNL     1       5.412  32.833  46.522  1.00  0.00     0.352 A 
HETATM   34  C   UNL     1       2.495  29.493  47.119  1.00  0.00     0.012 A 
ENDBRANCH  25  26
ENDBRANCH   4  25
BRANCH  11  35
HETATM   35  C   UNL     1       6.644  28.210  56.276  1.00  0.00     0.252 C 
HETATM   36  N   UNL     1       7.704  29.061  56.515  1.00  0.00    -0.352 N 
HETATM   37  H   UNL     1       7.939  29.782  55.849  1.00  0.00     0.163 HD
HETATM   38  O   UNL     1       6.387  27.249  56.996  1.00  0.00    -0.268 OA
BRANCH  36  39
HETATM   39  C   UNL     1       8.617  28.843  57.635  1.00  0.00     0.084 C 
HETATM   40  C   UNL     1      10.077  29.031  57.196  1.00  0.00     0.025 C 
HETATM   41  C   UNL     1      10.450  30.499  56.980  1.00  0.00     0.002 C 
HETATM   42  C   UNL     1      10.122  31.349  58.203  1.00  0.00     0.000 C 
HETATM   43  C   UNL     1       8.659  31.204  58.605  1.00  0.00     0.002 C 
HETATM   44  C   UNL     1       8.282  29.742  58.835  1.00  0.00     0.025 C 
ENDBRANCH  36  39
ENDBRANCH  11  35
TORSDOF 7
ENDMDL
MODEL 7
REMARK VINA RESULT:     -10.3      1.557      2.154
REMARK  7 active torsions:
REMARK  status: ('A' for Active; 'I' for Inactive)
REMARK    1  A    between atoms: C_3  and  N_4 
REMARK       I    between atoms: N_4  and  C_5 
REMARK    2  A    between atoms: C_5  and  C_6 
REMARK    3  A    between atoms: C_6  and  N_7 
REMARK    4  A    between atoms: N_10  and  C_11 
REMARK    5  A    between atoms: C_11  and  C_12 
REMARK    6  A    between atoms: C_27  and  C_28 
REMARK       I    between atoms: C_28  and  N_29 
REMARK    7  A    between atoms: N_29  and  C_30 
ROOT
HETATM    1  N   UNL     1       6.445  27.014  53.762  1.00  0.00    -0.290 N 
HETATM    2  C   UNL     1       6.998  26.998  55.043  1.00  0.00     0.332 C 
HETATM    3  O   UNL     1       8.001  26.318  55.288  1.00  0.00    -0.246 OA
HETATM    4  N   UNL     1       6.400  27.800  56.001  1.00  0.00    -0.261 N 
HETATM    5  C   UNL     1       5.467  28.783  55.719  1.00  0.00     0.264 C 
HETATM    6  O   UNL     1       5.005  29.558  56.555  1.00  0.00    -0.267 OA
HETATM    7  C   UNL     1       5.045  28.919  54.315  1.00  0.00     0.059 A 
HETATM    8  C   UNL     1       5.503  28.005  53.367  1.00  0.00     0.056 A 
HETATM    9  C   UNL     1       4.216  29.994  53.951  1.00  0.00     0.020 A 
HETATM   10  C   UNL     1       3.824  30.168  52.624  1.00  0.00     0.018 A 
HETATM   11  C   UNL     1       4.226  29.240  51.663  1.00  0.00     0.034 A 
HETATM   12  C   UNL     1       5.050  28.160  52.047  1.00  0.00     0.048 A 
ENDROOT
BRANCH   1  13
HETATM   13  C   UNL     1       7.108  26.135  52.800  1.00  0.00     0.237 C 
BRANCH  13  14
HETATM   14  C   UNL     1       6.816  24.643  53.063  1.00  0.00     0.240 C 
HETATM   15  N   UNL     1       7.891  24.002  53.656  1.00  0.00    -0.323 N 
HETATM   16  H   UNL     1       8.663  24.581  53.973  1.00  0.00     0.169 HD
HETATM   17  O   UNL     1       5.757  24.122  52.719  1.00  0.00    -0.271 OA
BRANCH  15  18
HETATM   18  C   UNL     1       8.031  22.639  53.986  1.00  0.00     0.073 A 
HETATM   19  C   UNL     1       8.481  21.650  53.115  1.00  0.00     0.033 A 
HETATM   20  C   UNL     1       8.594  20.324  53.559  1.00  0.00     0.002 A 
HETATM   21  C   UNL     1       8.262  19.981  54.872  1.00  0.00     0.003 A 
HETATM   22  C   UNL     1       7.813  20.962  55.749  1.00  0.00     0.044 A 
HETATM   23  C   UNL     1       7.700  22.274  55.300  1.00  0.00     0.143 A 
HETATM   24  F   UNL     1       7.271  23.218  56.156  1.00  0.00    -0.204 F 
ENDBRANCH  15  18
ENDBRANCH  13  14
ENDBRANCH   1  13
BRANCH   4  25
HETATM   25  C   UNL     1       6.925  27.727  57.360  1.00  0.00     0.175 C 
BRANCH  25  26
HETATM   26  C   UNL     1       7.893  28.846  57.691  1.00  0.00    -0.037 A 
HETATM   27  C   UNL     1       7.627  29.741  58.740  1.00  0.00     0.048 A 
HETATM   28  C   UNL     1       8.545  30.740  58.989  1.00  0.00     0.105 A 
HETATM   29  C   UNL     1       9.689  30.882  58.237  1.00  0.00     0.105 A 
HETATM   30  O   UNL     1       8.451  31.682  59.967  1.00  0.00    -0.323 OA
HETATM   31  O   UNL     1      10.455  31.928  58.645  1.00  0.00    -0.323 OA
HETATM   32  C   UNL     1       9.980  30.032  57.194  1.00  0.00     0.040 A 
HETATM   33  C   UNL     1       9.680  32.410  59.761  1.00  0.00     0.352 A 
HETATM   34  C   UNL     1       9.072  29.005  56.922  1.00  0.00     0.012 A 
ENDBRANCH  25  26
ENDBRANCH   4  25
BRANCH  11  35
HETATM   35  C   UNL     1       3.874  29.357  50.214  1.00  0.00     0.252 C 
HETATM   36  N   UNL     1       3.508  30.600  49.736  1.00  0.00    -0.352 N 
HETATM   37  H   UNL     1       3.401  31.378  50.370  1.00  0.00     0.163 HD
HETATM   38  O   UNL     1       3.907  28.355  49.506  1.00  0.00    -0.268 OA
BRANCH  36  39
HETATM   39  C   UNL     1       3.097  30.789  48.347  1.00  0.00     0.084 C 
HETATM   40  C   UNL     1       2.116  31.964  48.221  1.00  0.00     0.025 C 
HETATM   41  C   UNL     1       2.795  33.327  48.365  1.00  0.00     0.002 C 
HETATM   42  C   UNL     1       3.968  33.475  47.402  1.00  0.00     0.000 C 
HETATM   43  C   UNL     1       4.971  32.338  47.566  1.00  0.00     0.002 C 
HETATM   44  C   UNL     1       4.301  30.974  47.410  1.00  0.00     0.025 C 
ENDBRANCH  36  39
ENDBRANCH  11  35
TORSDOF 7
ENDMDL
MODEL 8
REMARK VINA RESULT:     -10.2      2.502      8.596
REMARK  7 active torsions:
REMARK  status: ('A' for Active; 'I' for Inactive)
REMARK    1  A    between atoms: C_3  and  N_4 
REMARK       I    between atoms: N_4  and  C_5 
REMARK    2  A    between atoms: C_5  and  C_6 
REMARK    3  A    between atoms: C_6  and  N_7 
REMARK    4  A    between atoms: N_10  and  C_11 
REMARK    5  A    between atoms: C_11  and  C_12 
REMARK    6  A    between atoms: C_27  and  C_28 
REMARK       I    between atoms: C_28  and  N_29 
REMARK    7  A    between atoms: N_29  and  C_30 
ROOT
HETATM    1  N   UNL     1       4.389  28.382  54.177  1.00  0.00    -0.290 N 
HETATM    2  C   UNL     1       3.733  29.280  53.335  1.00  0.00     0.332 C 
HETATM    3  O   UNL     1       3.278  30.341  53.775  1.00  0.00    -0.246 OA
HETATM    4  N   UNL     1       3.652  28.945  51.993  1.00  0.00    -0.261 N 
HETATM    5  C   UNL     1       4.378  27.926  51.401  1.00  0.00     0.264 C 
HETATM    6  O   UNL     1       4.380  27.688  50.195  1.00  0.00    -0.267 OA
HETATM    7  C   UNL     1       5.229  27.113  52.286  1.00  0.00     0.059 A 
HETATM    8  C   UNL     1       5.187  27.321  53.663  1.00  0.00     0.056 A 
HETATM    9  C   UNL     1       6.099  26.166  51.718  1.00  0.00     0.020 A 
HETATM   10  C   UNL     1       6.940  25.401  52.526  1.00  0.00     0.018 A 
HETATM   11  C   UNL     1       6.883  25.554  53.912  1.00  0.00     0.034 A 
HETATM   12  C   UNL     1       5.997  26.502  54.467  1.00  0.00     0.048 A 
ENDROOT
BRANCH   1  13
HETATM   13  C   UNL     1       4.426  28.781  55.583  1.00  0.00     0.237 C 
BRANCH  13  14
HETATM   14  C   UNL     1       5.635  29.682  55.912  1.00  0.00     0.240 C 
HETATM   15  N   UNL     1       6.736  28.943  56.311  1.00  0.00    -0.323 N 
HETATM   16  H   UNL     1       6.683  27.933  56.213  1.00  0.00     0.169 HD
HETATM   17  O   UNL     1       5.561  30.907  55.858  1.00  0.00    -0.271 OA
BRANCH  15  18
HETATM   18  C   UNL     1       7.993  29.404  56.753  1.00  0.00     0.073 A 
HETATM   19  C   UNL     1       8.258  29.902  58.027  1.00  0.00     0.033 A 
HETATM   20  C   UNL     1       9.554  30.320  58.359  1.00  0.00     0.002 A 
HETATM   21  C   UNL     1      10.591  30.243  57.425  1.00  0.00     0.003 A 
HETATM   22  C   UNL     1      10.336  29.746  56.152  1.00  0.00     0.044 A 
HETATM   23  C   UNL     1       9.046  29.336  55.828  1.00  0.00     0.143 A 
HETATM   24  F   UNL     1       8.810  28.851  54.597  1.00  0.00    -0.204 F 
ENDBRANCH  15  18
ENDBRANCH  13  14
ENDBRANCH   1  13
BRANCH   4  25
HETATM   25  C   UNL     1       2.899  29.840  51.122  1.00  0.00     0.175 C 
BRANCH  25  26
HETATM   26  C   UNL     1       3.781  30.725  50.263  1.00  0.00    -0.037 A 
HETATM   27  C   UNL     1       3.605  30.784  48.871  1.00  0.00     0.048 A 
HETATM   28  C   UNL     1       4.442  31.606  48.145  1.00  0.00     0.105 A 
HETATM   29  C   UNL     1       5.435  32.346  48.744  1.00  0.00     0.105 A 
HETATM   30  O   UNL     1       4.405  31.788  46.797  1.00  0.00    -0.323 OA
HETATM   31  O   UNL     1       6.146  33.085  47.851  1.00  0.00    -0.323 OA
HETATM   32  C   UNL     1       5.646  32.308  50.104  1.00  0.00     0.040 A 
HETATM   33  C   UNL     1       5.466  32.750  46.624  1.00  0.00     0.352 A 
HETATM   34  C   UNL     1       4.809  31.490  50.867  1.00  0.00     0.012 A 
ENDBRANCH  25  26
ENDBRANCH   4  25
BRANCH  11  35
HETATM   35  C   UNL     1       7.760  24.795  54.855  1.00  0.00     0.252 C 
HETATM   36  N   UNL     1       8.260  23.578  54.437  1.00  0.00    -0.352 N 
HETATM   37  H   UNL     1       7.966  23.182  53.556  1.00  0.00     0.163 HD
HETATM   38  O   UNL     1       7.997  25.266  55.964  1.00  0.00    -0.268 OA
BRANCH  36  39
HETATM   39  C   UNL     1       9.080  22.749  55.318  1.00  0.00     0.084 C 
HETATM   40  C   UNL     1       8.224  22.105  56.419  1.00  0.00     0.025 C 
HETATM   41  C   UNL     1       7.352  20.960  55.902  1.00  0.00     0.002 C 
HETATM   42  C   UNL     1       8.176  19.917  55.156  1.00  0.00     0.000 C 
HETATM   43  C   UNL     1       8.984  20.548  54.027  1.00  0.00     0.002 C 
HETATM   44  C   UNL     1       9.868  21.685  54.538  1.00  0.00     0.025 C 
ENDBRANCH  36  39
ENDBRANCH  11  35
TORSDOF 7
ENDMDL
MODEL 9
REMARK VINA RESULT:     -10.1      3.492      6.767
REMARK  7 active torsions:
REMARK  status: ('A' for Active; 'I' for Inactive)
REMARK    1  A    between atoms: C_3  and  N_4 
REMARK       I    between atoms: N_4  and  C_5 
REMARK    2  A    between atoms: C_5  and  C_6 
REMARK    3  A    between atoms: C_6  and  N_7 
REMARK    4  A    between atoms: N_10  and  C_11 
REMARK    5  A    between atoms: C_11  and  C_12 
REMARK    6  A    between atoms: C_27  and  C_28 
REMARK       I    between atoms: C_28  and  N_29 
REMARK    7  A    between atoms: N_29  and  C_30 
ROOT
HETATM    1  N   UNL     1       4.477  29.041  52.902  1.00  0.00    -0.290 N 
HETATM    2  C   UNL     1       4.293  27.718  53.304  1.00  0.00     0.332 C 
HETATM    3  O   UNL     1       3.682  27.454  54.345  1.00  0.00    -0.246 OA
HETATM    4  N   UNL     1       4.787  26.729  52.469  1.00  0.00    -0.261 N 
HETATM    5  C   UNL     1       5.220  26.950  51.173  1.00  0.00     0.264 C 
HETATM    6  O   UNL     1       5.570  26.061  50.400  1.00  0.00    -0.267 OA
HETATM    7  C   UNL     1       5.214  28.343  50.697  1.00  0.00     0.059 A 
HETATM    8  C   UNL     1       4.888  29.371  51.580  1.00  0.00     0.056 A 
HETATM    9  C   UNL     1       5.501  28.606  49.346  1.00  0.00     0.020 A 
HETATM   10  C   UNL     1       5.473  29.912  48.857  1.00  0.00     0.018 A 
HETATM   11  C   UNL     1       5.199  30.965  49.730  1.00  0.00     0.034 A 
HETATM   12  C   UNL     1       4.924  30.685  51.086  1.00  0.00     0.048 A 
ENDROOT
BRANCH   1  13
HETATM   13  C   UNL     1       3.950  30.039  53.832  1.00  0.00     0.237 C 
BRANCH  13  14
HETATM   14  C   UNL     1       5.005  30.510  54.855  1.00  0.00     0.240 C 
HETATM   15  N   UNL     1       5.881  29.494  55.197  1.00  0.00    -0.323 N 
HETATM   16  H   UNL     1       5.833  28.633  54.660  1.00  0.00     0.169 HD
HETATM   17  O   UNL     1       4.992  31.647  55.320  1.00  0.00    -0.271 OA
BRANCH  15  18
HETATM   18  C   UNL     1       6.929  29.514  56.140  1.00  0.00     0.073 A 
HETATM   19  C   UNL     1       6.797  29.904  57.471  1.00  0.00     0.033 A 
HETATM   20  C   UNL     1       7.909  29.870  58.325  1.00  0.00     0.002 A 
HETATM   21  C   UNL     1       9.156  29.447  57.856  1.00  0.00     0.003 A 
HETATM   22  C   UNL     1       9.297  29.055  56.529  1.00  0.00     0.044 A 
HETATM   23  C   UNL     1       8.189  29.094  55.688  1.00  0.00     0.143 A 
HETATM   24  F   UNL     1       8.333  28.708  54.409  1.00  0.00    -0.204 F 
ENDBRANCH  15  18
ENDBRANCH  13  14
ENDBRANCH   1  13
BRANCH   4  25
HETATM   25  C   UNL     1       4.667  25.347  52.921  1.00  0.00     0.175 C 
BRANCH  25  26
HETATM   26  C   UNL     1       5.901  24.841  53.641  1.00  0.00    -0.037 A 
HETATM   27  C   UNL     1       6.082  25.077  55.013  1.00  0.00     0.048 A 
HETATM   28  C   UNL     1       7.229  24.593  55.609  1.00  0.00     0.105 A 
HETATM   29  C   UNL     1       8.187  23.908  54.897  1.00  0.00     0.105 A 
HETATM   30  O   UNL     1       7.558  24.723  56.923  1.00  0.00    -0.323 OA
HETATM   31  O   UNL     1       9.235  23.522  55.671  1.00  0.00    -0.323 OA
HETATM   32  C   UNL     1       8.051  23.666  53.549  1.00  0.00     0.040 A 
HETATM   33  C   UNL     1       8.814  24.015  56.960  1.00  0.00     0.352 A 
HETATM   34  C   UNL     1       6.896  24.137  52.919  1.00  0.00     0.012 A 
ENDBRANCH  25  26
ENDBRANCH   4  25
BRANCH  11  35
HETATM   35  C   UNL     1       5.126  32.393  49.292  1.00  0.00     0.252 C 
HETATM   36  N   UNL     1       5.880  32.773  48.199  1.00  0.00    -0.352 N 
HETATM   37  H   UNL     1       6.521  32.122  47.771  1.00  0.00     0.163 HD
HETATM   38  O   UNL     1       4.418  33.176  49.917  1.00  0.00    -0.268 OA
BRANCH  36  39
HETATM   39  C   UNL     1       5.907  34.161  47.740  1.00  0.00     0.084 C 
HETATM   40  C   UNL     1       7.026  34.947  48.439  1.00  0.00     0.025 C 
HETATM   41  C   UNL     1       8.420  34.588  47.921  1.00  0.00     0.002 C 
HETATM   42  C   UNL     1       8.508  34.722  46.405  1.00  0.00     0.000 C 
HETATM   43  C   UNL     1       7.431  33.897  45.709  1.00  0.00     0.002 C 
HETATM   44  C   UNL     1       6.035  34.259  46.212  1.00  0.00     0.025 C 
ENDBRANCH  36  39
ENDBRANCH  11  35
TORSDOF 7
ENDMDL
MODEL 10
REMARK VINA RESULT:     -10.0      4.389      9.819
REMARK  7 active torsions:
REMARK  status: ('A' for Active; 'I' for Inactive)
REMARK    1  A    between atoms: C_3  and  N_4 
REMARK       I    between atoms: N_4  and  C_5 
REMARK    2  A    between atoms: C_5  and  C_6 
REMARK    3  A    between atoms: C_6  and  N_7 
REMARK    4  A    between atoms: N_10  and  C_11 
REMARK    5  A    between atoms: C_11  and  C_12 
REMARK    6  A    between atoms: C_27  and  C_28 
REMARK       I    between atoms: C_28  and  N_29 
REMARK    7  A    between atoms: N_29  and  C_30 
ROOT
HETATM    1  N   UNL     1       7.102  30.004  57.666  1.00  0.00    -0.290 N 
HETATM    2  C   UNL     1       7.432  28.652  57.772  1.00  0.00     0.332 C 
HETATM    3  O   UNL     1       8.471  28.300  58.342  1.00  0.00    -0.246 OA
HETATM    4  N   UNL     1       6.532  27.738  57.250  1.00  0.00    -0.261 N 
HETATM    5  C   UNL     1       5.242  28.053  56.862  1.00  0.00     0.264 C 
HETATM    6  O   UNL     1       4.411  27.228  56.487  1.00  0.00    -0.267 OA
HETATM    7  C   UNL     1       4.845  29.468  56.952  1.00  0.00     0.059 A 
HETATM    8  C   UNL     1       5.792  30.428  57.307  1.00  0.00     0.056 A 
HETATM    9  C   UNL     1       3.505  29.820  56.714  1.00  0.00     0.020 A 
HETATM   10  C   UNL     1       3.090  31.147  56.821  1.00  0.00     0.018 A 
HETATM   11  C   UNL     1       4.027  32.135  57.126  1.00  0.00     0.034 A 
HETATM   12  C   UNL     1       5.371  31.767  57.351  1.00  0.00     0.048 A 
ENDROOT
BRANCH   1  13
HETATM   13  C   UNL     1       8.098  30.920  58.219  1.00  0.00     0.237 C 
BRANCH  13  14
HETATM   14  C   UNL     1       8.094  30.939  59.762  1.00  0.00     0.240 C 
HETATM   15  N   UNL     1       7.275  31.937  60.264  1.00  0.00    -0.323 N 
HETATM   16  H   UNL     1       6.681  32.431  59.604  1.00  0.00     0.169 HD
HETATM   17  O   UNL     1       8.793  30.171  60.419  1.00  0.00    -0.271 OA
BRANCH  15  18
HETATM   18  C   UNL     1       7.062  32.310  61.607  1.00  0.00     0.073 A 
HETATM   19  C   UNL     1       8.069  32.502  62.550  1.00  0.00     0.033 A 
HETATM   20  C   UNL     1       7.739  32.887  63.857  1.00  0.00     0.002 A 
HETATM   21  C   UNL     1       6.406  33.083  64.229  1.00  0.00     0.003 A 
HETATM   22  C   UNL     1       5.395  32.894  63.293  1.00  0.00     0.044 A 
HETATM   23  C   UNL     1       5.731  32.508  61.999  1.00  0.00     0.143 A 
HETATM   24  F   UNL     1       4.747  32.334  61.100  1.00  0.00    -0.204 F 
ENDBRANCH  15  18
ENDBRANCH  13  14
ENDBRANCH   1  13
BRANCH   4  25
HETATM   25  C   UNL     1       6.909  26.329  57.287  1.00  0.00     0.175 C 
BRANCH  25  26
HETATM   26  C   UNL     1       7.176  25.742  55.916  1.00  0.00    -0.037 A 
HETATM   27  C   UNL     1       7.187  24.352  55.717  1.00  0.00     0.048 A 
HETATM   28  C   UNL     1       7.440  23.880  54.446  1.00  0.00     0.105 A 
HETATM   29  C   UNL     1       7.690  24.727  53.390  1.00  0.00     0.105 A 
HETATM   30  O   UNL     1       7.479  22.571  54.076  1.00  0.00    -0.323 OA
HETATM   31  O   UNL     1       7.916  24.060  52.228  1.00  0.00    -0.323 OA
HETATM   32  C   UNL     1       7.698  26.095  53.547  1.00  0.00     0.040 A 
HETATM   33  C   UNL     1       7.750  22.695  52.664  1.00  0.00     0.352 A 
HETATM   34  C   UNL     1       7.437  26.603  54.822  1.00  0.00     0.012 A 
ENDBRANCH  25  26
ENDBRANCH   4  25
BRANCH  11  35
HETATM   35  C   UNL     1       3.672  33.579  57.283  1.00  0.00     0.252 C 
HETATM   36  N   UNL     1       3.827  34.150  58.531  1.00  0.00    -0.352 N 
HETATM   37  H   UNL     1       4.089  33.582  59.323  1.00  0.00     0.163 HD
HETATM   38  O   UNL     1       3.247  34.201  56.314  1.00  0.00    -0.268 OA
BRANCH  36  39
HETATM   39  C   UNL     1       3.451  35.540  58.782  1.00  0.00     0.084 C 
HETATM   40  C   UNL     1       1.945  35.659  59.060  1.00  0.00     0.025 C 
HETATM   41  C   UNL     1       1.552  35.143  60.445  1.00  0.00     0.002 C 
HETATM   42  C   UNL     1       2.375  35.801  61.546  1.00  0.00     0.000 C 
HETATM   43  C   UNL     1       3.870  35.635  61.299  1.00  0.00     0.002 C 
HETATM   44  C   UNL     1       4.273  36.161  59.923  1.00  0.00     0.025 C 
ENDBRANCH  36  39
ENDBRANCH  11  35
TORSDOF 7
ENDMDL
