MODEL 1
REMARK VINA RESULT:      -9.3      0.000      0.000
REMARK  7 active torsions:
REMARK  status: ('A' for Active; 'I' for Inactive)
REMARK    1  A    between atoms: C_2  and  S_3 
REMARK    2  A    between atoms: C_2  and  C_20 
REMARK    3  A    between atoms: S_3  and  C_4 
REMARK    4  A    between atoms: C_4  and  C_5 
REMARK       I    between atoms: C_5  and  N_6 
REMARK    5  A    between atoms: N_6  and  C_7 
REMARK    6  A    between atoms: C_10  and  C_11 
REMARK       I    between atoms: C_11  and  N_12 
REMARK    7  A    between atoms: N_12  and  C_13 
ROOT
HETATM    1  C   UNL     1       9.364  31.156  58.656  1.00  0.00     0.231 C 
HETATM    2  N   UNL     1       8.353  30.904  59.572  1.00  0.00    -0.327 N 
HETATM    3  O   UNL     1      10.045  32.177  58.590  1.00  0.00    -0.272 OA
HETATM    4  H   UNL     1       7.791  30.077  59.407  1.00  0.00     0.169 HD
ENDROOT
BRANCH   1   5
HETATM    5  C   UNL     1       9.601  29.996  57.700  1.00  0.00     0.177 C 
BRANCH   5   6
HETATM    6  S   UNL     1       8.182  28.851  57.757  1.00  0.00    -0.147 SA
BRANCH   6   7
HETATM    7  C   UNL     1       7.580  28.992  56.024  1.00  0.00     0.113 C 
HETATM    8  C   UNL     1       6.242  29.724  55.967  1.00  0.00     0.029 C 
BRANCH   7   9
HETATM    9  C   UNL     1       7.527  27.649  55.358  1.00  0.00     0.118 A 
HETATM   10  N   UNL     1       7.414  26.472  55.942  1.00  0.00    -0.232 NA
HETATM   11  C   UNL     1       7.472  25.545  54.930  1.00  0.00     0.085 A 
HETATM   12  C   UNL     1       7.621  26.167  53.697  1.00  0.00     0.062 A 
HETATM   13  C   UNL     1       7.416  24.146  54.990  1.00  0.00     0.034 A 
HETATM   14  N   UNL     1       7.647  27.506  53.994  1.00  0.00    -0.342 N 
HETATM   15  C   UNL     1       7.724  25.469  52.493  1.00  0.00     0.032 A 
HETATM   16  H   UNL     1       7.785  28.257  53.334  1.00  0.00     0.167 HD
HETATM   17  C   UNL     1       7.668  24.072  52.570  1.00  0.00     0.002 A 
HETATM   18  C   UNL     1       7.516  23.419  53.796  1.00  0.00     0.002 A 
ENDBRANCH   7   9
ENDBRANCH   6   7
ENDBRANCH   5   6
ENDBRANCH   1   5
BRANCH   2  19
HETATM   19  C   UNL     1       8.030  31.661  60.716  1.00  0.00     0.034 A 
HETATM   20  C   UNL     1       8.727  31.583  61.924  1.00  0.00     0.030 A 
HETATM   21  C   UNL     1       8.294  32.298  63.047  1.00  0.00     0.019 A 
HETATM   22  C   UNL     1       7.145  33.091  62.977  1.00  0.00     0.032 A 
HETATM   23  C   UNL     1       6.473  33.214  61.755  1.00  0.00     0.019 A 
HETATM   24  C   UNL     1       6.913  32.502  60.634  1.00  0.00     0.030 A 
BRANCH  22  25
HETATM   25  C   UNL     1       6.595  33.802  64.165  1.00  0.00     0.251 C 
HETATM   26  N   UNL     1       5.611  34.736  63.909  1.00  0.00    -0.353 N 
HETATM   27  H   UNL     1       5.442  34.991  62.946  1.00  0.00     0.163 HD
HETATM   28  O   UNL     1       7.059  33.577  65.277  1.00  0.00    -0.268 OA
BRANCH  26  29
HETATM   29  C   UNL     1       5.064  35.642  64.913  1.00  0.00     0.076 C 
HETATM   30  C   UNL     1       4.964  37.085  64.423  1.00  0.00     0.032 C 
HETATM   31  C   UNL     1       3.733  35.138  65.464  1.00  0.00     0.032 C 
ENDBRANCH  26  29
ENDBRANCH  22  25
ENDBRANCH   2  19
TORSDOF 7
ENDMDL
MODEL 2
REMARK VINA RESULT:      -9.2      2.732      5.102
REMARK  7 active torsions:
REMARK  status: ('A' for Active; 'I' for Inactive)
REMARK    1  A    between atoms: C_2  and  S_3 
REMARK    2  A    between atoms: C_2  and  C_20 
REMARK    3  A    between atoms: S_3  and  C_4 
REMARK    4  A    between atoms: C_4  and  C_5 
REMARK       I    between atoms: C_5  and  N_6 
REMARK    5  A    between atoms: N_6  and  C_7 
REMARK    6  A    between atoms: C_10  and  C_11 
REMARK       I    between atoms: C_11  and  N_12 
REMARK    7  A    between atoms: N_12  and  C_13 
ROOT
HETATM    1  C   UNL     1       6.692  27.600  55.013  1.00  0.00     0.231 C 
HETATM    2  N   UNL     1       6.895  28.964  55.161  1.00  0.00    -0.327 N 
HETATM    3  O   UNL     1       6.840  26.746  55.883  1.00  0.00    -0.272 OA
HETATM    4  H   UNL     1       6.869  29.519  54.314  1.00  0.00     0.169 HD
ENDROOT
BRANCH   1   5
HETATM    5  C   UNL     1       6.217  27.220  53.618  1.00  0.00     0.177 C 
BRANCH   5   6
HETATM    6  S   UNL     1       7.498  26.228  52.779  1.00  0.00    -0.147 SA
BRANCH   6   7
HETATM    7  C   UNL     1       6.588  24.645  52.555  1.00  0.00     0.113 C 
HETATM    8  C   UNL     1       5.087  24.845  52.748  1.00  0.00     0.029 C 
BRANCH   7   9
HETATM    9  C   UNL     1       7.141  23.571  53.444  1.00  0.00     0.118 A 
HETATM   10  N   UNL     1       7.454  22.335  53.104  1.00  0.00    -0.232 NA
HETATM   11  C   UNL     1       7.857  21.720  54.263  1.00  0.00     0.085 A 
HETATM   12  C   UNL     1       7.793  22.597  55.338  1.00  0.00     0.062 A 
HETATM   13  C   UNL     1       8.283  20.401  54.478  1.00  0.00     0.034 A 
HETATM   14  N   UNL     1       7.341  23.770  54.791  1.00  0.00    -0.342 N 
HETATM   15  C   UNL     1       8.130  22.237  56.644  1.00  0.00     0.032 A 
HETATM   16  H   UNL     1       7.137  24.621  55.295  1.00  0.00     0.167 HD
HETATM   17  C   UNL     1       8.551  20.916  56.842  1.00  0.00     0.002 A 
HETATM   18  C   UNL     1       8.627  20.012  55.779  1.00  0.00     0.002 A 
ENDBRANCH   7   9
ENDBRANCH   6   7
ENDBRANCH   5   6
ENDBRANCH   1   5
BRANCH   2  19
HETATM   19  C   UNL     1       7.120  29.668  56.361  1.00  0.00     0.034 A 
HETATM   20  C   UNL     1       6.133  30.390  57.037  1.00  0.00     0.030 A 
HETATM   21  C   UNL     1       6.449  31.140  58.176  1.00  0.00     0.019 A 
HETATM   22  C   UNL     1       7.765  31.188  58.645  1.00  0.00     0.032 A 
HETATM   23  C   UNL     1       8.747  30.425  58.003  1.00  0.00     0.019 A 
HETATM   24  C   UNL     1       8.425  29.672  56.869  1.00  0.00     0.030 A 
BRANCH  22  25
HETATM   25  C   UNL     1       8.168  32.038  59.801  1.00  0.00     0.251 C 
HETATM   26  N   UNL     1       7.287  32.071  60.863  1.00  0.00    -0.353 N 
HETATM   27  H   UNL     1       6.373  31.660  60.731  1.00  0.00     0.163 HD
HETATM   28  O   UNL     1       9.202  32.693  59.741  1.00  0.00    -0.268 OA
BRANCH  26  29
HETATM   29  C   UNL     1       7.424  32.962  62.010  1.00  0.00     0.076 C 
HETATM   30  C   UNL     1       6.131  33.697  62.354  1.00  0.00     0.032 C 
HETATM   31  C   UNL     1       8.002  32.236  63.222  1.00  0.00     0.032 C 
ENDBRANCH  26  29
ENDBRANCH  22  25
ENDBRANCH   2  19
TORSDOF 7
ENDMDL
MODEL 3
REMARK VINA RESULT:      -9.1      5.349      8.882
REMARK  7 active torsions:
REMARK  status: ('A' for Active; 'I' for Inactive)
REMARK    1  A    between atoms: C_2  and  S_3 
REMARK    2  A    between atoms: C_2  and  C_20 
REMARK    3  A    between atoms: S_3  and  C_4 
REMARK    4  A    between atoms: C_4  and  C_5 
REMARK       I    between atoms: C_5  and  N_6 
REMARK    5  A    between atoms: N_6  and  C_7 
REMARK    6  A    between atoms: C_10  and  C_11 
REMARK       I    between atoms: C_11  and  N_12 
REMARK    7  A    between atoms: N_12  and  C_13 
ROOT
HETATM    1  C   UNL     1       5.502  29.700  57.480  1.00  0.00     0.231 C 
HETATM    2  N   UNL     1       5.140  28.361  57.506  1.00  0.00    -0.327 N 
HETATM    3  O   UNL     1       6.647  30.140  57.409  1.00  0.00    -0.272 OA
HETATM    4  H   UNL     1       4.168  28.160  57.710  1.00  0.00     0.169 HD
ENDROOT
BRANCH   1   5
HETATM    5  C   UNL     1       4.305  30.639  57.519  1.00  0.00     0.177 C 
BRANCH   5   6
HETATM    6  S   UNL     1       3.175  30.255  56.139  1.00  0.00    -0.147 SA
BRANCH   6   7
HETATM    7  C   UNL     1       4.310  30.502  54.712  1.00  0.00     0.113 C 
HETATM    8  C   UNL     1       3.642  31.334  53.621  1.00  0.00     0.029 C 
BRANCH   7   9
HETATM    9  C   UNL     1       4.826  29.191  54.197  1.00  0.00     0.118 A 
HETATM   10  N   UNL     1       4.118  28.129  53.865  1.00  0.00    -0.232 NA
HETATM   11  C   UNL     1       5.032  27.166  53.513  1.00  0.00     0.085 A 
HETATM   12  C   UNL     1       6.329  27.648  53.630  1.00  0.00     0.062 A 
HETATM   13  C   UNL     1       4.826  25.844  53.094  1.00  0.00     0.034 A 
HETATM   14  N   UNL     1       6.173  28.940  54.060  1.00  0.00    -0.342 N 
HETATM   15  C   UNL     1       7.462  26.880  53.353  1.00  0.00     0.032 A 
HETATM   16  H   UNL     1       6.916  29.584  54.290  1.00  0.00     0.167 HD
HETATM   17  C   UNL     1       7.239  25.562  52.936  1.00  0.00     0.002 A 
HETATM   18  C   UNL     1       5.945  25.050  52.809  1.00  0.00     0.002 A 
ENDBRANCH   7   9
ENDBRANCH   6   7
ENDBRANCH   5   6
ENDBRANCH   1   5
BRANCH   2  19
HETATM   19  C   UNL     1       5.970  27.248  57.266  1.00  0.00     0.034 A 
HETATM   20  C   UNL     1       7.365  27.283  57.349  1.00  0.00     0.030 A 
HETATM   21  C   UNL     1       8.130  26.162  57.008  1.00  0.00     0.019 A 
HETATM   22  C   UNL     1       7.507  24.992  56.564  1.00  0.00     0.032 A 
HETATM   23  C   UNL     1       6.109  24.934  56.529  1.00  0.00     0.019 A 
HETATM   24  C   UNL     1       5.348  26.055  56.877  1.00  0.00     0.030 A 
BRANCH  22  25
HETATM   25  C   UNL     1       8.280  23.802  56.108  1.00  0.00     0.251 C 
HETATM   26  N   UNL     1       7.557  22.830  55.446  1.00  0.00    -0.353 N 
HETATM   27  H   UNL     1       6.550  22.904  55.453  1.00  0.00     0.163 HD
HETATM   28  O   UNL     1       9.472  23.713  56.378  1.00  0.00    -0.268 OA
BRANCH  26  29
HETATM   29  C   UNL     1       8.098  21.529  55.065  1.00  0.00     0.076 C 
HETATM   30  C   UNL     1       7.665  20.405  56.004  1.00  0.00     0.032 C 
HETATM   31  C   UNL     1       7.794  21.197  53.607  1.00  0.00     0.032 C 
ENDBRANCH  26  29
ENDBRANCH  22  25
ENDBRANCH   2  19
TORSDOF 7
ENDMDL
MODEL 4
REMARK VINA RESULT:      -8.9      3.487     10.849
REMARK  7 active torsions:
REMARK  status: ('A' for Active; 'I' for Inactive)
REMARK    1  A    between atoms: C_2  and  S_3 
REMARK    2  A    between atoms: C_2  and  C_20 
REMARK    3  A    between atoms: S_3  and  C_4 
REMARK    4  A    between atoms: C_4  and  C_5 
REMARK       I    between atoms: C_5  and  N_6 
REMARK    5  A    between atoms: N_6  and  C_7 
REMARK    6  A    between atoms: C_10  and  C_11 
REMARK       I    between atoms: C_11  and  N_12 
REMARK    7  A    between atoms: N_12  and  C_13 
ROOT
HETATM    1  C   UNL     1       5.140  28.855  57.027  1.00  0.00     0.231 C 
HETATM    2  N   UNL     1       4.742  27.586  56.635  1.00  0.00    -0.327 N 
HETATM    3  O   UNL     1       6.265  29.179  57.403  1.00  0.00    -0.272 OA
HETATM    4  H   UNL     1       3.749  27.450  56.489  1.00  0.00     0.169 HD
ENDROOT
BRANCH   1   5
HETATM    5  C   UNL     1       4.024  29.885  56.926  1.00  0.00     0.177 C 
BRANCH   5   6
HETATM    6  S   UNL     1       4.737  31.539  56.632  1.00  0.00    -0.147 SA
BRANCH   6   7
HETATM    7  C   UNL     1       4.424  32.322  58.268  1.00  0.00     0.113 C 
HETATM    8  C   UNL     1       3.908  33.749  58.101  1.00  0.00     0.029 C 
BRANCH   7   9
HETATM    9  C   UNL     1       5.640  32.251  59.143  1.00  0.00     0.118 A 
HETATM   10  N   UNL     1       6.902  32.293  58.762  1.00  0.00    -0.232 NA
HETATM   11  C   UNL     1       7.644  32.133  59.907  1.00  0.00     0.085 A 
HETATM   12  C   UNL     1       6.819  31.991  61.015  1.00  0.00     0.062 A 
HETATM   13  C   UNL     1       9.035  32.084  60.076  1.00  0.00     0.034 A 
HETATM   14  N   UNL     1       5.549  32.076  60.505  1.00  0.00    -0.342 N 
HETATM   15  C   UNL     1       7.301  31.796  62.311  1.00  0.00     0.032 A 
HETATM   16  H   UNL     1       4.691  31.975  61.029  1.00  0.00     0.167 HD
HETATM   17  C   UNL     1       8.692  31.749  62.462  1.00  0.00     0.002 A 
HETATM   18  C   UNL     1       9.546  31.890  61.365  1.00  0.00     0.002 A 
ENDBRANCH   7   9
ENDBRANCH   6   7
ENDBRANCH   5   6
ENDBRANCH   1   5
BRANCH   2  19
HETATM   19  C   UNL     1       5.566  26.467  56.401  1.00  0.00     0.034 A 
HETATM   20  C   UNL     1       6.370  25.873  57.378  1.00  0.00     0.030 A 
HETATM   21  C   UNL     1       7.232  24.820  57.052  1.00  0.00     0.019 A 
HETATM   22  C   UNL     1       7.312  24.357  55.735  1.00  0.00     0.032 A 
HETATM   23  C   UNL     1       6.471  24.912  54.764  1.00  0.00     0.019 A 
HETATM   24  C   UNL     1       5.606  25.960  55.096  1.00  0.00     0.030 A 
BRANCH  22  25
HETATM   25  C   UNL     1       8.275  23.298  55.321  1.00  0.00     0.251 C 
HETATM   26  N   UNL     1       7.756  22.279  54.547  1.00  0.00    -0.353 N 
HETATM   27  H   UNL     1       6.753  22.226  54.448  1.00  0.00     0.163 HD
HETATM   28  O   UNL     1       9.434  23.344  55.714  1.00  0.00    -0.268 OA
BRANCH  26  29
HETATM   29  C   UNL     1       8.497  21.077  54.178  1.00  0.00     0.076 C 
HETATM   30  C   UNL     1       8.496  20.015  55.275  1.00  0.00     0.032 C 
HETATM   31  C   UNL     1       8.023  20.511  52.842  1.00  0.00     0.032 C 
ENDBRANCH  26  29
ENDBRANCH  22  25
ENDBRANCH   2  19
TORSDOF 7
ENDMDL
MODEL 5
REMARK VINA RESULT:      -8.8      2.404      3.324
REMARK  7 active torsions:
REMARK  status: ('A' for Active; 'I' for Inactive)
REMARK    1  A    between atoms: C_2  and  S_3 
REMARK    2  A    between atoms: C_2  and  C_20 
REMARK    3  A    between atoms: S_3  and  C_4 
REMARK    4  A    between atoms: C_4  and  C_5 
REMARK       I    between atoms: C_5  and  N_6 
REMARK    5  A    between atoms: N_6  and  C_7 
REMARK    6  A    between atoms: C_10  and  C_11 
REMARK       I    between atoms: C_11  and  N_12 
REMARK    7  A    between atoms: N_12  and  C_13 
ROOT
HETATM    1  C   UNL     1       7.670  28.185  57.221  1.00  0.00     0.231 C 
HETATM    2  N   UNL     1       7.875  29.554  57.306  1.00  0.00    -0.327 N 
HETATM    3  O   UNL     1       7.647  27.395  58.161  1.00  0.00    -0.272 OA
HETATM    4  H   UNL     1       8.007  30.046  56.431  1.00  0.00     0.169 HD
ENDROOT
BRANCH   1   5
HETATM    5  C   UNL     1       7.433  27.709  55.795  1.00  0.00     0.177 C 
BRANCH   5   6
HETATM    6  S   UNL     1       5.984  26.601  55.747  1.00  0.00    -0.147 SA
BRANCH   6   7
HETATM    7  C   UNL     1       6.259  25.775  54.127  1.00  0.00     0.113 C 
HETATM    8  C   UNL     1       4.998  25.825  53.267  1.00  0.00     0.029 C 
BRANCH   7   9
HETATM    9  C   UNL     1       6.771  24.378  54.311  1.00  0.00     0.118 A 
HETATM   10  N   UNL     1       7.010  23.759  55.451  1.00  0.00    -0.232 NA
HETATM   11  C   UNL     1       7.522  22.531  55.109  1.00  0.00     0.085 A 
HETATM   12  C   UNL     1       7.596  22.393  53.729  1.00  0.00     0.062 A 
HETATM   13  C   UNL     1       7.960  21.481  55.928  1.00  0.00     0.034 A 
HETATM   14  N   UNL     1       7.107  23.577  53.243  1.00  0.00    -0.342 N 
HETATM   15  C   UNL     1       8.093  21.251  53.097  1.00  0.00     0.032 A 
HETATM   16  H   UNL     1       7.051  23.842  52.270  1.00  0.00     0.167 HD
HETATM   17  C   UNL     1       8.527  20.212  53.931  1.00  0.00     0.002 A 
HETATM   18  C   UNL     1       8.463  20.323  55.322  1.00  0.00     0.002 A 
ENDBRANCH   7   9
ENDBRANCH   6   7
ENDBRANCH   5   6
ENDBRANCH   1   5
BRANCH   2  19
HETATM   19  C   UNL     1       7.905  30.341  58.475  1.00  0.00     0.034 A 
HETATM   20  C   UNL     1       8.901  30.250  59.450  1.00  0.00     0.030 A 
HETATM   21  C   UNL     1       8.818  30.999  60.630  1.00  0.00     0.019 A 
HETATM   22  C   UNL     1       7.725  31.840  60.855  1.00  0.00     0.032 A 
HETATM   23  C   UNL     1       6.751  31.975  59.859  1.00  0.00     0.019 A 
HETATM   24  C   UNL     1       6.841  31.229  58.679  1.00  0.00     0.030 A 
BRANCH  22  25
HETATM   25  C   UNL     1       7.547  32.591  62.129  1.00  0.00     0.251 C 
HETATM   26  N   UNL     1       6.449  33.426  62.191  1.00  0.00    -0.353 N 
HETATM   27  H   UNL     1       5.938  33.597  61.336  1.00  0.00     0.163 HD
HETATM   28  O   UNL     1       8.382  32.484  63.019  1.00  0.00    -0.268 OA
BRANCH  26  29
HETATM   29  C   UNL     1       6.192  34.358  63.283  1.00  0.00     0.076 C 
HETATM   30  C   UNL     1       5.626  35.694  62.808  1.00  0.00     0.032 C 
HETATM   31  C   UNL     1       5.323  33.730  64.370  1.00  0.00     0.032 C 
ENDBRANCH  26  29
ENDBRANCH  22  25
ENDBRANCH   2  19
TORSDOF 7
ENDMDL
MODEL 6
REMARK VINA RESULT:      -8.6      1.443      2.026
REMARK  7 active torsions:
REMARK  status: ('A' for Active; 'I' for Inactive)
REMARK    1  A    between atoms: C_2  and  S_3 
REMARK    2  A    between atoms: C_2  and  C_20 
REMARK    3  A    between atoms: S_3  and  C_4 
REMARK    4  A    between atoms: C_4  and  C_5 
REMARK       I    between atoms: C_5  and  N_6 
REMARK    5  A    between atoms: N_6  and  C_7 
REMARK    6  A    between atoms: C_10  and  C_11 
REMARK       I    between atoms: C_11  and  N_12 
REMARK    7  A    between atoms: N_12  and  C_13 
ROOT
HETATM    1  C   UNL     1       7.386  30.087  58.119  1.00  0.00     0.231 C 
HETATM    2  N   UNL     1       8.325  30.455  59.072  1.00  0.00    -0.327 N 
HETATM    3  O   UNL     1       6.166  30.190  58.224  1.00  0.00    -0.272 OA
HETATM    4  H   UNL     1       9.282  30.176  58.893  1.00  0.00     0.169 HD
ENDROOT
BRANCH   1   5
HETATM    5  C   UNL     1       8.016  29.540  56.846  1.00  0.00     0.177 C 
BRANCH   5   6
HETATM    6  S   UNL     1       8.126  27.722  56.944  1.00  0.00    -0.147 SA
BRANCH   6   7
HETATM    7  C   UNL     1       6.982  27.253  55.581  1.00  0.00     0.113 C 
HETATM    8  C   UNL     1       5.526  27.410  56.011  1.00  0.00     0.029 C 
BRANCH   7   9
HETATM    9  C   UNL     1       7.284  25.876  55.070  1.00  0.00     0.118 A 
HETATM   10  N   UNL     1       7.529  25.523  53.823  1.00  0.00    -0.232 NA
HETATM   11  C   UNL     1       7.683  24.158  53.845  1.00  0.00     0.085 A 
HETATM   12  C   UNL     1       7.532  23.663  55.134  1.00  0.00     0.062 A 
HETATM   13  C   UNL     1       7.943  23.267  52.794  1.00  0.00     0.034 A 
HETATM   14  N   UNL     1       7.286  24.775  55.897  1.00  0.00    -0.342 N 
HETATM   15  C   UNL     1       7.622  22.307  55.451  1.00  0.00     0.032 A 
HETATM   16  H   UNL     1       7.086  24.784  56.886  1.00  0.00     0.167 HD
HETATM   17  C   UNL     1       7.881  21.431  54.389  1.00  0.00     0.002 A 
HETATM   18  C   UNL     1       8.038  21.900  53.083  1.00  0.00     0.002 A 
ENDBRANCH   7   9
ENDBRANCH   6   7
ENDBRANCH   5   6
ENDBRANCH   1   5
BRANCH   2  19
HETATM   19  C   UNL     1       8.098  31.187  60.254  1.00  0.00     0.034 A 
HETATM   20  C   UNL     1       8.646  30.853  61.495  1.00  0.00     0.030 A 
HETATM   21  C   UNL     1       8.304  31.574  62.646  1.00  0.00     0.019 A 
HETATM   22  C   UNL     1       7.395  32.632  62.569  1.00  0.00     0.032 A 
HETATM   23  C   UNL     1       6.883  33.005  61.321  1.00  0.00     0.019 A 
HETATM   24  C   UNL     1       7.232  32.285  60.173  1.00  0.00     0.030 A 
BRANCH  22  25
HETATM   25  C   UNL     1       6.933  33.374  63.776  1.00  0.00     0.251 C 
HETATM   26  N   UNL     1       5.922  34.292  63.572  1.00  0.00    -0.353 N 
HETATM   27  H   UNL     1       5.675  34.517  62.619  1.00  0.00     0.163 HD
HETATM   28  O   UNL     1       7.487  33.186  64.853  1.00  0.00    -0.268 OA
BRANCH  26  29
HETATM   29  C   UNL     1       5.448  35.223  64.590  1.00  0.00     0.076 C 
HETATM   30  C   UNL     1       5.172  36.621  64.039  1.00  0.00     0.032 C 
HETATM   31  C   UNL     1       4.245  34.667  65.347  1.00  0.00     0.032 C 
ENDBRANCH  26  29
ENDBRANCH  22  25
ENDBRANCH   2  19
TORSDOF 7
ENDMDL
MODEL 7
REMARK VINA RESULT:      -8.6      3.071     11.399
REMARK  7 active torsions:
REMARK  status: ('A' for Active; 'I' for Inactive)
REMARK    1  A    between atoms: C_2  and  S_3 
REMARK    2  A    between atoms: C_2  and  C_20 
REMARK    3  A    between atoms: S_3  and  C_4 
REMARK    4  A    between atoms: C_4  and  C_5 
REMARK       I    between atoms: C_5  and  N_6 
REMARK    5  A    between atoms: N_6  and  C_7 
REMARK    6  A    between atoms: C_10  and  C_11 
REMARK       I    between atoms: C_11  and  N_12 
REMARK    7  A    between atoms: N_12  and  C_13 
ROOT
HETATM    1  C   UNL     1       5.589  29.000  55.953  1.00  0.00     0.231 C 
HETATM    2  N   UNL     1       6.766  28.450  55.467  1.00  0.00    -0.327 N 
HETATM    3  O   UNL     1       4.563  28.385  56.233  1.00  0.00    -0.272 OA
HETATM    4  H   UNL     1       7.472  29.104  55.151  1.00  0.00     0.169 HD
ENDROOT
BRANCH   1   5
HETATM    5  C   UNL     1       5.676  30.506  56.153  1.00  0.00     0.177 C 
BRANCH   5   6
HETATM    6  S   UNL     1       5.274  30.923  57.883  1.00  0.00    -0.147 SA
BRANCH   6   7
HETATM    7  C   UNL     1       6.963  31.223  58.546  1.00  0.00     0.113 C 
HETATM    8  C   UNL     1       7.795  29.943  58.522  1.00  0.00     0.029 C 
BRANCH   7   9
HETATM    9  C   UNL     1       6.908  31.845  59.909  1.00  0.00     0.118 A 
HETATM   10  N   UNL     1       6.132  32.836  60.304  1.00  0.00    -0.232 NA
HETATM   11  C   UNL     1       6.486  33.091  61.607  1.00  0.00     0.085 A 
HETATM   12  C   UNL     1       7.499  32.237  62.021  1.00  0.00     0.062 A 
HETATM   13  C   UNL     1       5.990  34.053  62.499  1.00  0.00     0.034 A 
HETATM   14  N   UNL     1       7.746  31.449  60.927  1.00  0.00    -0.342 N 
HETATM   15  C   UNL     1       8.067  32.281  63.296  1.00  0.00     0.032 A 
HETATM   16  H   UNL     1       8.457  30.735  60.858  1.00  0.00     0.167 HD
HETATM   17  C   UNL     1       7.562  33.247  64.174  1.00  0.00     0.002 A 
HETATM   18  C   UNL     1       6.542  34.119  63.785  1.00  0.00     0.002 A 
ENDBRANCH   7   9
ENDBRANCH   6   7
ENDBRANCH   5   6
ENDBRANCH   1   5
BRANCH   2  19
HETATM   19  C   UNL     1       7.096  27.083  55.378  1.00  0.00     0.034 A 
HETATM   20  C   UNL     1       7.365  26.272  56.484  1.00  0.00     0.030 A 
HETATM   21  C   UNL     1       7.775  24.944  56.315  1.00  0.00     0.019 A 
HETATM   22  C   UNL     1       7.935  24.415  55.031  1.00  0.00     0.032 A 
HETATM   23  C   UNL     1       7.616  25.206  53.921  1.00  0.00     0.019 A 
HETATM   24  C   UNL     1       7.201  26.530  54.096  1.00  0.00     0.030 A 
BRANCH  22  25
HETATM   25  C   UNL     1       8.450  23.036  54.797  1.00  0.00     0.251 C 
HETATM   26  N   UNL     1       7.526  22.113  54.350  1.00  0.00    -0.353 N 
HETATM   27  H   UNL     1       6.551  22.378  54.363  1.00  0.00     0.163 HD
HETATM   28  O   UNL     1       9.619  22.773  55.054  1.00  0.00    -0.268 OA
BRANCH  26  29
HETATM   29  C   UNL     1       7.797  20.686  54.215  1.00  0.00     0.076 C 
HETATM   30  C   UNL     1       8.691  20.358  53.022  1.00  0.00     0.032 C 
HETATM   31  C   UNL     1       8.341  20.091  55.511  1.00  0.00     0.032 C 
ENDBRANCH  26  29
ENDBRANCH  22  25
ENDBRANCH   2  19
TORSDOF 7
ENDMDL
MODEL 8
REMARK VINA RESULT:      -8.5      3.178      5.857
REMARK  7 active torsions:
REMARK  status: ('A' for Active; 'I' for Inactive)
REMARK    1  A    between atoms: C_2  and  S_3 
REMARK    2  A    between atoms: C_2  and  C_20 
REMARK    3  A    between atoms: S_3  and  C_4 
REMARK    4  A    between atoms: C_4  and  C_5 
REMARK       I    between atoms: C_5  and  N_6 
REMARK    5  A    between atoms: N_6  and  C_7 
REMARK    6  A    between atoms: C_10  and  C_11 
REMARK       I    between atoms: C_11  and  N_12 
REMARK    7  A    between atoms: N_12  and  C_13 
ROOT
HETATM    1  C   UNL     1       5.664  28.125  53.223  1.00  0.00     0.231 C 
HETATM    2  N   UNL     1       5.500  28.068  54.600  1.00  0.00    -0.327 N 
HETATM    3  O   UNL     1       6.371  28.919  52.609  1.00  0.00    -0.272 OA
HETATM    4  H   UNL     1       4.775  27.450  54.943  1.00  0.00     0.169 HD
ENDROOT
BRANCH   1   5
HETATM    5  C   UNL     1       4.878  27.048  52.489  1.00  0.00     0.177 C 
BRANCH   5   6
HETATM    6  S   UNL     1       5.039  25.458  53.370  1.00  0.00    -0.147 SA
BRANCH   6   7
HETATM    7  C   UNL     1       6.858  25.206  53.256  1.00  0.00     0.113 C 
HETATM    8  C   UNL     1       7.320  25.208  51.801  1.00  0.00     0.029 C 
BRANCH   7   9
HETATM    9  C   UNL     1       7.280  23.968  53.988  1.00  0.00     0.118 A 
HETATM   10  N   UNL     1       7.616  23.868  55.260  1.00  0.00    -0.232 NA
HETATM   11  C   UNL     1       7.982  22.557  55.448  1.00  0.00     0.085 A 
HETATM   12  C   UNL     1       7.867  21.837  54.266  1.00  0.00     0.062 A 
HETATM   13  C   UNL     1       8.440  21.910  56.605  1.00  0.00     0.034 A 
HETATM   14  N   UNL     1       7.412  22.753  53.354  1.00  0.00    -0.342 N 
HETATM   15  C   UNL     1       8.188  20.482  54.158  1.00  0.00     0.032 A 
HETATM   16  H   UNL     1       7.252  22.584  52.371  1.00  0.00     0.167 HD
HETATM   17  C   UNL     1       8.645  19.851  55.322  1.00  0.00     0.002 A 
HETATM   18  C   UNL     1       8.770  20.551  56.526  1.00  0.00     0.002 A 
ENDBRANCH   7   9
ENDBRANCH   6   7
ENDBRANCH   5   6
ENDBRANCH   1   5
BRANCH   2  19
HETATM   19  C   UNL     1       6.241  28.764  55.576  1.00  0.00     0.034 A 
HETATM   20  C   UNL     1       7.471  28.331  56.076  1.00  0.00     0.030 A 
HETATM   21  C   UNL     1       8.108  29.026  57.111  1.00  0.00     0.019 A 
HETATM   22  C   UNL     1       7.511  30.160  57.669  1.00  0.00     0.032 A 
HETATM   23  C   UNL     1       6.305  30.629  57.136  1.00  0.00     0.019 A 
HETATM   24  C   UNL     1       5.675  29.934  56.098  1.00  0.00     0.030 A 
BRANCH  22  25
HETATM   25  C   UNL     1       8.105  30.885  58.828  1.00  0.00     0.251 C 
HETATM   26  N   UNL     1       7.613  30.543  60.072  1.00  0.00    -0.353 N 
HETATM   27  H   UNL     1       6.790  29.959  60.108  1.00  0.00     0.163 HD
HETATM   28  O   UNL     1       8.939  31.761  58.633  1.00  0.00    -0.268 OA
BRANCH  26  29
HETATM   29  C   UNL     1       7.950  31.246  61.304  1.00  0.00     0.076 C 
HETATM   30  C   UNL     1       9.414  31.078  61.705  1.00  0.00     0.032 C 
HETATM   31  C   UNL     1       7.545  32.716  61.245  1.00  0.00     0.032 C 
ENDBRANCH  26  29
ENDBRANCH  22  25
ENDBRANCH   2  19
TORSDOF 7
ENDMDL
MODEL 9
REMARK VINA RESULT:      -8.4      6.787     10.909
REMARK  7 active torsions:
REMARK  status: ('A' for Active; 'I' for Inactive)
REMARK    1  A    between atoms: C_2  and  S_3 
REMARK    2  A    between atoms: C_2  and  C_20 
REMARK    3  A    between atoms: S_3  and  C_4 
REMARK    4  A    between atoms: C_4  and  C_5 
REMARK       I    between atoms: C_5  and  N_6 
REMARK    5  A    between atoms: N_6  and  C_7 
REMARK    6  A    between atoms: C_10  and  C_11 
REMARK       I    between atoms: C_11  and  N_12 
REMARK    7  A    between atoms: N_12  and  C_13 
ROOT
HETATM    1  C   UNL     1       5.653  28.291  55.060  1.00  0.00     0.231 C 
HETATM    2  N   UNL     1       6.302  28.077  53.853  1.00  0.00    -0.327 N 
HETATM    3  O   UNL     1       4.455  28.521  55.209  1.00  0.00    -0.272 OA
HETATM    4  H   UNL     1       7.313  28.041  53.885  1.00  0.00     0.169 HD
ENDROOT
BRANCH   1   5
HETATM    5  C   UNL     1       6.583  28.186  56.260  1.00  0.00     0.177 C 
BRANCH   5   6
HETATM    6  S   UNL     1       7.615  26.689  56.111  1.00  0.00    -0.147 SA
BRANCH   6   7
HETATM    7  C   UNL     1       6.316  25.432  55.767  1.00  0.00     0.113 C 
HETATM    8  C   UNL     1       5.443  25.198  56.997  1.00  0.00     0.029 C 
BRANCH   7   9
HETATM    9  C   UNL     1       6.916  24.162  55.241  1.00  0.00     0.118 A 
HETATM   10  N   UNL     1       7.016  23.788  53.980  1.00  0.00    -0.232 NA
HETATM   11  C   UNL     1       7.576  22.534  54.005  1.00  0.00     0.085 A 
HETATM   12  C   UNL     1       7.828  22.131  55.310  1.00  0.00     0.062 A 
HETATM   13  C   UNL     1       7.888  21.669  52.947  1.00  0.00     0.034 A 
HETATM   14  N   UNL     1       7.407  23.185  56.078  1.00  0.00    -0.342 N 
HETATM   15  C   UNL     1       8.381  20.892  55.637  1.00  0.00     0.032 A 
HETATM   16  H   UNL     1       7.404  23.221  57.087  1.00  0.00     0.167 HD
HETATM   17  C   UNL     1       8.686  20.039  54.569  1.00  0.00     0.002 A 
HETATM   18  C   UNL     1       8.445  20.419  53.246  1.00  0.00     0.002 A 
ENDBRANCH   7   9
ENDBRANCH   6   7
ENDBRANCH   5   6
ENDBRANCH   1   5
BRANCH   2  19
HETATM   19  C   UNL     1       5.709  27.887  52.588  1.00  0.00     0.034 A 
HETATM   20  C   UNL     1       5.515  26.635  51.998  1.00  0.00     0.030 A 
HETATM   21  C   UNL     1       5.003  26.528  50.700  1.00  0.00     0.019 A 
HETATM   22  C   UNL     1       4.692  27.678  49.968  1.00  0.00     0.032 A 
HETATM   23  C   UNL     1       4.835  28.932  50.573  1.00  0.00     0.019 A 
HETATM   24  C   UNL     1       5.342  29.034  51.873  1.00  0.00     0.030 A 
BRANCH  22  25
HETATM   25  C   UNL     1       4.226  27.620  48.554  1.00  0.00     0.251 C 
HETATM   26  N   UNL     1       3.023  28.243  48.288  1.00  0.00    -0.353 N 
HETATM   27  H   UNL     1       2.467  28.550  49.074  1.00  0.00     0.163 HD
HETATM   28  O   UNL     1       4.879  26.998  47.724  1.00  0.00    -0.268 OA
BRANCH  26  29
HETATM   29  C   UNL     1       2.326  28.160  47.009  1.00  0.00     0.076 C 
HETATM   30  C   UNL     1       1.277  27.051  46.971  1.00  0.00     0.032 C 
HETATM   31  C   UNL     1       1.740  29.508  46.597  1.00  0.00     0.032 C 
ENDBRANCH  26  29
ENDBRANCH  22  25
ENDBRANCH   2  19
TORSDOF 7
ENDMDL
MODEL 10
REMARK VINA RESULT:      -8.3      2.690      4.228
REMARK  7 active torsions:
REMARK  status: ('A' for Active; 'I' for Inactive)
REMARK    1  A    between atoms: C_2  and  S_3 
REMARK    2  A    between atoms: C_2  and  C_20 
REMARK    3  A    between atoms: S_3  and  C_4 
REMARK    4  A    between atoms: C_4  and  C_5 
REMARK       I    between atoms: C_5  and  N_6 
REMARK    5  A    between atoms: N_6  and  C_7 
REMARK    6  A    between atoms: C_10  and  C_11 
REMARK       I    between atoms: C_11  and  N_12 
REMARK    7  A    between atoms: N_12  and  C_13 
ROOT
HETATM    1  C   UNL     1       5.554  28.798  55.510  1.00  0.00     0.231 C 
HETATM    2  N   UNL     1       6.287  29.887  55.958  1.00  0.00    -0.327 N 
HETATM    3  O   UNL     1       4.690  28.195  56.142  1.00  0.00    -0.272 OA
HETATM    4  H   UNL     1       7.059  30.183  55.374  1.00  0.00     0.169 HD
ENDROOT
BRANCH   1   5
HETATM    5  C   UNL     1       5.898  28.400  54.082  1.00  0.00     0.177 C 
BRANCH   5   6
HETATM    6  S   UNL     1       7.500  27.528  54.054  1.00  0.00    -0.147 SA
BRANCH   6   7
HETATM    7  C   UNL     1       7.254  26.351  55.447  1.00  0.00     0.113 C 
HETATM    8  C   UNL     1       8.106  26.743  56.651  1.00  0.00     0.029 C 
BRANCH   7   9
HETATM    9  C   UNL     1       7.496  24.937  55.011  1.00  0.00     0.118 A 
HETATM   10  N   UNL     1       7.657  24.499  53.777  1.00  0.00    -0.232 NA
HETATM   11  C   UNL     1       7.786  23.135  53.879  1.00  0.00     0.085 A 
HETATM   12  C   UNL     1       7.705  22.728  55.204  1.00  0.00     0.062 A 
HETATM   13  C   UNL     1       7.963  22.172  52.875  1.00  0.00     0.034 A 
HETATM   14  N   UNL     1       7.527  23.892  55.906  1.00  0.00    -0.342 N 
HETATM   15  C   UNL     1       7.787  21.393  55.604  1.00  0.00     0.032 A 
HETATM   16  H   UNL     1       7.389  23.969  56.903  1.00  0.00     0.167 HD
HETATM   17  C   UNL     1       7.963  20.444  54.589  1.00  0.00     0.002 A 
HETATM   18  C   UNL     1       8.049  20.824  53.247  1.00  0.00     0.002 A 
ENDBRANCH   7   9
ENDBRANCH   6   7
ENDBRANCH   5   6
ENDBRANCH   1   5
BRANCH   2  19
HETATM   19  C   UNL     1       6.068  30.638  57.131  1.00  0.00     0.034 A 
HETATM   20  C   UNL     1       5.048  31.582  57.272  1.00  0.00     0.030 A 
HETATM   21  C   UNL     1       4.946  32.356  58.434  1.00  0.00     0.019 A 
HETATM   22  C   UNL     1       5.877  32.204  59.466  1.00  0.00     0.032 A 
HETATM   23  C   UNL     1       6.869  31.224  59.351  1.00  0.00     0.019 A 
HETATM   24  C   UNL     1       6.963  30.448  58.191  1.00  0.00     0.030 A 
BRANCH  22  25
HETATM   25  C   UNL     1       5.862  33.063  60.684  1.00  0.00     0.251 C 
HETATM   26  N   UNL     1       6.623  32.617  61.746  1.00  0.00    -0.353 N 
HETATM   27  H   UNL     1       7.002  31.682  61.695  1.00  0.00     0.163 HD
HETATM   28  O   UNL     1       5.158  34.065  60.712  1.00  0.00    -0.268 OA
BRANCH  26  29
HETATM   29  C   UNL     1       6.614  33.229  63.070  1.00  0.00     0.076 C 
HETATM   30  C   UNL     1       5.342  32.925  63.859  1.00  0.00     0.032 C 
HETATM   31  C   UNL     1       7.870  32.878  63.864  1.00  0.00     0.032 C 
ENDBRANCH  26  29
ENDBRANCH  22  25
ENDBRANCH   2  19
TORSDOF 7
ENDMDL
