MODEL 1
REMARK VINA RESULT:      -9.5      0.000      0.000
REMARK  9 active torsions:
REMARK  status: ('A' for Active; 'I' for Inactive)
REMARK    1  A    between atoms: C_2  and  N_3 
REMARK    2  A    between atoms: C_4  and  S_5 
REMARK    3  A    between atoms: S_5  and  C_6 
REMARK    4  A    between atoms: C_6  and  C_7 
REMARK       I    between atoms: C_7  and  N_8 
REMARK    5  A    between atoms: N_8  and  C_9 
REMARK    6  A    between atoms: C_9  and  C_10 
REMARK    7  A    between atoms: C_10  and  C_11 
REMARK    8  A    between atoms: C_14  and  O_15 
REMARK    9  A    between atoms: C_22  and  C_23 
ROOT
HETATM    1  C   UNL     1       8.352  28.890  57.781  1.00  0.00     0.185 C 
ENDROOT
BRANCH   1   2
HETATM    2  S   UNL     1       6.845  27.956  57.383  1.00  0.00    -0.081 SA
BRANCH   2   3
HETATM    3  C   UNL     1       7.545  26.426  56.987  1.00  0.00     0.192 A 
HETATM    4  N   UNL     1       7.179  25.655  55.913  1.00  0.00    -0.308 N 
HETATM    5  C   UNL     1       7.957  24.512  55.995  1.00  0.00     0.164 A 
HETATM    6  N   UNL     1       8.738  24.630  57.059  1.00  0.00    -0.128 NA
HETATM    7  N   UNL     1       8.487  25.828  57.671  1.00  0.00    -0.122 NA
BRANCH   4   8
HETATM    8  C   UNL     1       6.106  25.940  54.982  1.00  0.00     0.128 C 
HETATM    9  C   UNL     1       6.579  26.683  53.741  1.00  0.00     0.027 C 
ENDBRANCH   4   8
BRANCH   5  10
HETATM   10  C   UNL     1       7.921  23.314  55.144  1.00  0.00     0.012 A 
HETATM   11  C   UNL     1       7.769  22.060  55.762  1.00  0.00     0.015 A 
HETATM   12  C   UNL     1       7.747  20.882  55.012  1.00  0.00     0.001 A 
HETATM   13  C   UNL     1       7.879  20.937  53.628  1.00  0.00     0.000 A 
HETATM   14  C   UNL     1       8.050  22.168  53.000  1.00  0.00     0.001 A 
HETATM   15  C   UNL     1       8.083  23.347  53.754  1.00  0.00     0.015 A 
ENDBRANCH   5  10
ENDBRANCH   2   3
ENDBRANCH   1   2
BRANCH   1  16
HETATM   16  C   UNL     1       7.976  30.154  58.535  1.00  0.00     0.227 C 
HETATM   17  N   UNL     1       8.981  30.660  59.339  1.00  0.00    -0.360 N 
HETATM   18  H   UNL     1       9.926  30.338  59.167  1.00  0.00     0.162 HD
HETATM   19  O   UNL     1       6.867  30.675  58.442  1.00  0.00    -0.273 OA
BRANCH  17  20
HETATM   20  C   UNL     1       8.817  31.929  60.030  1.00  0.00     0.127 C 
BRANCH  20  21
HETATM   21  C   UNL     1       9.115  31.801  61.524  1.00  0.00     0.058 C 
BRANCH  21  22
HETATM   22  C   UNL     1       7.910  32.127  62.369  1.00  0.00    -0.057 A 
HETATM   23  C   UNL     1       8.058  32.799  63.587  1.00  0.00     0.010 A 
HETATM   24  C   UNL     1       6.942  33.077  64.379  1.00  0.00     0.037 A 
HETATM   25  C   UNL     1       5.663  32.688  63.974  1.00  0.00     0.068 A 
HETATM   26  C   UNL     1       5.511  32.016  62.761  1.00  0.00     0.037 A 
HETATM   27  C   UNL     1       6.628  31.737  61.965  1.00  0.00     0.010 A 
BRANCH  25  28
HETATM   28  O   UNL     1       4.661  33.020  64.843  1.00  0.00    -0.356 OA
HETATM   29  C   UNL     1       5.005  33.884  65.919  1.00  0.00     0.210 C 
ENDBRANCH  25  28
ENDBRANCH  21  22
ENDBRANCH  20  21
ENDBRANCH  17  20
ENDBRANCH   1  16
TORSDOF 9
ENDMDL
MODEL 2
REMARK VINA RESULT:      -9.4      1.346      1.696
REMARK  9 active torsions:
REMARK  status: ('A' for Active; 'I' for Inactive)
REMARK    1  A    between atoms: C_2  and  N_3 
REMARK    2  A    between atoms: C_4  and  S_5 
REMARK    3  A    between atoms: S_5  and  C_6 
REMARK    4  A    between atoms: C_6  and  C_7 
REMARK       I    between atoms: C_7  and  N_8 
REMARK    5  A    between atoms: N_8  and  C_9 
REMARK    6  A    between atoms: C_9  and  C_10 
REMARK    7  A    between atoms: C_10  and  C_11 
REMARK    8  A    between atoms: C_14  and  O_15 
REMARK    9  A    between atoms: C_22  and  C_23 
ROOT
HETATM    1  C   UNL     1       9.333  29.774  57.805  1.00  0.00     0.185 C 
ENDROOT
BRANCH   1   2
HETATM    2  S   UNL     1       7.560  29.396  57.686  1.00  0.00    -0.081 SA
BRANCH   2   3
HETATM    3  C   UNL     1       7.647  27.712  57.299  1.00  0.00     0.192 A 
HETATM    4  N   UNL     1       7.721  27.208  56.025  1.00  0.00    -0.308 N 
HETATM    5  C   UNL     1       7.735  25.831  56.172  1.00  0.00     0.164 A 
HETATM    6  N   UNL     1       7.682  25.562  57.469  1.00  0.00    -0.128 NA
HETATM    7  N   UNL     1       7.637  26.736  58.170  1.00  0.00    -0.122 NA
BRANCH   4   8
HETATM    8  C   UNL     1       7.660  27.974  54.797  1.00  0.00     0.128 C 
HETATM    9  C   UNL     1       6.237  28.339  54.397  1.00  0.00     0.027 C 
ENDBRANCH   4   8
BRANCH   5  10
HETATM   10  C   UNL     1       7.726  24.796  55.129  1.00  0.00     0.012 A 
HETATM   11  C   UNL     1       6.781  24.899  54.094  1.00  0.00     0.015 A 
HETATM   12  C   UNL     1       6.706  23.938  53.082  1.00  0.00     0.001 A 
HETATM   13  C   UNL     1       7.577  22.853  53.091  1.00  0.00     0.000 A 
HETATM   14  C   UNL     1       8.507  22.723  54.119  1.00  0.00     0.001 A 
HETATM   15  C   UNL     1       8.572  23.681  55.137  1.00  0.00     0.015 A 
ENDBRANCH   5  10
ENDBRANCH   2   3
ENDBRANCH   1   2
BRANCH   1  16
HETATM   16  C   UNL     1       9.517  31.094  58.535  1.00  0.00     0.227 C 
HETATM   17  N   UNL     1       8.730  31.237  59.664  1.00  0.00    -0.360 N 
HETATM   18  H   UNL     1       8.321  30.400  60.059  1.00  0.00     0.162 HD
HETATM   19  O   UNL     1      10.295  31.962  58.146  1.00  0.00    -0.273 OA
BRANCH  17  20
HETATM   20  C   UNL     1       8.878  32.392  60.535  1.00  0.00     0.127 C 
BRANCH  20  21
HETATM   21  C   UNL     1       9.027  31.979  61.999  1.00  0.00     0.058 C 
BRANCH  21  22
HETATM   22  C   UNL     1       7.795  32.305  62.805  1.00  0.00    -0.057 A 
HETATM   23  C   UNL     1       7.897  33.042  63.990  1.00  0.00     0.010 A 
HETATM   24  C   UNL     1       6.756  33.321  64.747  1.00  0.00     0.037 A 
HETATM   25  C   UNL     1       5.500  32.870  64.338  1.00  0.00     0.068 A 
HETATM   26  C   UNL     1       5.394  32.133  63.158  1.00  0.00     0.037 A 
HETATM   27  C   UNL     1       6.535  31.852  62.397  1.00  0.00     0.010 A 
BRANCH  25  28
HETATM   28  O   UNL     1       4.470  33.210  65.171  1.00  0.00    -0.356 OA
HETATM   29  C   UNL     1       4.723  34.242  66.115  1.00  0.00     0.210 C 
ENDBRANCH  25  28
ENDBRANCH  21  22
ENDBRANCH  20  21
ENDBRANCH  17  20
ENDBRANCH   1  16
TORSDOF 9
ENDMDL
MODEL 3
REMARK VINA RESULT:      -8.9      1.552      2.043
REMARK  9 active torsions:
REMARK  status: ('A' for Active; 'I' for Inactive)
REMARK    1  A    between atoms: C_2  and  N_3 
REMARK    2  A    between atoms: C_4  and  S_5 
REMARK    3  A    between atoms: S_5  and  C_6 
REMARK    4  A    between atoms: C_6  and  C_7 
REMARK       I    between atoms: C_7  and  N_8 
REMARK    5  A    between atoms: N_8  and  C_9 
REMARK    6  A    between atoms: C_9  and  C_10 
REMARK    7  A    between atoms: C_10  and  C_11 
REMARK    8  A    between atoms: C_14  and  O_15 
REMARK    9  A    between atoms: C_22  and  C_23 
ROOT
HETATM    1  C   UNL     1       5.322  28.211  57.044  1.00  0.00     0.185 C 
ENDROOT
BRANCH   1   2
HETATM    2  S   UNL     1       5.277  27.710  55.298  1.00  0.00    -0.081 SA
BRANCH   2   3
HETATM    3  C   UNL     1       6.353  26.357  55.356  1.00  0.00     0.192 A 
HETATM    4  N   UNL     1       6.221  25.224  54.593  1.00  0.00    -0.308 N 
HETATM    5  C   UNL     1       7.262  24.395  54.981  1.00  0.00     0.164 A 
HETATM    6  N   UNL     1       7.959  25.029  55.913  1.00  0.00    -0.128 NA
HETATM    7  N   UNL     1       7.396  26.256  56.138  1.00  0.00    -0.122 NA
BRANCH   4   8
HETATM    8  C   UNL     1       5.137  24.927  53.681  1.00  0.00     0.128 C 
HETATM    9  C   UNL     1       5.464  25.280  52.236  1.00  0.00     0.027 C 
ENDBRANCH   4   8
BRANCH   5  10
HETATM   10  C   UNL     1       7.553  23.022  54.545  1.00  0.00     0.012 A 
HETATM   11  C   UNL     1       7.574  22.003  55.513  1.00  0.00     0.015 A 
HETATM   12  C   UNL     1       7.863  20.681  55.167  1.00  0.00     0.001 A 
HETATM   13  C   UNL     1       8.140  20.355  53.843  1.00  0.00     0.000 A 
HETATM   14  C   UNL     1       8.142  21.353  52.872  1.00  0.00     0.001 A 
HETATM   15  C   UNL     1       7.863  22.679  53.224  1.00  0.00     0.015 A 
ENDBRANCH   5  10
ENDBRANCH   2   3
ENDBRANCH   1   2
BRANCH   1  16
HETATM   16  C   UNL     1       6.125  29.493  57.178  1.00  0.00     0.227 C 
HETATM   17  N   UNL     1       6.997  29.512  58.253  1.00  0.00    -0.360 N 
HETATM   18  H   UNL     1       7.230  28.625  58.682  1.00  0.00     0.162 HD
HETATM   19  O   UNL     1       6.002  30.436  56.400  1.00  0.00    -0.273 OA
BRANCH  17  20
HETATM   20  C   UNL     1       7.920  30.618  58.446  1.00  0.00     0.127 C 
BRANCH  20  21
HETATM   21  C   UNL     1       8.699  30.482  59.754  1.00  0.00     0.058 C 
BRANCH  21  22
HETATM   22  C   UNL     1       8.135  31.361  60.841  1.00  0.00    -0.057 A 
HETATM   23  C   UNL     1       7.097  32.257  60.563  1.00  0.00     0.010 A 
HETATM   24  C   UNL     1       6.594  33.087  61.567  1.00  0.00     0.037 A 
HETATM   25  C   UNL     1       7.119  33.041  62.861  1.00  0.00     0.068 A 
HETATM   26  C   UNL     1       8.155  32.151  63.142  1.00  0.00     0.037 A 
HETATM   27  C   UNL     1       8.661  31.318  62.138  1.00  0.00     0.010 A 
BRANCH  25  28
HETATM   28  O   UNL     1       6.538  33.907  63.745  1.00  0.00    -0.356 OA
HETATM   29  C   UNL     1       7.011  33.870  65.086  1.00  0.00     0.210 C 
ENDBRANCH  25  28
ENDBRANCH  21  22
ENDBRANCH  20  21
ENDBRANCH  17  20
ENDBRANCH   1  16
TORSDOF 9
ENDMDL
MODEL 4
REMARK VINA RESULT:      -8.5      3.200     10.310
REMARK  9 active torsions:
REMARK  status: ('A' for Active; 'I' for Inactive)
REMARK    1  A    between atoms: C_2  and  N_3 
REMARK    2  A    between atoms: C_4  and  S_5 
REMARK    3  A    between atoms: S_5  and  C_6 
REMARK    4  A    between atoms: C_6  and  C_7 
REMARK       I    between atoms: C_7  and  N_8 
REMARK    5  A    between atoms: N_8  and  C_9 
REMARK    6  A    between atoms: C_9  and  C_10 
REMARK    7  A    between atoms: C_10  and  C_11 
REMARK    8  A    between atoms: C_14  and  O_15 
REMARK    9  A    between atoms: C_22  and  C_23 
ROOT
HETATM    1  C   UNL     1       4.208  28.993  56.319  1.00  0.00     0.185 C 
ENDROOT
BRANCH   1   2
HETATM    2  S   UNL     1       5.187  30.271  55.477  1.00  0.00    -0.081 SA
BRANCH   2   3
HETATM    3  C   UNL     1       5.685  31.205  56.844  1.00  0.00     0.192 A 
HETATM    4  N   UNL     1       6.611  30.796  57.772  1.00  0.00    -0.308 N 
HETATM    5  C   UNL     1       6.679  31.821  58.702  1.00  0.00     0.164 A 
HETATM    6  N   UNL     1       5.840  32.772  58.318  1.00  0.00    -0.128 NA
HETATM    7  N   UNL     1       5.229  32.391  57.155  1.00  0.00    -0.122 NA
BRANCH   4   8
HETATM    8  C   UNL     1       7.264  29.504  57.817  1.00  0.00     0.128 C 
HETATM    9  C   UNL     1       8.611  29.496  57.109  1.00  0.00     0.027 C 
ENDBRANCH   4   8
BRANCH   5  10
HETATM   10  C   UNL     1       7.452  31.877  59.951  1.00  0.00     0.012 A 
HETATM   11  C   UNL     1       6.754  32.007  61.164  1.00  0.00     0.015 A 
HETATM   12  C   UNL     1       7.430  32.085  62.384  1.00  0.00     0.001 A 
HETATM   13  C   UNL     1       8.820  32.038  62.411  1.00  0.00     0.000 A 
HETATM   14  C   UNL     1       9.531  31.930  61.218  1.00  0.00     0.001 A 
HETATM   15  C   UNL     1       8.851  31.862  59.996  1.00  0.00     0.015 A 
ENDBRANCH   5  10
ENDBRANCH   2   3
ENDBRANCH   1   2
BRANCH   1  16
HETATM   16  C   UNL     1       4.819  27.630  56.045  1.00  0.00     0.227 C 
HETATM   17  N   UNL     1       4.647  26.710  57.065  1.00  0.00    -0.360 N 
HETATM   18  H   UNL     1       3.933  26.905  57.756  1.00  0.00     0.162 HD
HETATM   19  O   UNL     1       5.424  27.372  55.007  1.00  0.00    -0.273 OA
BRANCH  17  20
HETATM   20  C   UNL     1       5.070  25.329  56.904  1.00  0.00     0.127 C 
BRANCH  20  21
HETATM   21  C   UNL     1       6.570  25.165  57.145  1.00  0.00     0.058 C 
BRANCH  21  22
HETATM   22  C   UNL     1       7.190  24.174  56.194  1.00  0.00    -0.057 A 
HETATM   23  C   UNL     1       8.210  23.319  56.625  1.00  0.00     0.010 A 
HETATM   24  C   UNL     1       8.799  22.418  55.734  1.00  0.00     0.037 A 
HETATM   25  C   UNL     1       8.385  22.358  54.401  1.00  0.00     0.068 A 
HETATM   26  C   UNL     1       7.370  23.211  53.966  1.00  0.00     0.037 A 
HETATM   27  C   UNL     1       6.778  24.114  54.858  1.00  0.00     0.010 A 
BRANCH  25  28
HETATM   28  O   UNL     1       9.045  21.436  53.638  1.00  0.00    -0.356 OA
HETATM   29  C   UNL     1       8.245  20.563  52.851  1.00  0.00     0.210 C 
ENDBRANCH  25  28
ENDBRANCH  21  22
ENDBRANCH  20  21
ENDBRANCH  17  20
ENDBRANCH   1  16
TORSDOF 9
ENDMDL
MODEL 5
REMARK VINA RESULT:      -8.4      2.507     11.150
REMARK  9 active torsions:
REMARK  status: ('A' for Active; 'I' for Inactive)
REMARK    1  A    between atoms: C_2  and  N_3 
REMARK    2  A    between atoms: C_4  and  S_5 
REMARK    3  A    between atoms: S_5  and  C_6 
REMARK    4  A    between atoms: C_6  and  C_7 
REMARK       I    between atoms: C_7  and  N_8 
REMARK    5  A    between atoms: N_8  and  C_9 
REMARK    6  A    between atoms: C_9  and  C_10 
REMARK    7  A    between atoms: C_10  and  C_11 
REMARK    8  A    between atoms: C_14  and  O_15 
REMARK    9  A    between atoms: C_22  and  C_23 
ROOT
HETATM    1  C   UNL     1       8.212  28.920  58.230  1.00  0.00     0.185 C 
ENDROOT
BRANCH   1   2
HETATM    2  S   UNL     1       8.544  30.699  58.387  1.00  0.00    -0.081 SA
BRANCH   2   3
HETATM    3  C   UNL     1       8.362  30.879  60.098  1.00  0.00     0.192 A 
HETATM    4  N   UNL     1       7.494  31.754  60.701  1.00  0.00    -0.308 N 
HETATM    5  C   UNL     1       7.699  31.598  62.063  1.00  0.00     0.164 A 
HETATM    6  N   UNL     1       8.632  30.671  62.228  1.00  0.00    -0.128 NA
HETATM    7  N   UNL     1       9.037  30.217  61.002  1.00  0.00    -0.122 NA
BRANCH   4   8
HETATM    8  C   UNL     1       6.650  32.722  60.031  1.00  0.00     0.128 C 
HETATM    9  C   UNL     1       5.291  32.156  59.644  1.00  0.00     0.027 C 
ENDBRANCH   4   8
BRANCH   5  10
HETATM   10  C   UNL     1       7.093  32.345  63.174  1.00  0.00     0.012 A 
HETATM   11  C   UNL     1       5.691  32.378  63.271  1.00  0.00     0.015 A 
HETATM   12  C   UNL     1       5.052  33.085  64.291  1.00  0.00     0.001 A 
HETATM   13  C   UNL     1       5.806  33.777  65.234  1.00  0.00     0.000 A 
HETATM   14  C   UNL     1       7.195  33.773  65.144  1.00  0.00     0.001 A 
HETATM   15  C   UNL     1       7.833  33.071  64.113  1.00  0.00     0.015 A 
ENDBRANCH   5  10
ENDBRANCH   2   3
ENDBRANCH   1   2
BRANCH   1  16
HETATM   16  C   UNL     1       7.046  28.709  57.279  1.00  0.00     0.227 C 
HETATM   17  N   UNL     1       7.042  27.480  56.643  1.00  0.00    -0.360 N 
HETATM   18  H   UNL     1       7.619  26.747  57.037  1.00  0.00     0.162 HD
HETATM   19  O   UNL     1       6.185  29.564  57.087  1.00  0.00    -0.273 OA
BRANCH  17  20
HETATM   20  C   UNL     1       5.930  27.081  55.796  1.00  0.00     0.127 C 
BRANCH  20  21
HETATM   21  C   UNL     1       5.505  25.637  56.064  1.00  0.00     0.058 C 
BRANCH  21  22
HETATM   22  C   UNL     1       6.396  24.647  55.359  1.00  0.00    -0.057 A 
HETATM   23  C   UNL     1       6.297  24.462  53.975  1.00  0.00     0.010 A 
HETATM   24  C   UNL     1       7.108  23.526  53.329  1.00  0.00     0.037 A 
HETATM   25  C   UNL     1       8.024  22.756  54.050  1.00  0.00     0.068 A 
HETATM   26  C   UNL     1       8.124  22.935  55.430  1.00  0.00     0.037 A 
HETATM   27  C   UNL     1       7.314  23.874  56.079  1.00  0.00     0.010 A 
BRANCH  25  28
HETATM   28  O   UNL     1       8.751  21.877  53.296  1.00  0.00    -0.356 OA
HETATM   29  C   UNL     1       8.155  20.614  53.030  1.00  0.00     0.210 C 
ENDBRANCH  25  28
ENDBRANCH  21  22
ENDBRANCH  20  21
ENDBRANCH  17  20
ENDBRANCH   1  16
TORSDOF 9
ENDMDL
MODEL 6
REMARK VINA RESULT:      -8.4      2.375      3.687
REMARK  9 active torsions:
REMARK  status: ('A' for Active; 'I' for Inactive)
REMARK    1  A    between atoms: C_2  and  N_3 
REMARK    2  A    between atoms: C_4  and  S_5 
REMARK    3  A    between atoms: S_5  and  C_6 
REMARK    4  A    between atoms: C_6  and  C_7 
REMARK       I    between atoms: C_7  and  N_8 
REMARK    5  A    between atoms: N_8  and  C_9 
REMARK    6  A    between atoms: C_9  and  C_10 
REMARK    7  A    between atoms: C_10  and  C_11 
REMARK    8  A    between atoms: C_14  and  O_15 
REMARK    9  A    between atoms: C_22  and  C_23 
ROOT
HETATM    1  C   UNL     1       6.411  28.195  53.972  1.00  0.00     0.185 C 
ENDROOT
BRANCH   1   2
HETATM    2  S   UNL     1       5.027  27.019  53.954  1.00  0.00    -0.081 SA
BRANCH   2   3
HETATM    3  C   UNL     1       5.791  25.658  54.698  1.00  0.00     0.192 A 
HETATM    4  N   UNL     1       6.426  24.651  54.016  1.00  0.00    -0.308 N 
HETATM    5  C   UNL     1       6.855  23.760  54.987  1.00  0.00     0.164 A 
HETATM    6  N   UNL     1       6.491  24.241  56.167  1.00  0.00    -0.128 NA
HETATM    7  N   UNL     1       5.837  25.429  55.986  1.00  0.00    -0.122 NA
BRANCH   4   8
HETATM    8  C   UNL     1       6.499  24.506  52.577  1.00  0.00     0.128 C 
HETATM    9  C   UNL     1       7.777  25.086  51.987  1.00  0.00     0.027 C 
ENDBRANCH   4   8
BRANCH   5  10
HETATM   10  C   UNL     1       7.522  22.462  54.812  1.00  0.00     0.012 A 
HETATM   11  C   UNL     1       7.941  21.766  55.958  1.00  0.00     0.015 A 
HETATM   12  C   UNL     1       8.598  20.537  55.860  1.00  0.00     0.001 A 
HETATM   13  C   UNL     1       8.850  19.983  54.609  1.00  0.00     0.000 A 
HETATM   14  C   UNL     1       8.460  20.666  53.460  1.00  0.00     0.001 A 
HETATM   15  C   UNL     1       7.811  21.903  53.561  1.00  0.00     0.015 A 
ENDBRANCH   5  10
ENDBRANCH   2   3
ENDBRANCH   1   2
BRANCH   1  16
HETATM   16  C   UNL     1       6.861  28.419  55.405  1.00  0.00     0.227 C 
HETATM   17  N   UNL     1       8.067  27.820  55.726  1.00  0.00    -0.360 N 
HETATM   18  H   UNL     1       8.664  27.531  54.962  1.00  0.00     0.162 HD
HETATM   19  O   UNL     1       6.202  29.070  56.212  1.00  0.00    -0.273 OA
BRANCH  17  20
HETATM   20  C   UNL     1       8.689  28.041  57.021  1.00  0.00     0.127 C 
BRANCH  20  21
HETATM   21  C   UNL     1       9.584  29.281  57.014  1.00  0.00     0.058 C 
BRANCH  21  22
HETATM   22  C   UNL     1       9.283  30.200  58.170  1.00  0.00    -0.057 A 
HETATM   23  C   UNL     1      10.088  31.317  58.417  1.00  0.00     0.010 A 
HETATM   24  C   UNL     1       9.820  32.153  59.504  1.00  0.00     0.037 A 
HETATM   25  C   UNL     1       8.752  31.888  60.363  1.00  0.00     0.068 A 
HETATM   26  C   UNL     1       7.948  30.774  60.122  1.00  0.00     0.037 A 
HETATM   27  C   UNL     1       8.213  29.935  59.033  1.00  0.00     0.010 A 
BRANCH  25  28
HETATM   28  O   UNL     1       8.604  32.783  61.386  1.00  0.00    -0.356 OA
HETATM   29  C   UNL     1       8.252  32.251  62.657  1.00  0.00     0.210 C 
ENDBRANCH  25  28
ENDBRANCH  21  22
ENDBRANCH  20  21
ENDBRANCH  17  20
ENDBRANCH   1  16
TORSDOF 9
ENDMDL
MODEL 7
REMARK VINA RESULT:      -8.4      1.925      3.144
REMARK  9 active torsions:
REMARK  status: ('A' for Active; 'I' for Inactive)
REMARK    1  A    between atoms: C_2  and  N_3 
REMARK    2  A    between atoms: C_4  and  S_5 
REMARK    3  A    between atoms: S_5  and  C_6 
REMARK    4  A    between atoms: C_6  and  C_7 
REMARK       I    between atoms: C_7  and  N_8 
REMARK    5  A    between atoms: N_8  and  C_9 
REMARK    6  A    between atoms: C_9  and  C_10 
REMARK    7  A    between atoms: C_10  and  C_11 
REMARK    8  A    between atoms: C_14  and  O_15 
REMARK    9  A    between atoms: C_22  and  C_23 
ROOT
HETATM    1  C   UNL     1       5.712  28.242  54.964  1.00  0.00     0.185 C 
ENDROOT
BRANCH   1   2
HETATM    2  S   UNL     1       7.409  28.112  54.329  1.00  0.00    -0.081 SA
BRANCH   2   3
HETATM    3  C   UNL     1       7.401  26.463  53.810  1.00  0.00     0.192 A 
HETATM    4  N   UNL     1       7.593  25.385  54.637  1.00  0.00    -0.308 N 
HETATM    5  C   UNL     1       7.545  24.273  53.812  1.00  0.00     0.164 A 
HETATM    6  N   UNL     1       7.327  24.695  52.575  1.00  0.00    -0.128 NA
HETATM    7  N   UNL     1       7.227  26.060  52.578  1.00  0.00    -0.122 NA
BRANCH   4   8
HETATM    8  C   UNL     1       7.911  25.435  56.049  1.00  0.00     0.128 C 
HETATM    9  C   UNL     1       6.697  25.204  56.939  1.00  0.00     0.027 C 
ENDBRANCH   4   8
BRANCH   5  10
HETATM   10  C   UNL     1       7.769  22.862  54.158  1.00  0.00     0.012 A 
HETATM   11  C   UNL     1       8.181  21.982  53.143  1.00  0.00     0.015 A 
HETATM   12  C   UNL     1       8.393  20.626  53.402  1.00  0.00     0.001 A 
HETATM   13  C   UNL     1       8.193  20.125  54.685  1.00  0.00     0.000 A 
HETATM   14  C   UNL     1       7.766  20.977  55.700  1.00  0.00     0.001 A 
HETATM   15  C   UNL     1       7.545  22.334  55.435  1.00  0.00     0.015 A 
ENDBRANCH   5  10
ENDBRANCH   2   3
ENDBRANCH   1   2
BRANCH   1  16
HETATM   16  C   UNL     1       5.745  28.809  56.373  1.00  0.00     0.227 C 
HETATM   17  N   UNL     1       6.698  29.792  56.572  1.00  0.00    -0.360 N 
HETATM   18  H   UNL     1       7.091  30.236  55.752  1.00  0.00     0.162 HD
HETATM   19  O   UNL     1       4.991  28.417  57.262  1.00  0.00    -0.273 OA
BRANCH  17  20
HETATM   20  C   UNL     1       6.774  30.515  57.831  1.00  0.00     0.127 C 
BRANCH  20  21
HETATM   21  C   UNL     1       8.120  30.305  58.523  1.00  0.00     0.058 C 
BRANCH  21  22
HETATM   22  C   UNL     1       8.145  30.905  59.905  1.00  0.00    -0.057 A 
HETATM   23  C   UNL     1       7.151  31.806  60.305  1.00  0.00     0.010 A 
HETATM   24  C   UNL     1       7.191  32.379  61.579  1.00  0.00     0.037 A 
HETATM   25  C   UNL     1       8.220  32.068  62.470  1.00  0.00     0.068 A 
HETATM   26  C   UNL     1       9.214  31.172  62.074  1.00  0.00     0.037 A 
HETATM   27  C   UNL     1       9.176  30.596  60.799  1.00  0.00     0.010 A 
BRANCH  25  28
HETATM   28  O   UNL     1       8.140  32.700  63.680  1.00  0.00    -0.356 OA
HETATM   29  C   UNL     1       7.013  33.541  63.891  1.00  0.00     0.210 C 
ENDBRANCH  25  28
ENDBRANCH  21  22
ENDBRANCH  20  21
ENDBRANCH  17  20
ENDBRANCH   1  16
TORSDOF 9
ENDMDL
MODEL 8
REMARK VINA RESULT:      -8.3      3.381      4.807
REMARK  9 active torsions:
REMARK  status: ('A' for Active; 'I' for Inactive)
REMARK    1  A    between atoms: C_2  and  N_3 
REMARK    2  A    between atoms: C_4  and  S_5 
REMARK    3  A    between atoms: S_5  and  C_6 
REMARK    4  A    between atoms: C_6  and  C_7 
REMARK       I    between atoms: C_7  and  N_8 
REMARK    5  A    between atoms: N_8  and  C_9 
REMARK    6  A    between atoms: C_9  and  C_10 
REMARK    7  A    between atoms: C_10  and  C_11 
REMARK    8  A    between atoms: C_14  and  O_15 
REMARK    9  A    between atoms: C_22  and  C_23 
ROOT
HETATM    1  C   UNL     1       3.901  28.466  53.131  1.00  0.00     0.185 C 
ENDROOT
BRANCH   1   2
HETATM    2  S   UNL     1       5.389  28.629  52.102  1.00  0.00    -0.081 SA
BRANCH   2   3
HETATM    3  C   UNL     1       6.412  27.474  52.883  1.00  0.00     0.192 A 
HETATM    4  N   UNL     1       6.326  26.115  52.712  1.00  0.00    -0.308 N 
HETATM    5  C   UNL     1       7.296  25.576  53.542  1.00  0.00     0.164 A 
HETATM    6  N   UNL     1       7.912  26.580  54.150  1.00  0.00    -0.128 NA
HETATM    7  N   UNL     1       7.366  27.762  53.730  1.00  0.00    -0.122 NA
BRANCH   4   8
HETATM    8  C   UNL     1       5.333  25.413  51.926  1.00  0.00     0.128 C 
HETATM    9  C   UNL     1       4.309  24.680  52.782  1.00  0.00     0.027 C 
ENDBRANCH   4   8
BRANCH   5  10
HETATM   10  C   UNL     1       7.589  24.162  53.813  1.00  0.00     0.012 A 
HETATM   11  C   UNL     1       7.364  23.669  55.110  1.00  0.00     0.015 A 
HETATM   12  C   UNL     1       7.640  22.340  55.438  1.00  0.00     0.001 A 
HETATM   13  C   UNL     1       8.151  21.478  54.472  1.00  0.00     0.000 A 
HETATM   14  C   UNL     1       8.399  21.952  53.187  1.00  0.00     0.001 A 
HETATM   15  C   UNL     1       8.131  23.288  52.863  1.00  0.00     0.015 A 
ENDBRANCH   5  10
ENDBRANCH   2   3
ENDBRANCH   1   2
BRANCH   1  16
HETATM   16  C   UNL     1       4.219  28.909  54.548  1.00  0.00     0.227 C 
HETATM   17  N   UNL     1       4.338  27.873  55.458  1.00  0.00    -0.360 N 
HETATM   18  H   UNL     1       4.475  26.940  55.090  1.00  0.00     0.162 HD
HETATM   19  O   UNL     1       4.351  30.091  54.859  1.00  0.00    -0.273 OA
BRANCH  17  20
HETATM   20  C   UNL     1       4.757  28.126  56.827  1.00  0.00     0.127 C 
BRANCH  20  21
HETATM   21  C   UNL     1       6.266  27.954  56.997  1.00  0.00     0.058 C 
BRANCH  21  22
HETATM   22  C   UNL     1       6.907  29.169  57.617  1.00  0.00    -0.057 A 
HETATM   23  C   UNL     1       8.239  29.131  58.042  1.00  0.00     0.010 A 
HETATM   24  C   UNL     1       8.821  30.252  58.639  1.00  0.00     0.037 A 
HETATM   25  C   UNL     1       8.086  31.425  58.826  1.00  0.00     0.068 A 
HETATM   26  C   UNL     1       6.756  31.466  58.406  1.00  0.00     0.037 A 
HETATM   27  C   UNL     1       6.171  30.345  57.807  1.00  0.00     0.010 A 
BRANCH  25  28
HETATM   28  O   UNL     1       8.775  32.443  59.424  1.00  0.00    -0.356 OA
HETATM   29  C   UNL     1       9.464  32.131  60.628  1.00  0.00     0.210 C 
ENDBRANCH  25  28
ENDBRANCH  21  22
ENDBRANCH  20  21
ENDBRANCH  17  20
ENDBRANCH   1  16
TORSDOF 9
ENDMDL
MODEL 9
REMARK VINA RESULT:      -8.3      2.699     11.453
REMARK  9 active torsions:
REMARK  status: ('A' for Active; 'I' for Inactive)
REMARK    1  A    between atoms: C_2  and  N_3 
REMARK    2  A    between atoms: C_4  and  S_5 
REMARK    3  A    between atoms: S_5  and  C_6 
REMARK    4  A    between atoms: C_6  and  C_7 
REMARK       I    between atoms: C_7  and  N_8 
REMARK    5  A    between atoms: N_8  and  C_9 
REMARK    6  A    between atoms: C_9  and  C_10 
REMARK    7  A    between atoms: C_10  and  C_11 
REMARK    8  A    between atoms: C_14  and  O_15 
REMARK    9  A    between atoms: C_22  and  C_23 
ROOT
HETATM    1  C   UNL     1       6.536  30.014  57.424  1.00  0.00     0.185 C 
ENDROOT
BRANCH   1   2
HETATM    2  S   UNL     1       7.923  30.467  58.507  1.00  0.00    -0.081 SA
BRANCH   2   3
HETATM    3  C   UNL     1       7.095  31.492  59.627  1.00  0.00     0.192 A 
HETATM    4  N   UNL     1       7.434  31.635  60.949  1.00  0.00    -0.308 N 
HETATM    5  C   UNL     1       6.499  32.510  61.478  1.00  0.00     0.164 A 
HETATM    6  N   UNL     1       5.673  32.858  60.502  1.00  0.00    -0.128 NA
HETATM    7  N   UNL     1       6.052  32.230  59.347  1.00  0.00    -0.122 NA
BRANCH   4   8
HETATM    8  C   UNL     1       8.472  30.908  61.651  1.00  0.00     0.128 C 
HETATM    9  C   UNL     1       9.843  31.557  61.519  1.00  0.00     0.027 C 
ENDBRANCH   4   8
BRANCH   5  10
HETATM   10  C   UNL     1       6.339  32.952  62.870  1.00  0.00     0.012 A 
HETATM   11  C   UNL     1       7.491  33.302  63.596  1.00  0.00     0.015 A 
HETATM   12  C   UNL     1       7.410  33.712  64.929  1.00  0.00     0.001 A 
HETATM   13  C   UNL     1       6.172  33.776  65.562  1.00  0.00     0.000 A 
HETATM   14  C   UNL     1       5.022  33.415  64.866  1.00  0.00     0.001 A 
HETATM   15  C   UNL     1       5.107  32.994  63.533  1.00  0.00     0.015 A 
ENDBRANCH   5  10
ENDBRANCH   2   3
ENDBRANCH   1   2
BRANCH   1  16
HETATM   16  C   UNL     1       6.619  28.534  57.093  1.00  0.00     0.227 C 
HETATM   17  N   UNL     1       5.925  28.163  55.955  1.00  0.00    -0.360 N 
HETATM   18  H   UNL     1       5.660  28.895  55.308  1.00  0.00     0.162 HD
HETATM   19  O   UNL     1       7.245  27.735  57.786  1.00  0.00    -0.273 OA
BRANCH  17  20
HETATM   20  C   UNL     1       6.005  26.806  55.441  1.00  0.00     0.127 C 
BRANCH  20  21
HETATM   21  C   UNL     1       7.235  26.609  54.554  1.00  0.00     0.058 C 
BRANCH  21  22
HETATM   22  C   UNL     1       7.580  25.152  54.381  1.00  0.00    -0.057 A 
HETATM   23  C   UNL     1       7.995  24.387  55.476  1.00  0.00     0.010 A 
HETATM   24  C   UNL     1       8.337  23.043  55.307  1.00  0.00     0.037 A 
HETATM   25  C   UNL     1       8.274  22.442  54.048  1.00  0.00     0.068 A 
HETATM   26  C   UNL     1       7.862  23.203  52.953  1.00  0.00     0.037 A 
HETATM   27  C   UNL     1       7.519  24.549  53.120  1.00  0.00     0.010 A 
BRANCH  25  28
HETATM   28  O   UNL     1       8.638  21.125  54.023  1.00  0.00    -0.356 OA
HETATM   29  C   UNL     1       8.417  20.421  52.807  1.00  0.00     0.210 C 
ENDBRANCH  25  28
ENDBRANCH  21  22
ENDBRANCH  20  21
ENDBRANCH  17  20
ENDBRANCH   1  16
TORSDOF 9
ENDMDL
MODEL 10
REMARK VINA RESULT:      -8.3      1.676      1.905
REMARK  9 active torsions:
REMARK  status: ('A' for Active; 'I' for Inactive)
REMARK    1  A    between atoms: C_2  and  N_3 
REMARK    2  A    between atoms: C_4  and  S_5 
REMARK    3  A    between atoms: S_5  and  C_6 
REMARK    4  A    between atoms: C_6  and  C_7 
REMARK       I    between atoms: C_7  and  N_8 
REMARK    5  A    between atoms: N_8  and  C_9 
REMARK    6  A    between atoms: C_9  and  C_10 
REMARK    7  A    between atoms: C_10  and  C_11 
REMARK    8  A    between atoms: C_14  and  O_15 
REMARK    9  A    between atoms: C_22  and  C_23 
ROOT
HETATM    1  C   UNL     1       5.016  29.532  57.375  1.00  0.00     0.185 C 
ENDROOT
BRANCH   1   2
HETATM    2  S   UNL     1       5.664  29.218  55.707  1.00  0.00    -0.081 SA
BRANCH   2   3
HETATM    3  C   UNL     1       6.000  27.527  55.839  1.00  0.00     0.192 A 
HETATM    4  N   UNL     1       6.795  26.820  54.972  1.00  0.00    -0.308 N 
HETATM    5  C   UNL     1       6.761  25.511  55.423  1.00  0.00     0.164 A 
HETATM    6  N   UNL     1       5.992  25.474  56.501  1.00  0.00    -0.128 NA
HETATM    7  N   UNL     1       5.527  26.733  56.765  1.00  0.00    -0.122 NA
BRANCH   4   8
HETATM    8  C   UNL     1       7.417  27.334  53.769  1.00  0.00     0.128 C 
HETATM    9  C   UNL     1       6.478  27.337  52.571  1.00  0.00     0.027 C 
ENDBRANCH   4   8
BRANCH   5  10
HETATM   10  C   UNL     1       7.372  24.317  54.821  1.00  0.00     0.012 A 
HETATM   11  C   UNL     1       8.438  23.699  55.497  1.00  0.00     0.015 A 
HETATM   12  C   UNL     1       9.074  22.572  54.970  1.00  0.00     0.001 A 
HETATM   13  C   UNL     1       8.655  22.045  53.752  1.00  0.00     0.000 A 
HETATM   14  C   UNL     1       7.614  22.655  53.058  1.00  0.00     0.001 A 
HETATM   15  C   UNL     1       6.985  23.790  53.584  1.00  0.00     0.015 A 
ENDBRANCH   5  10
ENDBRANCH   2   3
ENDBRANCH   1   2
BRANCH   1  16
HETATM   16  C   UNL     1       5.755  30.709  57.988  1.00  0.00     0.227 C 
HETATM   17  N   UNL     1       6.949  30.377  58.603  1.00  0.00    -0.360 N 
HETATM   18  H   UNL     1       7.359  29.480  58.376  1.00  0.00     0.162 HD
HETATM   19  O   UNL     1       5.321  31.858  57.946  1.00  0.00    -0.273 OA
BRANCH  17  20
HETATM   20  C   UNL     1       7.828  31.407  59.131  1.00  0.00     0.127 C 
BRANCH  20  21
HETATM   21  C   UNL     1       8.313  31.068  60.541  1.00  0.00     0.058 C 
BRANCH  21  22
HETATM   22  C   UNL     1       7.768  32.024  61.571  1.00  0.00    -0.057 A 
HETATM   23  C   UNL     1       8.299  32.051  62.865  1.00  0.00     0.010 A 
HETATM   24  C   UNL     1       7.775  32.922  63.823  1.00  0.00     0.037 A 
HETATM   25  C   UNL     1       6.714  33.775  63.510  1.00  0.00     0.068 A 
HETATM   26  C   UNL     1       6.180  33.749  62.221  1.00  0.00     0.037 A 
HETATM   27  C   UNL     1       6.704  32.878  61.259  1.00  0.00     0.010 A 
BRANCH  25  28
HETATM   28  O   UNL     1       6.296  34.571  64.539  1.00  0.00    -0.356 OA
HETATM   29  C   UNL     1       5.735  33.917  65.670  1.00  0.00     0.210 C 
ENDBRANCH  25  28
ENDBRANCH  21  22
ENDBRANCH  20  21
ENDBRANCH  17  20
ENDBRANCH   1  16
TORSDOF 9
ENDMDL
