MODEL 1
REMARK VINA RESULT:      -8.9      0.000      0.000
REMARK  6 active torsions:
REMARK  status: ('A' for Active; 'I' for Inactive)
REMARK    1  A    between atoms: C_2  and  N_3 
REMARK    2  A    between atoms: C_2  and  C_21 
REMARK       I    between atoms: N_3  and  C_4 
REMARK       I    between atoms: C_4  and  N_5 
REMARK    3  A    between atoms: N_5  and  C_6 
REMARK    4  A    between atoms: C_6  and  C_7 
REMARK    5  A    between atoms: C_10  and  O_11 
REMARK    6  A    between atoms: O_11  and  C_12 
ROOT
HETATM    1  N   UNL     1       9.015  29.852  56.574  1.00  0.00    -0.332 N 
HETATM    2  C   UNL     1       7.949  29.024  56.398  1.00  0.00     0.317 C 
HETATM    3  N   UNL     1       7.299  29.281  55.222  1.00  0.00    -0.339 N 
HETATM    4  O   UNL     1       7.607  28.163  57.197  1.00  0.00    -0.247 OA
HETATM    5  H   UNL     1       9.407  30.325  55.771  1.00  0.00     0.165 HD
HETATM    6  H   UNL     1       7.387  30.224  54.877  1.00  0.00     0.164 HD
ENDROOT
BRANCH   3   7
HETATM    7  C   UNL     1       6.060  28.598  54.935  1.00  0.00     0.162 C 
BRANCH   7   8
HETATM    8  C   UNL     1       6.313  27.170  54.536  1.00  0.00    -0.040 A 
HETATM    9  C   UNL     1       5.610  26.124  55.146  1.00  0.00     0.011 A 
HETATM   10  C   UNL     1       5.852  24.791  54.785  1.00  0.00     0.037 A 
HETATM   11  C   UNL     1       6.809  24.489  53.819  1.00  0.00     0.069 A 
HETATM   12  C   UNL     1       7.524  25.531  53.223  1.00  0.00     0.037 A 
HETATM   13  C   UNL     1       7.283  26.860  53.576  1.00  0.00     0.011 A 
BRANCH  11  14
HETATM   14  O   UNL     1       7.147  23.245  53.367  1.00  0.00    -0.346 OA
BRANCH  14  15
HETATM   15  C   UNL     1       8.495  22.782  53.507  1.00  0.00     0.129 C 
HETATM   16  C   UNL     1       8.897  22.717  54.988  1.00  0.00     0.032 C 
HETATM   17  C   UNL     1       8.064  21.700  55.769  1.00  0.00     0.002 C 
HETATM   18  C   UNL     1       8.126  20.316  55.131  1.00  0.00     0.000 C 
HETATM   19  C   UNL     1       7.732  20.355  53.659  1.00  0.00     0.002 C 
HETATM   20  C   UNL     1       8.559  21.380  52.881  1.00  0.00     0.032 C 
ENDBRANCH  14  15
ENDBRANCH  11  14
ENDBRANCH   7   8
ENDBRANCH   3   7
BRANCH   1  21
HETATM   21  C   UNL     1       9.889  29.759  57.737  1.00  0.00     0.155 C 
HETATM   22  C   UNL     1      11.329  30.130  57.386  1.00  0.00     0.041 C 
BRANCH  21  23
HETATM   23  C   UNL     1       9.345  30.664  58.810  1.00  0.00     0.169 A 
HETATM   24  N   UNL     1       9.557  31.994  58.832  1.00  0.00    -0.156 NA
HETATM   25  N   UNL     1       8.891  32.353  59.941  1.00  0.00    -0.270 N 
HETATM   26  H   UNL     1       8.872  33.328  60.220  1.00  0.00     0.190 HD
HETATM   27  C   UNL     1       8.316  31.280  60.541  1.00  0.00     0.227 A 
HETATM   28  N   UNL     1       8.585  30.195  59.855  1.00  0.00    -0.223 NA
ENDBRANCH  21  23
ENDBRANCH   1  21
TORSDOF 6
ENDMDL
MODEL 2
REMARK VINA RESULT:      -8.7      1.740      2.540
REMARK  6 active torsions:
REMARK  status: ('A' for Active; 'I' for Inactive)
REMARK    1  A    between atoms: C_2  and  N_3 
REMARK    2  A    between atoms: C_2  and  C_21 
REMARK       I    between atoms: N_3  and  C_4 
REMARK       I    between atoms: C_4  and  N_5 
REMARK    3  A    between atoms: N_5  and  C_6 
REMARK    4  A    between atoms: C_6  and  C_7 
REMARK    5  A    between atoms: C_10  and  O_11 
REMARK    6  A    between atoms: O_11  and  C_12 
ROOT
HETATM    1  N   UNL     1       6.101  30.410  58.635  1.00  0.00    -0.332 N 
HETATM    2  C   UNL     1       5.542  30.113  57.430  1.00  0.00     0.317 C 
HETATM    3  N   UNL     1       4.878  28.917  57.462  1.00  0.00    -0.339 N 
HETATM    4  O   UNL     1       5.631  30.822  56.437  1.00  0.00    -0.247 OA
HETATM    5  H   UNL     1       5.756  29.947  59.464  1.00  0.00     0.165 HD
HETATM    6  H   UNL     1       5.213  28.256  58.146  1.00  0.00     0.164 HD
ENDROOT
BRANCH   3   7
HETATM    7  C   UNL     1       4.346  28.370  56.237  1.00  0.00     0.162 C 
BRANCH   7   8
HETATM    8  C   UNL     1       5.041  27.087  55.874  1.00  0.00    -0.040 A 
HETATM    9  C   UNL     1       5.281  26.760  54.534  1.00  0.00     0.011 A 
HETATM   10  C   UNL     1       5.917  25.558  54.192  1.00  0.00     0.037 A 
HETATM   11  C   UNL     1       6.308  24.664  55.187  1.00  0.00     0.069 A 
HETATM   12  C   UNL     1       6.053  24.980  56.522  1.00  0.00     0.037 A 
HETATM   13  C   UNL     1       5.423  26.178  56.868  1.00  0.00     0.011 A 
BRANCH  11  14
HETATM   14  O   UNL     1       6.937  23.465  55.004  1.00  0.00    -0.346 OA
BRANCH  14  15
HETATM   15  C   UNL     1       8.264  23.436  54.466  1.00  0.00     0.129 C 
HETATM   16  C   UNL     1       9.211  22.663  55.396  1.00  0.00     0.032 C 
HETATM   17  C   UNL     1       8.821  21.191  55.524  1.00  0.00     0.002 C 
HETATM   18  C   UNL     1       8.732  20.513  54.160  1.00  0.00     0.000 C 
HETATM   19  C   UNL     1       7.798  21.263  53.218  1.00  0.00     0.002 C 
HETATM   20  C   UNL     1       8.183  22.738  53.098  1.00  0.00     0.032 C 
ENDBRANCH  14  15
ENDBRANCH  11  14
ENDBRANCH   7   8
ENDBRANCH   3   7
BRANCH   1  21
HETATM   21  C   UNL     1       6.838  31.647  58.867  1.00  0.00     0.155 C 
HETATM   22  C   UNL     1       6.538  32.226  60.249  1.00  0.00     0.041 C 
BRANCH  21  23
HETATM   23  C   UNL     1       8.307  31.358  58.710  1.00  0.00     0.169 A 
HETATM   24  N   UNL     1       9.271  32.244  59.026  1.00  0.00    -0.156 NA
HETATM   25  N   UNL     1      10.381  31.550  58.727  1.00  0.00    -0.270 N 
HETATM   26  H   UNL     1      11.291  31.975  58.868  1.00  0.00     0.190 HD
HETATM   27  C   UNL     1      10.078  30.313  58.256  1.00  0.00     0.227 A 
HETATM   28  N   UNL     1       8.776  30.159  58.229  1.00  0.00    -0.223 NA
ENDBRANCH  21  23
ENDBRANCH   1  21
TORSDOF 6
ENDMDL
MODEL 3
REMARK VINA RESULT:      -8.5      3.137      8.678
REMARK  6 active torsions:
REMARK  status: ('A' for Active; 'I' for Inactive)
REMARK    1  A    between atoms: C_2  and  N_3 
REMARK    2  A    between atoms: C_2  and  C_21 
REMARK       I    between atoms: N_3  and  C_4 
REMARK       I    between atoms: C_4  and  N_5 
REMARK    3  A    between atoms: N_5  and  C_6 
REMARK    4  A    between atoms: C_6  and  C_7 
REMARK    5  A    between atoms: C_10  and  O_11 
REMARK    6  A    between atoms: O_11  and  C_12 
ROOT
HETATM    1  N   UNL     1       7.716  24.752  54.091  1.00  0.00    -0.332 N 
HETATM    2  C   UNL     1       6.867  25.809  54.221  1.00  0.00     0.317 C 
HETATM    3  N   UNL     1       7.524  27.003  54.100  1.00  0.00    -0.339 N 
HETATM    4  O   UNL     1       5.667  25.705  54.434  1.00  0.00    -0.247 OA
HETATM    5  H   UNL     1       8.609  24.893  53.640  1.00  0.00     0.165 HD
HETATM    6  H   UNL     1       8.501  26.985  54.349  1.00  0.00     0.164 HD
ENDROOT
BRANCH   3   7
HETATM    7  C   UNL     1       6.811  28.232  54.354  1.00  0.00     0.162 C 
BRANCH   7   8
HETATM    8  C   UNL     1       7.151  28.779  55.713  1.00  0.00    -0.040 A 
HETATM    9  C   UNL     1       8.378  28.478  56.317  1.00  0.00     0.011 A 
HETATM   10  C   UNL     1       8.693  28.976  57.588  1.00  0.00     0.037 A 
HETATM   11  C   UNL     1       7.779  29.772  58.276  1.00  0.00     0.069 A 
HETATM   12  C   UNL     1       6.548  30.058  57.683  1.00  0.00     0.037 A 
HETATM   13  C   UNL     1       6.231  29.567  56.414  1.00  0.00     0.011 A 
BRANCH  11  14
HETATM   14  O   UNL     1       7.950  30.327  59.512  1.00  0.00    -0.346 OA
BRANCH  14  15
HETATM   15  C   UNL     1       7.844  31.747  59.672  1.00  0.00     0.129 C 
HETATM   16  C   UNL     1       6.795  32.097  60.737  1.00  0.00     0.032 C 
HETATM   17  C   UNL     1       7.186  31.588  62.125  1.00  0.00     0.002 C 
HETATM   18  C   UNL     1       8.566  32.092  62.539  1.00  0.00     0.000 C 
HETATM   19  C   UNL     1       9.625  31.756  61.495  1.00  0.00     0.002 C 
HETATM   20  C   UNL     1       9.228  32.257  60.106  1.00  0.00     0.032 C 
ENDBRANCH  14  15
ENDBRANCH  11  14
ENDBRANCH   7   8
ENDBRANCH   3   7
BRANCH   1  21
HETATM   21  C   UNL     1       7.254  23.371  54.152  1.00  0.00     0.155 C 
HETATM   22  C   UNL     1       7.757  22.560  52.959  1.00  0.00     0.041 C 
BRANCH  21  23
HETATM   23  C   UNL     1       7.726  22.772  55.450  1.00  0.00     0.169 A 
HETATM   24  N   UNL     1       7.920  23.497  56.569  1.00  0.00    -0.156 NA
HETATM   25  N   UNL     1       8.323  22.551  57.434  1.00  0.00    -0.270 N 
HETATM   26  H   UNL     1       8.548  22.810  58.388  1.00  0.00     0.190 HD
HETATM   27  C   UNL     1       8.364  21.329  56.845  1.00  0.00     0.227 A 
HETATM   28  N   UNL     1       7.996  21.432  55.590  1.00  0.00    -0.223 NA
ENDBRANCH  21  23
ENDBRANCH   1  21
TORSDOF 6
ENDMDL
MODEL 4
REMARK VINA RESULT:      -8.3      3.305      5.878
REMARK  6 active torsions:
REMARK  status: ('A' for Active; 'I' for Inactive)
REMARK    1  A    between atoms: C_2  and  N_3 
REMARK    2  A    between atoms: C_2  and  C_21 
REMARK       I    between atoms: N_3  and  C_4 
REMARK       I    between atoms: C_4  and  N_5 
REMARK    3  A    between atoms: N_5  and  C_6 
REMARK    4  A    between atoms: C_6  and  C_7 
REMARK    5  A    between atoms: C_10  and  O_11 
REMARK    6  A    between atoms: O_11  and  C_12 
ROOT
HETATM    1  N   UNL     1       7.271  32.583  61.749  1.00  0.00    -0.332 N 
HETATM    2  C   UNL     1       8.434  32.076  61.254  1.00  0.00     0.317 C 
HETATM    3  N   UNL     1       8.591  32.374  59.928  1.00  0.00    -0.339 N 
HETATM    4  O   UNL     1       9.235  31.425  61.910  1.00  0.00    -0.247 OA
HETATM    5  H   UNL     1       6.812  33.334  61.252  1.00  0.00     0.165 HD
HETATM    6  H   UNL     1       7.735  32.521  59.414  1.00  0.00     0.164 HD
ENDROOT
BRANCH   3   7
HETATM    7  C   UNL     1       9.695  31.796  59.199  1.00  0.00     0.162 C 
BRANCH   7   8
HETATM    8  C   UNL     1       9.272  30.537  58.493  1.00  0.00    -0.040 A 
HETATM    9  C   UNL     1      10.107  29.939  57.540  1.00  0.00     0.011 A 
HETATM   10  C   UNL     1       9.711  28.773  56.872  1.00  0.00     0.037 A 
HETATM   11  C   UNL     1       8.471  28.198  57.139  1.00  0.00     0.069 A 
HETATM   12  C   UNL     1       7.630  28.802  58.076  1.00  0.00     0.037 A 
HETATM   13  C   UNL     1       8.022  29.963  58.747  1.00  0.00     0.011 A 
BRANCH  11  14
HETATM   14  O   UNL     1       7.957  27.067  56.571  1.00  0.00    -0.346 OA
BRANCH  14  15
HETATM   15  C   UNL     1       7.349  26.069  57.401  1.00  0.00     0.129 C 
HETATM   16  C   UNL     1       6.125  25.457  56.706  1.00  0.00     0.032 C 
HETATM   17  C   UNL     1       6.500  24.708  55.427  1.00  0.00     0.002 C 
HETATM   18  C   UNL     1       7.561  23.643  55.691  1.00  0.00     0.000 C 
HETATM   19  C   UNL     1       8.787  24.229  56.381  1.00  0.00     0.002 C 
HETATM   20  C   UNL     1       8.409  24.986  57.655  1.00  0.00     0.032 C 
ENDBRANCH  14  15
ENDBRANCH  11  14
ENDBRANCH   7   8
ENDBRANCH   3   7
BRANCH   1  21
HETATM   21  C   UNL     1       6.887  32.427  63.147  1.00  0.00     0.155 C 
HETATM   22  C   UNL     1       7.874  33.126  64.079  1.00  0.00     0.041 C 
BRANCH  21  23
HETATM   23  C   UNL     1       5.497  32.980  63.319  1.00  0.00     0.169 A 
HETATM   24  N   UNL     1       4.786  32.846  64.455  1.00  0.00    -0.156 NA
HETATM   25  N   UNL     1       3.649  33.486  64.136  1.00  0.00    -0.270 N 
HETATM   26  H   UNL     1       2.903  33.551  64.819  1.00  0.00     0.190 HD
HETATM   27  C   UNL     1       3.694  33.971  62.868  1.00  0.00     0.227 A 
HETATM   28  N   UNL     1       4.846  33.666  62.321  1.00  0.00    -0.223 NA
ENDBRANCH  21  23
ENDBRANCH   1  21
TORSDOF 6
ENDMDL
MODEL 5
REMARK VINA RESULT:      -8.1      2.756      4.719
REMARK  6 active torsions:
REMARK  status: ('A' for Active; 'I' for Inactive)
REMARK    1  A    between atoms: C_2  and  N_3 
REMARK    2  A    between atoms: C_2  and  C_21 
REMARK       I    between atoms: N_3  and  C_4 
REMARK       I    between atoms: C_4  and  N_5 
REMARK    3  A    between atoms: N_5  and  C_6 
REMARK    4  A    between atoms: C_6  and  C_7 
REMARK    5  A    between atoms: C_10  and  O_11 
REMARK    6  A    between atoms: O_11  and  C_12 
ROOT
HETATM    1  N   UNL     1       6.776  31.512  61.010  1.00  0.00    -0.332 N 
HETATM    2  C   UNL     1       7.466  31.453  59.837  1.00  0.00     0.317 C 
HETATM    3  N   UNL     1       8.019  30.217  59.639  1.00  0.00    -0.339 N 
HETATM    4  O   UNL     1       7.587  32.391  59.062  1.00  0.00    -0.247 OA
HETATM    5  H   UNL     1       6.476  30.652  61.446  1.00  0.00     0.165 HD
HETATM    6  H   UNL     1       8.217  29.693  60.477  1.00  0.00     0.164 HD
ENDROOT
BRANCH   3   7
HETATM    7  C   UNL     1       8.907  30.012  58.519  1.00  0.00     0.162 C 
BRANCH   7   8
HETATM    8  C   UNL     1       8.270  29.124  57.485  1.00  0.00    -0.040 A 
HETATM    9  C   UNL     1       7.308  28.175  57.854  1.00  0.00     0.011 A 
HETATM   10  C   UNL     1       6.723  27.338  56.894  1.00  0.00     0.037 A 
HETATM   11  C   UNL     1       7.102  27.431  55.557  1.00  0.00     0.069 A 
HETATM   12  C   UNL     1       8.074  28.364  55.191  1.00  0.00     0.037 A 
HETATM   13  C   UNL     1       8.657  29.203  56.143  1.00  0.00     0.011 A 
BRANCH  11  14
HETATM   14  O   UNL     1       6.617  26.688  54.518  1.00  0.00    -0.346 OA
BRANCH  14  15
HETATM   15  C   UNL     1       5.964  25.441  54.783  1.00  0.00     0.129 C 
HETATM   16  C   UNL     1       5.253  24.922  53.525  1.00  0.00     0.032 C 
HETATM   17  C   UNL     1       6.233  24.604  52.396  1.00  0.00     0.002 C 
HETATM   18  C   UNL     1       7.313  23.625  52.850  1.00  0.00     0.000 C 
HETATM   19  C   UNL     1       8.033  24.120  54.099  1.00  0.00     0.002 C 
HETATM   20  C   UNL     1       7.050  24.447  55.224  1.00  0.00     0.032 C 
ENDBRANCH  14  15
ENDBRANCH  11  14
ENDBRANCH   7   8
ENDBRANCH   3   7
BRANCH   1  21
HETATM   21  C   UNL     1       6.069  32.714  61.437  1.00  0.00     0.155 C 
HETATM   22  C   UNL     1       4.555  32.516  61.397  1.00  0.00     0.041 C 
BRANCH  21  23
HETATM   23  C   UNL     1       6.532  33.066  62.826  1.00  0.00     0.169 A 
HETATM   24  N   UNL     1       7.752  32.744  63.300  1.00  0.00    -0.156 NA
HETATM   25  N   UNL     1       7.700  33.257  64.540  1.00  0.00    -0.270 N 
HETATM   26  H   UNL     1       8.502  33.167  65.153  1.00  0.00     0.190 HD
HETATM   27  C   UNL     1       6.502  33.851  64.779  1.00  0.00     0.227 A 
HETATM   28  N   UNL     1       5.739  33.745  63.718  1.00  0.00    -0.223 NA
ENDBRANCH  21  23
ENDBRANCH   1  21
TORSDOF 6
ENDMDL
MODEL 6
REMARK VINA RESULT:      -8.0      4.531     11.285
REMARK  6 active torsions:
REMARK  status: ('A' for Active; 'I' for Inactive)
REMARK    1  A    between atoms: C_2  and  N_3 
REMARK    2  A    between atoms: C_2  and  C_21 
REMARK       I    between atoms: N_3  and  C_4 
REMARK       I    between atoms: C_4  and  N_5 
REMARK    3  A    between atoms: N_5  and  C_6 
REMARK    4  A    between atoms: C_6  and  C_7 
REMARK    5  A    between atoms: C_10  and  O_11 
REMARK    6  A    between atoms: O_11  and  C_12 
ROOT
HETATM    1  N   UNL     1       7.768  28.399  58.112  1.00  0.00    -0.332 N 
HETATM    2  C   UNL     1       8.386  29.563  58.455  1.00  0.00     0.317 C 
HETATM    3  N   UNL     1       7.719  30.211  59.459  1.00  0.00    -0.339 N 
HETATM    4  O   UNL     1       9.403  29.984  57.923  1.00  0.00    -0.247 OA
HETATM    5  H   UNL     1       7.122  27.976  58.763  1.00  0.00     0.165 HD
HETATM    6  H   UNL     1       6.731  30.018  59.517  1.00  0.00     0.164 HD
ENDROOT
BRANCH   3   7
HETATM    7  C   UNL     1       8.147  31.533  59.853  1.00  0.00     0.162 C 
BRANCH   7   8
HETATM    8  C   UNL     1       7.479  31.954  61.133  1.00  0.00    -0.040 A 
HETATM    9  C   UNL     1       6.114  32.266  61.156  1.00  0.00     0.011 A 
HETATM   10  C   UNL     1       5.492  32.671  62.345  1.00  0.00     0.037 A 
HETATM   11  C   UNL     1       6.230  32.781  63.521  1.00  0.00     0.069 A 
HETATM   12  C   UNL     1       7.595  32.488  63.496  1.00  0.00     0.037 A 
HETATM   13  C   UNL     1       8.219  32.080  62.315  1.00  0.00     0.011 A 
BRANCH  11  14
HETATM   14  O   UNL     1       5.759  33.157  64.747  1.00  0.00    -0.346 OA
BRANCH  14  15
HETATM   15  C   UNL     1       6.095  34.448  65.270  1.00  0.00     0.129 C 
HETATM   16  C   UNL     1       5.202  35.534  64.652  1.00  0.00     0.032 C 
HETATM   17  C   UNL     1       3.730  35.349  65.019  1.00  0.00     0.002 C 
HETATM   18  C   UNL     1       3.532  35.281  66.530  1.00  0.00     0.000 C 
HETATM   19  C   UNL     1       4.409  34.209  67.166  1.00  0.00     0.002 C 
HETATM   20  C   UNL     1       5.881  34.390  66.791  1.00  0.00     0.032 C 
ENDBRANCH  14  15
ENDBRANCH  11  14
ENDBRANCH   7   8
ENDBRANCH   3   7
BRANCH   1  21
HETATM   21  C   UNL     1       8.299  27.510  57.086  1.00  0.00     0.155 C 
HETATM   22  C   UNL     1       8.059  26.043  57.439  1.00  0.00     0.041 C 
BRANCH  21  23
HETATM   23  C   UNL     1       7.651  27.862  55.774  1.00  0.00     0.169 A 
HETATM   24  N   UNL     1       8.264  28.591  54.821  1.00  0.00    -0.156 NA
HETATM   25  N   UNL     1       7.318  28.635  53.868  1.00  0.00    -0.270 N 
HETATM   26  H   UNL     1       7.502  29.130  53.003  1.00  0.00     0.190 HD
HETATM   27  C   UNL     1       6.202  27.962  54.249  1.00  0.00     0.227 A 
HETATM   28  N   UNL     1       6.376  27.464  55.449  1.00  0.00    -0.223 NA
ENDBRANCH  21  23
ENDBRANCH   1  21
TORSDOF 6
ENDMDL
MODEL 7
REMARK VINA RESULT:      -7.9      5.410      8.121
REMARK  6 active torsions:
REMARK  status: ('A' for Active; 'I' for Inactive)
REMARK    1  A    between atoms: C_2  and  N_3 
REMARK    2  A    between atoms: C_2  and  C_21 
REMARK       I    between atoms: N_3  and  C_4 
REMARK       I    between atoms: C_4  and  N_5 
REMARK    3  A    between atoms: N_5  and  C_6 
REMARK    4  A    between atoms: C_6  and  C_7 
REMARK    5  A    between atoms: C_10  and  O_11 
REMARK    6  A    between atoms: O_11  and  C_12 
ROOT
HETATM    1  N   UNL     1       2.736  27.867  49.533  1.00  0.00    -0.332 N 
HETATM    2  C   UNL     1       4.005  27.983  50.014  1.00  0.00     0.317 C 
HETATM    3  N   UNL     1       4.038  27.885  51.379  1.00  0.00    -0.339 N 
HETATM    4  O   UNL     1       4.991  28.164  49.315  1.00  0.00    -0.247 OA
HETATM    5  H   UNL     1       2.028  27.439  50.114  1.00  0.00     0.165 HD
HETATM    6  H   UNL     1       3.191  28.159  51.852  1.00  0.00     0.164 HD
ENDROOT
BRANCH   3   7
HETATM    7  C   UNL     1       5.279  28.129  52.075  1.00  0.00     0.162 C 
BRANCH   7   8
HETATM    8  C   UNL     1       5.772  26.879  52.750  1.00  0.00    -0.040 A 
HETATM    9  C   UNL     1       7.036  26.844  53.353  1.00  0.00     0.011 A 
HETATM   10  C   UNL     1       7.503  25.677  53.971  1.00  0.00     0.037 A 
HETATM   11  C   UNL     1       6.717  24.526  53.983  1.00  0.00     0.069 A 
HETATM   12  C   UNL     1       5.464  24.554  53.367  1.00  0.00     0.037 A 
HETATM   13  C   UNL     1       4.993  25.716  52.753  1.00  0.00     0.011 A 
BRANCH  11  14
HETATM   14  O   UNL     1       7.039  23.325  54.548  1.00  0.00    -0.346 OA
BRANCH  14  15
HETATM   15  C   UNL     1       8.412  23.004  54.798  1.00  0.00     0.129 C 
HETATM   16  C   UNL     1       8.552  22.179  56.085  1.00  0.00     0.032 C 
HETATM   17  C   UNL     1       7.859  20.821  55.980  1.00  0.00     0.002 C 
HETATM   18  C   UNL     1       8.356  20.029  54.774  1.00  0.00     0.000 C 
HETATM   19  C   UNL     1       8.228  20.829  53.483  1.00  0.00     0.002 C 
HETATM   20  C   UNL     1       8.913  22.192  53.593  1.00  0.00     0.032 C 
ENDBRANCH  14  15
ENDBRANCH  11  14
ENDBRANCH   7   8
ENDBRANCH   3   7
BRANCH   1  21
HETATM   21  C   UNL     1       2.438  27.907  48.107  1.00  0.00     0.155 C 
HETATM   22  C   UNL     1       1.279  26.979  47.751  1.00  0.00     0.041 C 
BRANCH  21  23
HETATM   23  C   UNL     1       2.125  29.331  47.730  1.00  0.00     0.169 A 
HETATM   24  N   UNL     1       1.211  30.081  48.377  1.00  0.00    -0.156 NA
HETATM   25  N   UNL     1       1.290  31.240  47.702  1.00  0.00    -0.270 N 
HETATM   26  H   UNL     1       0.700  32.018  47.973  1.00  0.00     0.190 HD
HETATM   27  C   UNL     1       2.209  31.168  46.704  1.00  0.00     0.227 A 
HETATM   28  N   UNL     1       2.753  29.975  46.691  1.00  0.00    -0.223 NA
ENDBRANCH  21  23
ENDBRANCH   1  21
TORSDOF 6
ENDMDL
MODEL 8
REMARK VINA RESULT:      -7.6      2.957      3.653
REMARK  6 active torsions:
REMARK  status: ('A' for Active; 'I' for Inactive)
REMARK    1  A    between atoms: C_2  and  N_3 
REMARK    2  A    between atoms: C_2  and  C_21 
REMARK       I    between atoms: N_3  and  C_4 
REMARK       I    between atoms: C_4  and  N_5 
REMARK    3  A    between atoms: N_5  and  C_6 
REMARK    4  A    between atoms: C_6  and  C_7 
REMARK    5  A    between atoms: C_10  and  O_11 
REMARK    6  A    between atoms: O_11  and  C_12 
ROOT
HETATM    1  N   UNL     1       5.752  30.992  57.293  1.00  0.00    -0.332 N 
HETATM    2  C   UNL     1       6.935  30.379  57.573  1.00  0.00     0.317 C 
HETATM    3  N   UNL     1       7.015  29.145  56.987  1.00  0.00    -0.339 N 
HETATM    4  O   UNL     1       7.813  30.866  58.271  1.00  0.00    -0.247 OA
HETATM    5  H   UNL     1       5.211  30.676  56.500  1.00  0.00     0.165 HD
HETATM    6  H   UNL     1       6.132  28.690  56.815  1.00  0.00     0.164 HD
ENDROOT
BRANCH   3   7
HETATM    7  C   UNL     1       8.137  28.289  57.293  1.00  0.00     0.162 C 
BRANCH   7   8
HETATM    8  C   UNL     1       7.895  26.889  56.800  1.00  0.00    -0.040 A 
HETATM    9  C   UNL     1       7.531  26.654  55.468  1.00  0.00     0.011 A 
HETATM   10  C   UNL     1       7.293  25.352  55.009  1.00  0.00     0.037 A 
HETATM   11  C   UNL     1       7.402  24.270  55.880  1.00  0.00     0.069 A 
HETATM   12  C   UNL     1       7.747  24.504  57.213  1.00  0.00     0.037 A 
HETATM   13  C   UNL     1       7.990  25.800  57.674  1.00  0.00     0.011 A 
BRANCH  11  14
HETATM   14  O   UNL     1       7.204  22.953  55.574  1.00  0.00    -0.346 OA
BRANCH  14  15
HETATM   15  C   UNL     1       8.211  21.989  55.904  1.00  0.00     0.129 C 
HETATM   16  C   UNL     1       7.729  20.568  55.582  1.00  0.00     0.032 C 
HETATM   17  C   UNL     1       7.486  20.364  54.087  1.00  0.00     0.002 C 
HETATM   18  C   UNL     1       8.722  20.714  53.264  1.00  0.00     0.000 C 
HETATM   19  C   UNL     1       9.220  22.123  53.567  1.00  0.00     0.002 C 
HETATM   20  C   UNL     1       9.454  22.328  55.065  1.00  0.00     0.032 C 
ENDBRANCH  14  15
ENDBRANCH  11  14
ENDBRANCH   7   8
ENDBRANCH   3   7
BRANCH   1  21
HETATM   21  C   UNL     1       5.435  32.330  57.777  1.00  0.00     0.155 C 
HETATM   22  C   UNL     1       4.554  33.089  56.786  1.00  0.00     0.041 C 
BRANCH  21  23
HETATM   23  C   UNL     1       4.756  32.200  59.114  1.00  0.00     0.169 A 
HETATM   24  N   UNL     1       5.406  32.338  60.287  1.00  0.00    -0.156 NA
HETATM   25  N   UNL     1       4.410  32.146  61.168  1.00  0.00    -0.270 N 
HETATM   26  H   UNL     1       4.605  32.194  62.162  1.00  0.00     0.190 HD
HETATM   27  C   UNL     1       3.232  31.906  60.537  1.00  0.00     0.227 A 
HETATM   28  N   UNL     1       3.415  31.929  59.238  1.00  0.00    -0.223 NA
ENDBRANCH  21  23
ENDBRANCH   1  21
TORSDOF 6
ENDMDL
MODEL 9
REMARK VINA RESULT:      -7.4      3.611      5.230
REMARK  6 active torsions:
REMARK  status: ('A' for Active; 'I' for Inactive)
REMARK    1  A    between atoms: C_2  and  N_3 
REMARK    2  A    between atoms: C_2  and  C_21 
REMARK       I    between atoms: N_3  and  C_4 
REMARK       I    between atoms: C_4  and  N_5 
REMARK    3  A    between atoms: N_5  and  C_6 
REMARK    4  A    between atoms: C_6  and  C_7 
REMARK    5  A    between atoms: C_10  and  O_11 
REMARK    6  A    between atoms: O_11  and  C_12 
ROOT
HETATM    1  N   UNL     1       7.812  30.191  58.307  1.00  0.00    -0.332 N 
HETATM    2  C   UNL     1       7.393  28.956  57.918  1.00  0.00     0.317 C 
HETATM    3  N   UNL     1       6.265  29.026  57.145  1.00  0.00    -0.339 N 
HETATM    4  O   UNL     1       7.946  27.911  58.230  1.00  0.00    -0.247 OA
HETATM    5  H   UNL     1       7.496  31.001  57.792  1.00  0.00     0.165 HD
HETATM    6  H   UNL     1       5.683  29.834  57.302  1.00  0.00     0.164 HD
ENDROOT
BRANCH   3   7
HETATM    7  C   UNL     1       5.594  27.806  56.762  1.00  0.00     0.162 C 
BRANCH   7   8
HETATM    8  C   UNL     1       5.177  27.854  55.318  1.00  0.00    -0.040 A 
HETATM    9  C   UNL     1       4.209  28.770  54.885  1.00  0.00     0.011 A 
HETATM   10  C   UNL     1       3.809  28.808  53.542  1.00  0.00     0.037 A 
HETATM   11  C   UNL     1       4.362  27.923  52.619  1.00  0.00     0.069 A 
HETATM   12  C   UNL     1       5.314  26.997  53.053  1.00  0.00     0.037 A 
HETATM   13  C   UNL     1       5.719  26.958  54.389  1.00  0.00     0.011 A 
BRANCH  11  14
HETATM   14  O   UNL     1       4.073  27.848  51.287  1.00  0.00    -0.346 OA
BRANCH  14  15
HETATM   15  C   UNL     1       5.081  27.417  50.365  1.00  0.00     0.129 C 
HETATM   16  C   UNL     1       4.531  26.335  49.425  1.00  0.00     0.032 C 
HETATM   17  C   UNL     1       3.405  26.862  48.534  1.00  0.00     0.002 C 
HETATM   18  C   UNL     1       3.842  28.093  47.746  1.00  0.00     0.000 C 
HETATM   19  C   UNL     1       4.394  29.181  48.660  1.00  0.00     0.002 C 
HETATM   20  C   UNL     1       5.513  28.651  49.557  1.00  0.00     0.032 C 
ENDBRANCH  14  15
ENDBRANCH  11  14
ENDBRANCH   7   8
ENDBRANCH   3   7
BRANCH   1  21
HETATM   21  C   UNL     1       9.010  30.387  59.114  1.00  0.00     0.155 C 
HETATM   22  C   UNL     1       9.848  31.556  58.598  1.00  0.00     0.041 C 
BRANCH  21  23
HETATM   23  C   UNL     1       8.586  30.615  60.541  1.00  0.00     0.169 A 
HETATM   24  N   UNL     1       9.219  30.065  61.595  1.00  0.00    -0.156 NA
HETATM   25  N   UNL     1       8.500  30.549  62.621  1.00  0.00    -0.270 N 
HETATM   26  H   UNL     1       8.752  30.298  63.571  1.00  0.00     0.190 HD
HETATM   27  C   UNL     1       7.492  31.346  62.184  1.00  0.00     0.227 A 
HETATM   28  N   UNL     1       7.514  31.408  60.875  1.00  0.00    -0.223 NA
ENDBRANCH  21  23
ENDBRANCH   1  21
TORSDOF 6
ENDMDL
MODEL 10
REMARK VINA RESULT:      -7.4      3.171      9.950
REMARK  6 active torsions:
REMARK  status: ('A' for Active; 'I' for Inactive)
REMARK    1  A    between atoms: C_2  and  N_3 
REMARK    2  A    between atoms: C_2  and  C_21 
REMARK       I    between atoms: N_3  and  C_4 
REMARK       I    between atoms: C_4  and  N_5 
REMARK    3  A    between atoms: N_5  and  C_6 
REMARK    4  A    between atoms: C_6  and  C_7 
REMARK    5  A    between atoms: C_10  and  O_11 
REMARK    6  A    between atoms: O_11  and  C_12 
ROOT
HETATM    1  N   UNL     1       7.325  27.537  55.660  1.00  0.00    -0.332 N 
HETATM    2  C   UNL     1       8.193  28.002  56.601  1.00  0.00     0.317 C 
HETATM    3  N   UNL     1       8.404  29.347  56.473  1.00  0.00    -0.339 N 
HETATM    4  O   UNL     1       8.727  27.301  57.449  1.00  0.00    -0.247 OA
HETATM    5  H   UNL     1       6.713  28.191  55.192  1.00  0.00     0.165 HD
HETATM    6  H   UNL     1       8.273  29.719  55.544  1.00  0.00     0.164 HD
ENDROOT
BRANCH   3   7
HETATM    7  C   UNL     1       9.406  29.987  57.292  1.00  0.00     0.162 C 
BRANCH   7   8
HETATM    8  C   UNL     1       8.771  30.718  58.444  1.00  0.00    -0.040 A 
HETATM    9  C   UNL     1       7.411  31.053  58.413  1.00  0.00     0.011 A 
HETATM   10  C   UNL     1       6.820  31.745  59.479  1.00  0.00     0.037 A 
HETATM   11  C   UNL     1       7.584  32.120  60.582  1.00  0.00     0.069 A 
HETATM   12  C   UNL     1       8.944  31.802  60.605  1.00  0.00     0.037 A 
HETATM   13  C   UNL     1       9.537  31.110  59.547  1.00  0.00     0.011 A 
BRANCH  11  14
HETATM   14  O   UNL     1       7.145  32.790  61.688  1.00  0.00    -0.346 OA
BRANCH  14  15
HETATM   15  C   UNL     1       6.980  32.086  62.925  1.00  0.00     0.129 C 
HETATM   16  C   UNL     1       7.645  32.851  64.078  1.00  0.00     0.032 C 
HETATM   17  C   UNL     1       6.989  34.209  64.326  1.00  0.00     0.002 C 
HETATM   18  C   UNL     1       5.487  34.072  64.562  1.00  0.00     0.000 C 
HETATM   19  C   UNL     1       4.805  33.315  63.429  1.00  0.00     0.002 C 
HETATM   20  C   UNL     1       5.469  31.961  63.176  1.00  0.00     0.032 C 
ENDBRANCH  14  15
ENDBRANCH  11  14
ENDBRANCH   7   8
ENDBRANCH   3   7
BRANCH   1  21
HETATM   21  C   UNL     1       6.914  26.140  55.603  1.00  0.00     0.155 C 
HETATM   22  C   UNL     1       5.616  25.907  56.374  1.00  0.00     0.041 C 
BRANCH  21  23
HETATM   23  C   UNL     1       6.760  25.751  54.157  1.00  0.00     0.169 A 
HETATM   24  N   UNL     1       7.786  25.737  53.284  1.00  0.00    -0.156 NA
HETATM   25  N   UNL     1       7.175  25.333  52.159  1.00  0.00    -0.270 N 
HETATM   26  H   UNL     1       7.714  25.226  51.307  1.00  0.00     0.190 HD
HETATM   27  C   UNL     1       5.850  25.121  52.366  1.00  0.00     0.227 A 
HETATM   28  N   UNL     1       5.553  25.379  53.617  1.00  0.00    -0.223 NA
ENDBRANCH  21  23
ENDBRANCH   1  21
TORSDOF 6
ENDMDL
