MODEL 1
REMARK VINA RESULT:      -9.1      0.000      0.000
REMARK  3 active torsions:
REMARK  status: ('A' for Active; 'I' for Inactive)
REMARK    1  A    between atoms: C_3  and  N_4 
REMARK       I    between atoms: N_4  and  C_5 
REMARK    2  A    between atoms: C_5  and  C_6 
REMARK    3  A    between atoms: C_6  and  C_7 
ROOT
HETATM    1  C   UNL     1       5.271  26.548  51.586  1.00  0.00     0.286 C 
HETATM    2  N   UNL     1       4.455  25.729  50.576  1.00  0.00    -0.056 N 
HETATM    3  H   UNL     1       4.950  24.834  50.396  1.00  0.00     0.278 HD
HETATM    4  H   UNL     1       3.544  25.485  50.984  1.00  0.00     0.278 HD
HETATM    5  C   UNL     1       4.270  26.383  49.229  1.00  0.00     0.209 C 
HETATM    6  C   UNL     1       3.757  27.822  49.426  1.00  0.00     0.115 C 
HETATM    7  N   UNL     1       4.670  28.585  50.260  1.00  0.00    -0.353 N 
HETATM    8  C   UNL     1       5.385  28.060  51.299  1.00  0.00     0.249 C 
HETATM    9  O   UNL     1       6.123  28.787  51.957  1.00  0.00    -0.271 OA
HETATM   10  C   UNL     1       3.308  25.558  48.383  1.00  0.00     0.035 C 
HETATM   11  C   UNL     1       3.109  26.221  47.021  1.00  0.00     0.002 C 
HETATM   12  C   UNL     1       2.655  27.675  47.153  1.00  0.00     0.002 C 
HETATM   13  C   UNL     1       3.571  28.495  48.063  1.00  0.00     0.027 C 
HETATM   14  H   UNL     1       4.708  29.600  50.178  1.00  0.00     0.163 HD
ENDROOT
BRANCH   1  15
HETATM   15  C   UNL     1       6.666  25.953  51.817  1.00  0.00     0.146 C 
BRANCH  15  16
HETATM   16  C   UNL     1       6.550  24.833  52.813  1.00  0.00     0.224 C 
HETATM   17  N   UNL     1       7.720  24.146  53.041  1.00  0.00    -0.327 N 
HETATM   18  H   UNL     1       8.515  24.359  52.442  1.00  0.00     0.169 HD
HETATM   19  O   UNL     1       5.414  24.519  53.169  1.00  0.00    -0.273 OA
BRANCH  17  20
HETATM   20  C   UNL     1       7.840  22.937  53.771  1.00  0.00     0.040 A 
HETATM   21  C   UNL     1       7.832  22.824  55.172  1.00  0.00    -0.035 A 
HETATM   22  C   UNL     1       7.870  23.984  56.129  1.00  0.00     0.050 C 
HETATM   23  C   UNL     1       7.859  21.537  55.749  1.00  0.00     0.009 A 
HETATM   24  C   UNL     1       7.959  20.392  54.961  1.00  0.00     0.001 A 
HETATM   25  C   UNL     1       8.047  20.513  53.581  1.00  0.00     0.002 A 
HETATM   26  C   UNL     1       7.997  21.777  52.991  1.00  0.00     0.030 A 
ENDBRANCH  17  20
ENDBRANCH  15  16
ENDBRANCH   1  15
TORSDOF 3
ENDMDL
MODEL 2
REMARK VINA RESULT:      -8.9      4.561      7.066
REMARK  3 active torsions:
REMARK  status: ('A' for Active; 'I' for Inactive)
REMARK    1  A    between atoms: C_3  and  N_4 
REMARK       I    between atoms: N_4  and  C_5 
REMARK    2  A    between atoms: C_5  and  C_6 
REMARK    3  A    between atoms: C_6  and  C_7 
ROOT
HETATM    1  C   UNL     1       7.547  26.934  56.774  1.00  0.00     0.286 C 
HETATM    2  N   UNL     1       8.346  28.031  57.490  1.00  0.00    -0.056 N 
HETATM    3  H   UNL     1       8.915  27.593  58.239  1.00  0.00     0.278 HD
HETATM    4  H   UNL     1       9.007  28.463  56.832  1.00  0.00     0.278 HD
HETATM    5  C   UNL     1       7.509  29.089  58.165  1.00  0.00     0.209 C 
HETATM    6  C   UNL     1       6.463  29.627  57.170  1.00  0.00     0.115 C 
HETATM    7  N   UNL     1       5.636  28.547  56.659  1.00  0.00    -0.353 N 
HETATM    8  C   UNL     1       6.083  27.278  56.426  1.00  0.00     0.249 C 
HETATM    9  O   UNL     1       5.312  26.433  55.979  1.00  0.00    -0.271 OA
HETATM   10  C   UNL     1       8.408  30.203  58.687  1.00  0.00     0.035 C 
HETATM   11  C   UNL     1       7.564  31.283  59.363  1.00  0.00     0.002 C 
HETATM   12  C   UNL     1       6.467  31.814  58.440  1.00  0.00     0.002 C 
HETATM   13  C   UNL     1       5.606  30.697  57.849  1.00  0.00     0.027 C 
HETATM   14  H   UNL     1       4.694  28.742  56.321  1.00  0.00     0.163 HD
ENDROOT
BRANCH   1  15
HETATM   15  C   UNL     1       7.607  25.596  57.523  1.00  0.00     0.146 C 
BRANCH  15  16
HETATM   16  C   UNL     1       8.205  24.562  56.610  1.00  0.00     0.224 C 
HETATM   17  N   UNL     1       7.299  23.927  55.792  1.00  0.00    -0.327 N 
HETATM   18  H   UNL     1       6.311  24.109  55.955  1.00  0.00     0.169 HD
HETATM   19  O   UNL     1       9.378  24.250  56.815  1.00  0.00    -0.273 OA
BRANCH  17  20
HETATM   20  C   UNL     1       7.564  22.787  54.993  1.00  0.00     0.040 A 
HETATM   21  C   UNL     1       7.761  22.794  53.601  1.00  0.00    -0.035 A 
HETATM   22  C   UNL     1       7.550  23.985  52.708  1.00  0.00     0.050 C 
HETATM   23  C   UNL     1       8.117  21.588  52.962  1.00  0.00     0.009 A 
HETATM   24  C   UNL     1       8.210  20.392  53.670  1.00  0.00     0.001 A 
HETATM   25  C   UNL     1       7.937  20.376  55.031  1.00  0.00     0.002 A 
HETATM   26  C   UNL     1       7.607  21.564  55.685  1.00  0.00     0.030 A 
ENDBRANCH  17  20
ENDBRANCH  15  16
ENDBRANCH   1  15
TORSDOF 3
ENDMDL
MODEL 3
REMARK VINA RESULT:      -8.8      2.576      3.617
REMARK  3 active torsions:
REMARK  status: ('A' for Active; 'I' for Inactive)
REMARK    1  A    between atoms: C_3  and  N_4 
REMARK       I    between atoms: N_4  and  C_5 
REMARK    2  A    between atoms: C_5  and  C_6 
REMARK    3  A    between atoms: C_6  and  C_7 
ROOT
HETATM    1  C   UNL     1       6.292  27.131  55.666  1.00  0.00     0.286 C 
HETATM    2  N   UNL     1       5.658  26.170  54.651  1.00  0.00    -0.056 N 
HETATM    3  H   UNL     1       6.097  25.236  54.760  1.00  0.00     0.278 HD
HETATM    4  H   UNL     1       4.659  26.052  54.863  1.00  0.00     0.278 HD
HETATM    5  C   UNL     1       5.847  26.556  53.206  1.00  0.00     0.209 C 
HETATM    6  C   UNL     1       5.436  28.028  53.011  1.00  0.00     0.115 C 
HETATM    7  N   UNL     1       6.200  28.896  53.892  1.00  0.00    -0.353 N 
HETATM    8  C   UNL     1       6.606  28.552  55.150  1.00  0.00     0.249 C 
HETATM    9  O   UNL     1       7.237  29.359  55.828  1.00  0.00    -0.271 OA
HETATM   10  C   UNL     1       5.033  25.627  52.313  1.00  0.00     0.035 C 
HETATM   11  C   UNL     1       5.214  26.020  50.847  1.00  0.00     0.002 C 
HETATM   12  C   UNL     1       4.877  27.491  50.603  1.00  0.00     0.002 C 
HETATM   13  C   UNL     1       5.631  28.429  51.547  1.00  0.00     0.027 C 
HETATM   14  H   UNL     1       6.348  29.873  53.643  1.00  0.00     0.163 HD
ENDROOT
BRANCH   1  15
HETATM   15  C   UNL     1       7.536  26.529  56.331  1.00  0.00     0.146 C 
BRANCH  15  16
HETATM   16  C   UNL     1       7.362  25.038  56.411  1.00  0.00     0.224 C 
HETATM   17  N   UNL     1       8.309  24.314  55.723  1.00  0.00    -0.327 N 
HETATM   18  H   UNL     1       8.955  24.829  55.128  1.00  0.00     0.169 HD
HETATM   19  O   UNL     1       6.311  24.625  56.900  1.00  0.00    -0.273 OA
BRANCH  17  20
HETATM   20  C   UNL     1       8.262  22.920  55.472  1.00  0.00     0.040 A 
HETATM   21  C   UNL     1       8.035  22.323  54.220  1.00  0.00    -0.035 A 
HETATM   22  C   UNL     1       7.632  23.063  52.974  1.00  0.00     0.050 C 
HETATM   23  C   UNL     1       8.118  20.919  54.113  1.00  0.00     0.009 A 
HETATM   24  C   UNL     1       8.354  20.120  55.230  1.00  0.00     0.001 A 
HETATM   25  C   UNL     1       8.499  20.710  56.479  1.00  0.00     0.002 A 
HETATM   26  C   UNL     1       8.443  22.099  56.599  1.00  0.00     0.030 A 
ENDBRANCH  17  20
ENDBRANCH  15  16
ENDBRANCH   1  15
TORSDOF 3
ENDMDL
MODEL 4
REMARK VINA RESULT:      -8.7      1.519      7.917
REMARK  3 active torsions:
REMARK  status: ('A' for Active; 'I' for Inactive)
REMARK    1  A    between atoms: C_3  and  N_4 
REMARK       I    between atoms: N_4  and  C_5 
REMARK    2  A    between atoms: C_5  and  C_6 
REMARK    3  A    between atoms: C_6  and  C_7 
ROOT
HETATM    1  C   UNL     1       6.835  24.614  53.958  1.00  0.00     0.286 C 
HETATM    2  N   UNL     1       7.686  23.471  53.389  1.00  0.00    -0.056 N 
HETATM    3  H   UNL     1       7.288  23.184  52.474  1.00  0.00     0.278 HD
HETATM    4  H   UNL     1       8.639  23.808  53.203  1.00  0.00     0.278 HD
HETATM    5  C   UNL     1       7.725  22.225  54.238  1.00  0.00     0.209 C 
HETATM    6  C   UNL     1       8.079  22.604  55.688  1.00  0.00     0.115 C 
HETATM    7  N   UNL     1       7.129  23.570  56.214  1.00  0.00    -0.353 N 
HETATM    8  C   UNL     1       6.534  24.549  55.471  1.00  0.00     0.249 C 
HETATM    9  O   UNL     1       5.753  25.330  56.007  1.00  0.00    -0.271 OA
HETATM   10  C   UNL     1       8.730  21.237  53.658  1.00  0.00     0.035 C 
HETATM   11  C   UNL     1       8.781  19.976  54.521  1.00  0.00     0.002 C 
HETATM   12  C   UNL     1       9.071  20.296  55.987  1.00  0.00     0.002 C 
HETATM   13  C   UNL     1       8.116  21.345  56.558  1.00  0.00     0.027 C 
HETATM   14  H   UNL     1       6.971  23.635  57.219  1.00  0.00     0.163 HD
ENDROOT
BRANCH   1  15
HETATM   15  C   UNL     1       5.532  24.808  53.173  1.00  0.00     0.146 C 
BRANCH  15  16
HETATM   16  C   UNL     1       5.830  25.614  51.940  1.00  0.00     0.224 C 
HETATM   17  N   UNL     1       4.729  26.194  51.354  1.00  0.00    -0.327 N 
HETATM   18  H   UNL     1       3.813  25.935  51.715  1.00  0.00     0.169 HD
HETATM   19  O   UNL     1       6.965  25.516  51.472  1.00  0.00    -0.273 OA
BRANCH  17  20
HETATM   20  C   UNL     1       4.704  26.829  50.087  1.00  0.00     0.040 A 
HETATM   21  C   UNL     1       5.126  28.143  49.823  1.00  0.00    -0.035 A 
HETATM   22  C   UNL     1       5.510  29.150  50.872  1.00  0.00     0.050 C 
HETATM   23  C   UNL     1       5.134  28.597  48.488  1.00  0.00     0.009 A 
HETATM   24  C   UNL     1       4.673  27.795  47.446  1.00  0.00     0.001 A 
HETATM   25  C   UNL     1       4.182  26.526  47.722  1.00  0.00     0.002 A 
HETATM   26  C   UNL     1       4.190  26.050  49.034  1.00  0.00     0.030 A 
ENDBRANCH  17  20
ENDBRANCH  15  16
ENDBRANCH   1  15
TORSDOF 3
ENDMDL
MODEL 5
REMARK VINA RESULT:      -8.7      5.123      8.452
REMARK  3 active torsions:
REMARK  status: ('A' for Active; 'I' for Inactive)
REMARK    1  A    between atoms: C_3  and  N_4 
REMARK       I    between atoms: N_4  and  C_5 
REMARK    2  A    between atoms: C_5  and  C_6 
REMARK    3  A    between atoms: C_6  and  C_7 
ROOT
HETATM    1  C   UNL     1       8.094  25.826  55.894  1.00  0.00     0.286 C 
HETATM    2  N   UNL     1       8.070  25.095  54.545  1.00  0.00    -0.056 N 
HETATM    3  H   UNL     1       7.320  25.506  53.957  1.00  0.00     0.278 HD
HETATM    4  H   UNL     1       8.955  25.257  54.048  1.00  0.00     0.278 HD
HETATM    5  C   UNL     1       7.776  23.618  54.628  1.00  0.00     0.209 C 
HETATM    6  C   UNL     1       8.703  22.969  55.673  1.00  0.00     0.115 C 
HETATM    7  N   UNL     1       8.546  23.610  56.968  1.00  0.00    -0.353 N 
HETATM    8  C   UNL     1       8.290  24.940  57.143  1.00  0.00     0.249 C 
HETATM    9  O   UNL     1       8.188  25.396  58.278  1.00  0.00    -0.271 OA
HETATM   10  C   UNL     1       7.950  22.980  53.255  1.00  0.00     0.035 C 
HETATM   11  C   UNL     1       7.662  21.481  53.335  1.00  0.00     0.002 C 
HETATM   12  C   UNL     1       8.512  20.790  54.401  1.00  0.00     0.002 C 
HETATM   13  C   UNL     1       8.406  21.470  55.767  1.00  0.00     0.027 C 
HETATM   14  H   UNL     1       8.762  23.096  57.821  1.00  0.00     0.163 HD
ENDROOT
BRANCH   1  15
HETATM   15  C   UNL     1       6.869  26.730  56.081  1.00  0.00     0.146 C 
BRANCH  15  16
HETATM   16  C   UNL     1       7.344  28.129  56.361  1.00  0.00     0.224 C 
HETATM   17  N   UNL     1       8.273  28.227  57.371  1.00  0.00    -0.327 N 
HETATM   18  H   UNL     1       8.463  27.390  57.917  1.00  0.00     0.169 HD
HETATM   19  O   UNL     1       6.728  29.046  55.815  1.00  0.00    -0.273 OA
BRANCH  17  20
HETATM   20  C   UNL     1       8.726  29.432  57.963  1.00  0.00     0.040 A 
HETATM   21  C   UNL     1       9.933  30.087  57.660  1.00  0.00    -0.035 A 
HETATM   22  C   UNL     1      11.021  29.525  56.787  1.00  0.00     0.050 C 
HETATM   23  C   UNL     1      10.196  31.334  58.263  1.00  0.00     0.009 A 
HETATM   24  C   UNL     1       9.320  31.890  59.193  1.00  0.00     0.001 A 
HETATM   25  C   UNL     1       8.168  31.202  59.547  1.00  0.00     0.002 A 
HETATM   26  C   UNL     1       7.878  29.977  58.943  1.00  0.00     0.030 A 
ENDBRANCH  17  20
ENDBRANCH  15  16
ENDBRANCH   1  15
TORSDOF 3
ENDMDL
MODEL 6
REMARK VINA RESULT:      -8.6      2.325      7.782
REMARK  3 active torsions:
REMARK  status: ('A' for Active; 'I' for Inactive)
REMARK    1  A    between atoms: C_3  and  N_4 
REMARK       I    between atoms: N_4  and  C_5 
REMARK    2  A    between atoms: C_5  and  C_6 
REMARK    3  A    between atoms: C_6  and  C_7 
ROOT
HETATM    1  C   UNL     1       7.729  25.517  55.915  1.00  0.00     0.286 C 
HETATM    2  N   UNL     1       7.775  24.491  54.775  1.00  0.00    -0.056 N 
HETATM    3  H   UNL     1       6.988  24.681  54.125  1.00  0.00     0.278 HD
HETATM    4  H   UNL     1       8.640  24.612  54.234  1.00  0.00     0.278 HD
HETATM    5  C   UNL     1       7.622  23.054  55.208  1.00  0.00     0.209 C 
HETATM    6  C   UNL     1       8.607  22.757  56.354  1.00  0.00     0.115 C 
HETATM    7  N   UNL     1       8.391  23.667  57.466  1.00  0.00    -0.353 N 
HETATM    8  C   UNL     1       8.009  24.971  57.332  1.00  0.00     0.249 C 
HETATM    9  O   UNL     1       7.864  25.669  58.332  1.00  0.00    -0.271 OA
HETATM   10  C   UNL     1       7.855  22.130  54.018  1.00  0.00     0.035 C 
HETATM   11  C   UNL     1       7.712  20.672  54.453  1.00  0.00     0.002 C 
HETATM   12  C   UNL     1       8.624  20.332  55.631  1.00  0.00     0.002 C 
HETATM   13  C   UNL     1       8.454  21.301  56.802  1.00  0.00     0.027 C 
HETATM   14  H   UNL     1       8.655  23.390  58.411  1.00  0.00     0.163 HD
ENDROOT
BRANCH   1  15
HETATM   15  C   UNL     1       6.424  26.323  55.913  1.00  0.00     0.146 C 
BRANCH  15  16
HETATM   16  C   UNL     1       6.261  26.968  54.566  1.00  0.00     0.224 C 
HETATM   17  N   UNL     1       5.088  26.655  53.919  1.00  0.00    -0.327 N 
HETATM   18  H   UNL     1       4.501  25.934  54.332  1.00  0.00     0.169 HD
HETATM   19  O   UNL     1       7.248  27.536  54.097  1.00  0.00    -0.273 OA
BRANCH  17  20
HETATM   20  C   UNL     1       4.779  26.963  52.570  1.00  0.00     0.040 A 
HETATM   21  C   UNL     1       4.156  28.141  52.123  1.00  0.00    -0.035 A 
HETATM   22  C   UNL     1       3.556  29.190  53.019  1.00  0.00     0.050 C 
HETATM   23  C   UNL     1       4.008  28.345  50.736  1.00  0.00     0.009 A 
HETATM   24  C   UNL     1       4.407  27.379  49.814  1.00  0.00     0.001 A 
HETATM   25  C   UNL     1       4.949  26.183  50.264  1.00  0.00     0.002 A 
HETATM   26  C   UNL     1       5.126  25.973  51.633  1.00  0.00     0.030 A 
ENDBRANCH  17  20
ENDBRANCH  15  16
ENDBRANCH   1  15
TORSDOF 3
ENDMDL
MODEL 7
REMARK VINA RESULT:      -8.3      2.942      4.840
REMARK  3 active torsions:
REMARK  status: ('A' for Active; 'I' for Inactive)
REMARK    1  A    between atoms: C_3  and  N_4 
REMARK       I    between atoms: N_4  and  C_5 
REMARK    2  A    between atoms: C_5  and  C_6 
REMARK    3  A    between atoms: C_6  and  C_7 
ROOT
HETATM    1  C   UNL     1       6.881  26.745  52.474  1.00  0.00     0.286 C 
HETATM    2  N   UNL     1       7.679  26.985  53.762  1.00  0.00    -0.056 N 
HETATM    3  H   UNL     1       8.325  26.185  53.907  1.00  0.00     0.278 HD
HETATM    4  H   UNL     1       8.267  27.821  53.655  1.00  0.00     0.278 HD
HETATM    5  C   UNL     1       6.847  27.083  55.016  1.00  0.00     0.209 C 
HETATM    6  C   UNL     1       5.704  28.091  54.794  1.00  0.00     0.115 C 
HETATM    7  N   UNL     1       4.892  27.705  53.653  1.00  0.00    -0.353 N 
HETATM    8  C   UNL     1       5.380  27.100  52.529  1.00  0.00     0.249 C 
HETATM    9  O   UNL     1       4.617  26.823  51.608  1.00  0.00    -0.271 OA
HETATM   10  C   UNL     1       7.730  27.490  56.190  1.00  0.00     0.035 C 
HETATM   11  C   UNL     1       6.890  27.601  57.462  1.00  0.00     0.002 C 
HETATM   12  C   UNL     1       5.701  28.545  57.283  1.00  0.00     0.002 C 
HETATM   13  C   UNL     1       4.851  28.193  56.062  1.00  0.00     0.027 C 
HETATM   14  H   UNL     1       3.919  28.003  53.595  1.00  0.00     0.163 HD
ENDROOT
BRANCH   1  15
HETATM   15  C   UNL     1       7.062  25.318  51.941  1.00  0.00     0.146 C 
BRANCH  15  16
HETATM   16  C   UNL     1       7.039  24.366  53.103  1.00  0.00     0.224 C 
HETATM   17  N   UNL     1       8.194  23.638  53.271  1.00  0.00    -0.327 N 
HETATM   18  H   UNL     1       8.902  23.705  52.542  1.00  0.00     0.169 HD
HETATM   19  O   UNL     1       5.953  24.187  53.656  1.00  0.00    -0.273 OA
BRANCH  17  20
HETATM   20  C   UNL     1       8.361  22.542  54.154  1.00  0.00     0.040 A 
HETATM   21  C   UNL     1       8.531  22.633  55.546  1.00  0.00    -0.035 A 
HETATM   22  C   UNL     1       8.738  23.915  56.305  1.00  0.00     0.050 C 
HETATM   23  C   UNL     1       8.582  21.444  56.302  1.00  0.00     0.009 A 
HETATM   24  C   UNL     1       8.534  20.193  55.689  1.00  0.00     0.001 A 
HETATM   25  C   UNL     1       8.446  20.108  54.306  1.00  0.00     0.002 A 
HETATM   26  C   UNL     1       8.370  21.275  53.544  1.00  0.00     0.030 A 
ENDBRANCH  17  20
ENDBRANCH  15  16
ENDBRANCH   1  15
TORSDOF 3
ENDMDL
MODEL 8
REMARK VINA RESULT:      -8.0      7.038      9.511
REMARK  3 active torsions:
REMARK  status: ('A' for Active; 'I' for Inactive)
REMARK    1  A    between atoms: C_3  and  N_4 
REMARK       I    between atoms: N_4  and  C_5 
REMARK    2  A    between atoms: C_5  and  C_6 
REMARK    3  A    between atoms: C_6  and  C_7 
ROOT
HETATM    1  C   UNL     1       7.723  28.718  57.662  1.00  0.00     0.286 C 
HETATM    2  N   UNL     1       8.042  27.233  57.444  1.00  0.00    -0.056 N 
HETATM    3  H   UNL     1       9.074  27.115  57.420  1.00  0.00     0.278 HD
HETATM    4  H   UNL     1       7.702  26.685  58.244  1.00  0.00     0.278 HD
HETATM    5  C   UNL     1       7.524  26.654  56.151  1.00  0.00     0.209 C 
HETATM    6  C   UNL     1       6.031  27.000  55.998  1.00  0.00     0.115 C 
HETATM    7  N   UNL     1       5.828  28.438  56.049  1.00  0.00    -0.353 N 
HETATM    8  C   UNL     1       6.561  29.292  56.823  1.00  0.00     0.249 C 
HETATM    9  O   UNL     1       6.307  30.493  56.811  1.00  0.00    -0.271 OA
HETATM   10  C   UNL     1       7.753  25.148  56.132  1.00  0.00     0.035 C 
HETATM   11  C   UNL     1       7.221  24.554  54.828  1.00  0.00     0.002 C 
HETATM   12  C   UNL     1       5.755  24.915  54.591  1.00  0.00     0.002 C 
HETATM   13  C   UNL     1       5.499  26.420  54.684  1.00  0.00     0.027 C 
HETATM   14  H   UNL     1       5.017  28.855  55.595  1.00  0.00     0.163 HD
ENDROOT
BRANCH   1  15
HETATM   15  C   UNL     1       8.966  29.604  57.509  1.00  0.00     0.146 C 
BRANCH  15  16
HETATM   16  C   UNL     1       9.070  30.495  58.714  1.00  0.00     0.224 C 
HETATM   17  N   UNL     1       8.043  30.360  59.619  1.00  0.00    -0.327 N 
HETATM   18  H   UNL     1       7.252  29.779  59.347  1.00  0.00     0.169 HD
HETATM   19  O   UNL     1       9.930  31.376  58.682  1.00  0.00    -0.273 OA
BRANCH  17  20
HETATM   20  C   UNL     1       7.796  31.211  60.724  1.00  0.00     0.040 A 
HETATM   21  C   UNL     1       8.499  31.194  61.942  1.00  0.00    -0.035 A 
HETATM   22  C   UNL     1       9.510  30.153  62.335  1.00  0.00     0.050 C 
HETATM   23  C   UNL     1       8.201  32.174  62.910  1.00  0.00     0.009 A 
HETATM   24  C   UNL     1       7.187  33.109  62.708  1.00  0.00     0.001 A 
HETATM   25  C   UNL     1       6.443  33.072  61.537  1.00  0.00     0.002 A 
HETATM   26  C   UNL     1       6.739  32.124  60.556  1.00  0.00     0.030 A 
ENDBRANCH  17  20
ENDBRANCH  15  16
ENDBRANCH   1  15
TORSDOF 3
ENDMDL
MODEL 9
REMARK VINA RESULT:      -8.0      4.055      7.099
REMARK  3 active torsions:
REMARK  status: ('A' for Active; 'I' for Inactive)
REMARK    1  A    between atoms: C_3  and  N_4 
REMARK       I    between atoms: N_4  and  C_5 
REMARK    2  A    between atoms: C_5  and  C_6 
REMARK    3  A    between atoms: C_6  and  C_7 
ROOT
HETATM    1  C   UNL     1       4.985  26.608  53.485  1.00  0.00     0.286 C 
HETATM    2  N   UNL     1       5.667  25.947  54.690  1.00  0.00    -0.056 N 
HETATM    3  H   UNL     1       5.985  26.690  55.341  1.00  0.00     0.278 HD
HETATM    4  H   UNL     1       4.984  25.377  55.205  1.00  0.00     0.278 HD
HETATM    5  C   UNL     1       6.891  25.130  54.358  1.00  0.00     0.209 C 
HETATM    6  C   UNL     1       6.559  24.152  53.216  1.00  0.00     0.115 C 
HETATM    7  N   UNL     1       6.073  24.869  52.049  1.00  0.00    -0.353 N 
HETATM    8  C   UNL     1       5.312  26.003  52.104  1.00  0.00     0.249 C 
HETATM    9  O   UNL     1       4.936  26.533  51.062  1.00  0.00    -0.271 OA
HETATM   10  C   UNL     1       7.372  24.392  55.602  1.00  0.00     0.035 C 
HETATM   11  C   UNL     1       8.606  23.555  55.270  1.00  0.00     0.002 C 
HETATM   12  C   UNL     1       8.355  22.604  54.099  1.00  0.00     0.002 C 
HETATM   13  C   UNL     1       7.798  23.322  52.869  1.00  0.00     0.027 C 
HETATM   14  H   UNL     1       6.176  24.462  51.121  1.00  0.00     0.163 HD
ENDROOT
BRANCH   1  15
HETATM   15  C   UNL     1       5.206  28.125  53.458  1.00  0.00     0.146 C 
BRANCH  15  16
HETATM   16  C   UNL     1       5.255  28.628  54.873  1.00  0.00     0.224 C 
HETATM   17  N   UNL     1       6.417  29.283  55.210  1.00  0.00    -0.327 N 
HETATM   18  H   UNL     1       7.180  29.263  54.535  1.00  0.00     0.169 HD
HETATM   19  O   UNL     1       4.363  28.245  55.632  1.00  0.00    -0.273 OA
BRANCH  17  20
HETATM   20  C   UNL     1       6.798  29.673  56.518  1.00  0.00     0.040 A 
HETATM   21  C   UNL     1       7.752  29.023  57.320  1.00  0.00    -0.035 A 
HETATM   22  C   UNL     1       8.397  27.705  56.989  1.00  0.00     0.050 C 
HETATM   23  C   UNL     1       8.095  29.593  58.562  1.00  0.00     0.009 A 
HETATM   24  C   UNL     1       7.462  30.743  59.032  1.00  0.00     0.001 A 
HETATM   25  C   UNL     1       6.464  31.337  58.272  1.00  0.00     0.002 A 
HETATM   26  C   UNL     1       6.128  30.800  57.028  1.00  0.00     0.030 A 
ENDBRANCH  17  20
ENDBRANCH  15  16
ENDBRANCH   1  15
TORSDOF 3
ENDMDL
MODEL 10
REMARK VINA RESULT:      -7.9      8.036     10.559
REMARK  3 active torsions:
REMARK  status: ('A' for Active; 'I' for Inactive)
REMARK    1  A    between atoms: C_3  and  N_4 
REMARK       I    between atoms: N_4  and  C_5 
REMARK    2  A    between atoms: C_5  and  C_6 
REMARK    3  A    between atoms: C_6  and  C_7 
ROOT
HETATM    1  C   UNL     1       7.161  29.748  58.381  1.00  0.00     0.286 C 
HETATM    2  N   UNL     1       7.581  28.279  58.515  1.00  0.00    -0.056 N 
HETATM    3  H   UNL     1       8.612  28.238  58.634  1.00  0.00     0.278 HD
HETATM    4  H   UNL     1       7.171  27.878  59.368  1.00  0.00     0.278 HD
HETATM    5  C   UNL     1       7.263  27.415  57.320  1.00  0.00     0.209 C 
HETATM    6  C   UNL     1       5.786  27.607  56.929  1.00  0.00     0.115 C 
HETATM    7  N   UNL     1       5.504  29.006  56.656  1.00  0.00    -0.353 N 
HETATM    8  C   UNL     1       6.087  30.052  57.314  1.00  0.00     0.249 C 
HETATM    9  O   UNL     1       5.774  31.203  57.023  1.00  0.00    -0.271 OA
HETATM   10  C   UNL     1       7.570  25.957  57.642  1.00  0.00     0.035 C 
HETATM   11  C   UNL     1       7.240  25.075  56.438  1.00  0.00     0.002 C 
HETATM   12  C   UNL     1       5.799  25.268  55.965  1.00  0.00     0.002 C 
HETATM   13  C   UNL     1       5.456  26.736  55.714  1.00  0.00     0.027 C 
HETATM   14  H   UNL     1       4.737  29.260  56.036  1.00  0.00     0.163 HD
ENDROOT
BRANCH   1  15
HETATM   15  C   UNL     1       8.365  30.678  58.190  1.00  0.00     0.146 C 
BRANCH  15  16
HETATM   16  C   UNL     1       8.455  31.596  59.376  1.00  0.00     0.224 C 
HETATM   17  N   UNL     1       7.564  31.317  60.386  1.00  0.00    -0.327 N 
HETATM   18  H   UNL     1       6.850  30.615  60.202  1.00  0.00     0.169 HD
HETATM   19  O   UNL     1       9.158  32.600  59.252  1.00  0.00    -0.273 OA
BRANCH  17  20
HETATM   20  C   UNL     1       7.305  32.138  61.511  1.00  0.00     0.040 A 
HETATM   21  C   UNL     1       6.224  33.027  61.643  1.00  0.00    -0.035 A 
HETATM   22  C   UNL     1       5.263  33.381  60.542  1.00  0.00     0.050 C 
HETATM   23  C   UNL     1       6.047  33.702  62.869  1.00  0.00     0.009 A 
HETATM   24  C   UNL     1       6.955  33.553  63.916  1.00  0.00     0.001 A 
HETATM   25  C   UNL     1       8.064  32.735  63.753  1.00  0.00     0.002 A 
HETATM   26  C   UNL     1       8.243  32.040  62.555  1.00  0.00     0.030 A 
ENDBRANCH  17  20
ENDBRANCH  15  16
ENDBRANCH   1  15
TORSDOF 3
ENDMDL
