MODEL 1
REMARK VINA RESULT:      -8.8      0.000      0.000
REMARK  3 active torsions:
REMARK  status: ('A' for Active; 'I' for Inactive)
REMARK    1  A    between atoms: C_3  and  N_4 
REMARK       I    between atoms: N_4  and  C_5 
REMARK    2  A    between atoms: C_5  and  C_6 
REMARK    3  A    between atoms: C_6  and  C_7 
ROOT
HETATM    1  C   UNL     1       7.535  25.456  56.573  1.00  0.00     0.286 C 
HETATM    2  N   UNL     1       6.353  24.969  55.739  1.00  0.00    -0.056 N 
HETATM    3  H   UNL     1       5.686  24.564  56.430  1.00  0.00     0.278 HD
HETATM    4  H   UNL     1       5.861  25.751  55.294  1.00  0.00     0.278 HD
HETATM    5  C   UNL     1       6.683  23.890  54.748  1.00  0.00     0.209 C 
HETATM    6  C   UNL     1       7.394  22.725  55.476  1.00  0.00     0.115 C 
HETATM    7  N   UNL     1       8.497  23.174  56.326  1.00  0.00    -0.353 N 
HETATM    8  C   UNL     1       8.431  24.313  57.093  1.00  0.00     0.249 C 
HETATM    9  O   UNL     1       9.147  24.431  58.082  1.00  0.00    -0.271 OA
HETATM   10  C   UNL     1       7.502  24.470  53.592  1.00  0.00     0.035 C 
HETATM   11  C   UNL     1       7.923  23.375  52.616  1.00  0.00     0.002 C 
HETATM   12  C   UNL     1       8.679  22.256  53.327  1.00  0.00     0.002 C 
HETATM   13  C   UNL     1       7.864  21.663  54.477  1.00  0.00     0.027 C 
HETATM   14  H   UNL     1       9.078  22.458  56.758  1.00  0.00     0.163 HD
ENDROOT
BRANCH   1  15
HETATM   15  C   UNL     1       7.064  26.369  57.715  1.00  0.00     0.146 C 
BRANCH  15  16
HETATM   16  C   UNL     1       6.261  27.525  57.180  1.00  0.00     0.224 C 
HETATM   17  N   UNL     1       6.787  28.762  57.005  1.00  0.00    -0.326 N 
HETATM   18  H   UNL     1       6.077  29.448  56.744  1.00  0.00     0.169 HD
HETATM   19  O   UNL     1       5.086  27.317  56.846  1.00  0.00    -0.273 OA
BRANCH  17  20
HETATM   20  C   UNL     1       8.086  29.317  57.097  1.00  0.00     0.056 A 
HETATM   21  C   UNL     1       8.625  29.900  58.247  1.00  0.00     0.031 A 
HETATM   22  C   UNL     1       9.938  30.392  58.250  1.00  0.00     0.002 A 
HETATM   23  C   UNL     1      10.732  30.305  57.110  1.00  0.00     0.002 A 
HETATM   24  C   UNL     1      10.219  29.719  55.958  1.00  0.00     0.026 A 
HETATM   25  C   UNL     1       8.912  29.226  55.954  1.00  0.00     0.060 A 
HETATM   26 CL   UNL     1       8.329  28.495  54.495  1.00  0.00    -0.082 Cl
ENDBRANCH  17  20
ENDBRANCH  15  16
ENDBRANCH   1  15
TORSDOF 3
ENDMDL
MODEL 2
REMARK VINA RESULT:      -8.4      3.064      6.842
REMARK  3 active torsions:
REMARK  status: ('A' for Active; 'I' for Inactive)
REMARK    1  A    between atoms: C_3  and  N_4 
REMARK       I    between atoms: N_4  and  C_5 
REMARK    2  A    between atoms: C_5  and  C_6 
REMARK    3  A    between atoms: C_6  and  C_7 
ROOT
HETATM    1  C   UNL     1       6.419  25.824  54.462  1.00  0.00     0.286 C 
HETATM    2  N   UNL     1       6.198  25.478  55.932  1.00  0.00    -0.056 N 
HETATM    3  H   UNL     1       5.257  25.029  55.964  1.00  0.00     0.278 HD
HETATM    4  H   UNL     1       6.863  24.767  56.254  1.00  0.00     0.278 HD
HETATM    5  C   UNL     1       6.162  26.659  56.859  1.00  0.00     0.209 C 
HETATM    6  C   UNL     1       5.122  27.683  56.345  1.00  0.00     0.115 C 
HETATM    7  N   UNL     1       5.281  27.989  54.922  1.00  0.00    -0.353 N 
HETATM    8  C   UNL     1       5.587  27.032  53.984  1.00  0.00     0.249 C 
HETATM    9  O   UNL     1       5.295  27.209  52.806  1.00  0.00    -0.271 OA
HETATM   10  C   UNL     1       7.566  27.249  57.014  1.00  0.00     0.035 C 
HETATM   11  C   UNL     1       7.540  28.503  57.883  1.00  0.00     0.002 C 
HETATM   12  C   UNL     1       6.559  29.538  57.338  1.00  0.00     0.002 C 
HETATM   13  C   UNL     1       5.151  28.961  57.190  1.00  0.00     0.027 C 
HETATM   14  H   UNL     1       4.700  28.730  54.534  1.00  0.00     0.163 HD
ENDROOT
BRANCH   1  15
HETATM   15  C   UNL     1       6.196  24.595  53.568  1.00  0.00     0.146 C 
BRANCH  15  16
HETATM   16  C   UNL     1       7.464  24.220  52.847  1.00  0.00     0.224 C 
HETATM   17  N   UNL     1       8.360  23.338  53.352  1.00  0.00    -0.326 N 
HETATM   18  H   UNL     1       9.210  23.289  52.789  1.00  0.00     0.169 HD
HETATM   19  O   UNL     1       7.665  24.707  51.725  1.00  0.00    -0.273 OA
BRANCH  17  20
HETATM   20  C   UNL     1       8.386  22.474  54.473  1.00  0.00     0.056 A 
HETATM   21  C   UNL     1       8.447  22.894  55.804  1.00  0.00     0.031 A 
HETATM   22  C   UNL     1       8.433  21.960  56.850  1.00  0.00     0.002 A 
HETATM   23  C   UNL     1       8.354  20.596  56.583  1.00  0.00     0.002 A 
HETATM   24  C   UNL     1       8.282  20.156  55.266  1.00  0.00     0.026 A 
HETATM   25  C   UNL     1       8.293  21.085  54.224  1.00  0.00     0.060 A 
HETATM   26 CL   UNL     1       8.189  20.481  52.602  1.00  0.00    -0.082 Cl
ENDBRANCH  17  20
ENDBRANCH  15  16
ENDBRANCH   1  15
TORSDOF 3
ENDMDL
MODEL 3
REMARK VINA RESULT:      -8.3      3.149      6.574
REMARK  3 active torsions:
REMARK  status: ('A' for Active; 'I' for Inactive)
REMARK    1  A    between atoms: C_3  and  N_4 
REMARK       I    between atoms: N_4  and  C_5 
REMARK    2  A    between atoms: C_5  and  C_6 
REMARK    3  A    between atoms: C_6  and  C_7 
ROOT
HETATM    1  C   UNL     1       6.237  25.301  56.186  1.00  0.00     0.286 C 
HETATM    2  N   UNL     1       7.172  26.433  55.770  1.00  0.00    -0.056 N 
HETATM    3  H   UNL     1       7.626  26.746  56.655  1.00  0.00     0.278 HD
HETATM    4  H   UNL     1       7.929  26.093  55.167  1.00  0.00     0.278 HD
HETATM    5  C   UNL     1       6.486  27.628  55.171  1.00  0.00     0.209 C 
HETATM    6  C   UNL     1       5.378  28.119  56.133  1.00  0.00     0.115 C 
HETATM    7  N   UNL     1       4.502  27.039  56.589  1.00  0.00    -0.353 N 
HETATM    8  C   UNL     1       4.970  25.789  56.918  1.00  0.00     0.249 C 
HETATM    9  O   UNL     1       4.329  25.072  57.679  1.00  0.00    -0.271 OA
HETATM   10  C   UNL     1       5.966  27.289  53.772  1.00  0.00     0.035 C 
HETATM   11  C   UNL     1       5.189  28.462  53.178  1.00  0.00     0.002 C 
HETATM   12  C   UNL     1       4.057  28.904  54.101  1.00  0.00     0.002 C 
HETATM   13  C   UNL     1       4.569  29.255  55.498  1.00  0.00     0.027 C 
HETATM   14  H   UNL     1       3.688  27.298  57.143  1.00  0.00     0.163 HD
ENDROOT
BRANCH   1  15
HETATM   15  C   UNL     1       6.989  24.239  57.004  1.00  0.00     0.146 C 
BRANCH  15  16
HETATM   16  C   UNL     1       8.471  24.316  56.747  1.00  0.00     0.224 C 
HETATM   17  N   UNL     1       9.098  23.528  55.840  1.00  0.00    -0.326 N 
HETATM   18  H   UNL     1      10.113  23.631  55.877  1.00  0.00     0.169 HD
HETATM   19  O   UNL     1       9.128  25.169  57.360  1.00  0.00    -0.273 OA
BRANCH  17  20
HETATM   20  C   UNL     1       8.670  22.601  54.858  1.00  0.00     0.056 A 
HETATM   21  C   UNL     1       8.372  22.925  53.533  1.00  0.00     0.031 A 
HETATM   22  C   UNL     1       7.988  21.929  52.623  1.00  0.00     0.002 A 
HETATM   23  C   UNL     1       7.901  20.598  53.022  1.00  0.00     0.002 A 
HETATM   24  C   UNL     1       8.204  20.253  54.334  1.00  0.00     0.026 A 
HETATM   25  C   UNL     1       8.588  21.243  55.241  1.00  0.00     0.060 A 
HETATM   26 CL   UNL     1       8.966  20.754  56.860  1.00  0.00    -0.082 Cl
ENDBRANCH  17  20
ENDBRANCH  15  16
ENDBRANCH   1  15
TORSDOF 3
ENDMDL
MODEL 4
REMARK VINA RESULT:      -8.2      3.198      4.284
REMARK  3 active torsions:
REMARK  status: ('A' for Active; 'I' for Inactive)
REMARK    1  A    between atoms: C_3  and  N_4 
REMARK       I    between atoms: N_4  and  C_5 
REMARK    2  A    between atoms: C_5  and  C_6 
REMARK    3  A    between atoms: C_6  and  C_7 
ROOT
HETATM    1  C   UNL     1       7.918  24.569  55.046  1.00  0.00     0.286 C 
HETATM    2  N   UNL     1       6.860  23.662  54.425  1.00  0.00    -0.056 N 
HETATM    3  H   UNL     1       6.032  23.742  55.055  1.00  0.00     0.278 HD
HETATM    4  H   UNL     1       6.556  24.013  53.510  1.00  0.00     0.278 HD
HETATM    5  C   UNL     1       7.234  22.209  54.360  1.00  0.00     0.209 C 
HETATM    6  C   UNL     1       7.654  21.724  55.769  1.00  0.00     0.115 C 
HETATM    7  N   UNL     1       8.628  22.610  56.408  1.00  0.00    -0.353 N 
HETATM    8  C   UNL     1       8.559  23.980  56.321  1.00  0.00     0.249 C 
HETATM    9  O   UNL     1       9.088  24.680  57.178  1.00  0.00    -0.271 OA
HETATM   10  C   UNL     1       8.317  21.991  53.299  1.00  0.00     0.035 C 
HETATM   11  C   UNL     1       8.776  20.536  53.276  1.00  0.00     0.002 C 
HETATM   12  C   UNL     1       9.248  20.079  54.653  1.00  0.00     0.002 C 
HETATM   13  C   UNL     1       8.169  20.282  55.718  1.00  0.00     0.027 C 
HETATM   14  H   UNL     1       9.029  22.305  57.293  1.00  0.00     0.163 HD
ENDROOT
BRANCH   1  15
HETATM   15  C   UNL     1       7.357  25.978  55.295  1.00  0.00     0.146 C 
BRANCH  15  16
HETATM   16  C   UNL     1       5.862  25.936  55.467  1.00  0.00     0.224 C 
HETATM   17  N   UNL     1       5.007  26.504  54.581  1.00  0.00    -0.326 N 
HETATM   18  H   UNL     1       4.041  26.481  54.909  1.00  0.00     0.169 HD
HETATM   19  O   UNL     1       5.401  25.316  56.436  1.00  0.00    -0.273 OA
BRANCH  17  20
HETATM   20  C   UNL     1       5.147  27.114  53.311  1.00  0.00     0.056 A 
HETATM   21  C   UNL     1       5.454  28.461  53.103  1.00  0.00     0.031 A 
HETATM   22  C   UNL     1       5.606  28.968  51.804  1.00  0.00     0.002 A 
HETATM   23  C   UNL     1       5.458  28.137  50.696  1.00  0.00     0.002 A 
HETATM   24  C   UNL     1       5.161  26.791  50.881  1.00  0.00     0.026 A 
HETATM   25  C   UNL     1       5.012  26.285  52.174  1.00  0.00     0.060 A 
HETATM   26 CL   UNL     1       4.656  24.598  52.345  1.00  0.00    -0.082 Cl
ENDBRANCH  17  20
ENDBRANCH  15  16
ENDBRANCH   1  15
TORSDOF 3
ENDMDL
MODEL 5
REMARK VINA RESULT:      -8.1      4.263      7.274
REMARK  3 active torsions:
REMARK  status: ('A' for Active; 'I' for Inactive)
REMARK    1  A    between atoms: C_3  and  N_4 
REMARK       I    between atoms: N_4  and  C_5 
REMARK    2  A    between atoms: C_5  and  C_6 
REMARK    3  A    between atoms: C_6  and  C_7 
ROOT
HETATM    1  C   UNL     1       4.974  26.045  52.352  1.00  0.00     0.286 C 
HETATM    2  N   UNL     1       5.913  25.995  51.151  1.00  0.00    -0.056 N 
HETATM    3  H   UNL     1       6.812  26.397  51.495  1.00  0.00     0.278 HD
HETATM    4  H   UNL     1       6.120  25.029  50.877  1.00  0.00     0.278 HD
HETATM    5  C   UNL     1       5.475  26.819  49.974  1.00  0.00     0.209 C 
HETATM    6  C   UNL     1       5.206  28.271  50.436  1.00  0.00     0.115 C 
HETATM    7  N   UNL     1       4.352  28.342  51.622  1.00  0.00    -0.353 N 
HETATM    8  C   UNL     1       4.465  27.466  52.676  1.00  0.00     0.249 C 
HETATM    9  O   UNL     1       4.070  27.789  53.791  1.00  0.00    -0.271 OA
HETATM   10  C   UNL     1       4.267  26.167  49.296  1.00  0.00     0.035 C 
HETATM   11  C   UNL     1       3.750  27.033  48.150  1.00  0.00     0.002 C 
HETATM   12  C   UNL     1       3.426  28.447  48.622  1.00  0.00     0.002 C 
HETATM   13  C   UNL     1       4.631  29.111  49.291  1.00  0.00     0.027 C 
HETATM   14  H   UNL     1       4.047  29.265  51.926  1.00  0.00     0.163 HD
ENDROOT
BRANCH   1  15
HETATM   15  C   UNL     1       5.616  25.382  53.581  1.00  0.00     0.146 C 
BRANCH  15  16
HETATM   16  C   UNL     1       7.099  25.640  53.614  1.00  0.00     0.224 C 
HETATM   17  N   UNL     1       8.008  24.663  53.849  1.00  0.00    -0.326 N 
HETATM   18  H   UNL     1       8.954  25.033  53.949  1.00  0.00     0.169 HD
HETATM   19  O   UNL     1       7.499  26.788  53.370  1.00  0.00    -0.273 OA
BRANCH  17  20
HETATM   20  C   UNL     1       7.945  23.255  53.984  1.00  0.00     0.056 A 
HETATM   21  C   UNL     1       7.989  22.349  52.921  1.00  0.00     0.031 A 
HETATM   22  C   UNL     1       7.955  20.967  53.158  1.00  0.00     0.002 A 
HETATM   23  C   UNL     1       7.883  20.471  54.457  1.00  0.00     0.002 A 
HETATM   24  C   UNL     1       7.848  21.354  55.529  1.00  0.00     0.026 A 
HETATM   25  C   UNL     1       7.884  22.731  55.295  1.00  0.00     0.060 A 
HETATM   26 CL   UNL     1       7.852  23.785  56.670  1.00  0.00    -0.082 Cl
ENDBRANCH  17  20
ENDBRANCH  15  16
ENDBRANCH   1  15
TORSDOF 3
ENDMDL
MODEL 6
REMARK VINA RESULT:      -8.1      3.290      7.014
REMARK  3 active torsions:
REMARK  status: ('A' for Active; 'I' for Inactive)
REMARK    1  A    between atoms: C_3  and  N_4 
REMARK       I    between atoms: N_4  and  C_5 
REMARK    2  A    between atoms: C_5  and  C_6 
REMARK    3  A    between atoms: C_6  and  C_7 
ROOT
HETATM    1  C   UNL     1       5.840  26.643  55.993  1.00  0.00     0.286 C 
HETATM    2  N   UNL     1       4.458  27.038  56.505  1.00  0.00    -0.056 N 
HETATM    3  H   UNL     1       3.795  26.407  56.004  1.00  0.00     0.278 HD
HETATM    4  H   UNL     1       4.353  26.825  57.503  1.00  0.00     0.278 HD
HETATM    5  C   UNL     1       4.051  28.450  56.197  1.00  0.00     0.209 C 
HETATM    6  C   UNL     1       4.197  28.706  54.678  1.00  0.00     0.115 C 
HETATM    7  N   UNL     1       5.497  28.284  54.153  1.00  0.00    -0.353 N 
HETATM    8  C   UNL     1       6.123  27.128  54.556  1.00  0.00     0.249 C 
HETATM    9  O   UNL     1       6.949  26.589  53.826  1.00  0.00    -0.271 OA
HETATM   10  C   UNL     1       4.857  29.429  57.056  1.00  0.00     0.035 C 
HETATM   11  C   UNL     1       4.523  30.874  56.697  1.00  0.00     0.002 C 
HETATM   12  C   UNL     1       4.728  31.141  55.209  1.00  0.00     0.002 C 
HETATM   13  C   UNL     1       3.918  30.175  54.343  1.00  0.00     0.027 C 
HETATM   14  H   UNL     1       5.707  28.513  53.183  1.00  0.00     0.163 HD
ENDROOT
BRANCH   1  15
HETATM   15  C   UNL     1       6.067  25.130  56.133  1.00  0.00     0.146 C 
BRANCH  15  16
HETATM   16  C   UNL     1       7.444  24.843  56.670  1.00  0.00     0.224 C 
HETATM   17  N   UNL     1       8.203  23.812  56.225  1.00  0.00    -0.326 N 
HETATM   18  H   UNL     1       9.055  23.697  56.775  1.00  0.00     0.169 HD
HETATM   19  O   UNL     1       7.912  25.613  57.520  1.00  0.00    -0.273 OA
BRANCH  17  20
HETATM   20  C   UNL     1       8.087  22.867  55.178  1.00  0.00     0.056 A 
HETATM   21  C   UNL     1       7.968  23.188  53.823  1.00  0.00     0.031 A 
HETATM   22  C   UNL     1       7.892  22.178  52.853  1.00  0.00     0.002 A 
HETATM   23  C   UNL     1       7.940  20.836  53.220  1.00  0.00     0.002 A 
HETATM   24  C   UNL     1       8.069  20.494  54.562  1.00  0.00     0.026 A 
HETATM   25  C   UNL     1       8.146  21.499  55.529  1.00  0.00     0.060 A 
HETATM   26 CL   UNL     1       8.319  21.016  57.184  1.00  0.00    -0.082 Cl
ENDBRANCH  17  20
ENDBRANCH  15  16
ENDBRANCH   1  15
TORSDOF 3
ENDMDL
MODEL 7
REMARK VINA RESULT:      -8.1      2.446      3.505
REMARK  3 active torsions:
REMARK  status: ('A' for Active; 'I' for Inactive)
REMARK    1  A    between atoms: C_3  and  N_4 
REMARK       I    between atoms: N_4  and  C_5 
REMARK    2  A    between atoms: C_5  and  C_6 
REMARK    3  A    between atoms: C_6  and  C_7 
ROOT
HETATM    1  C   UNL     1       6.696  24.225  56.397  1.00  0.00     0.286 C 
HETATM    2  N   UNL     1       8.135  23.736  56.535  1.00  0.00    -0.056 N 
HETATM    3  H   UNL     1       8.723  24.583  56.379  1.00  0.00     0.278 HD
HETATM    4  H   UNL     1       8.335  23.424  57.491  1.00  0.00     0.278 HD
HETATM    5  C   UNL     1       8.552  22.708  55.522  1.00  0.00     0.209 C 
HETATM    6  C   UNL     1       8.258  23.242  54.100  1.00  0.00     0.115 C 
HETATM    7  N   UNL     1       6.900  23.767  53.959  1.00  0.00    -0.353 N 
HETATM    8  C   UNL     1       6.282  24.509  54.938  1.00  0.00     0.249 C 
HETATM    9  O   UNL     1       5.370  25.275  54.647  1.00  0.00    -0.271 OA
HETATM   10  C   UNL     1       7.869  21.370  55.819  1.00  0.00     0.035 C 
HETATM   11  C   UNL     1       8.209  20.334  54.752  1.00  0.00     0.002 C 
HETATM   12  C   UNL     1       7.861  20.838  53.355  1.00  0.00     0.002 C 
HETATM   13  C   UNL     1       8.547  22.169  53.045  1.00  0.00     0.027 C 
HETATM   14  H   UNL     1       6.598  24.042  53.026  1.00  0.00     0.163 HD
ENDROOT
BRANCH   1  15
HETATM   15  C   UNL     1       6.438  25.438  57.304  1.00  0.00     0.146 C 
BRANCH  15  16
HETATM   16  C   UNL     1       7.512  26.478  57.126  1.00  0.00     0.224 C 
HETATM   17  N   UNL     1       7.280  27.676  56.536  1.00  0.00    -0.326 N 
HETATM   18  H   UNL     1       8.140  28.209  56.396  1.00  0.00     0.169 HD
HETATM   19  O   UNL     1       8.639  26.239  57.582  1.00  0.00    -0.273 OA
BRANCH  17  20
HETATM   20  C   UNL     1       6.126  28.355  56.075  1.00  0.00     0.056 A 
HETATM   21  C   UNL     1       5.118  28.865  56.897  1.00  0.00     0.031 A 
HETATM   22  C   UNL     1       4.028  29.554  56.347  1.00  0.00     0.002 A 
HETATM   23  C   UNL     1       3.930  29.747  54.971  1.00  0.00     0.002 A 
HETATM   24  C   UNL     1       4.927  29.256  54.136  1.00  0.00     0.026 A 
HETATM   25  C   UNL     1       6.015  28.571  54.682  1.00  0.00     0.060 A 
HETATM   26 CL   UNL     1       7.234  27.992  53.595  1.00  0.00    -0.082 Cl
ENDBRANCH  17  20
ENDBRANCH  15  16
ENDBRANCH   1  15
TORSDOF 3
ENDMDL
MODEL 8
REMARK VINA RESULT:      -8.0      3.503      6.438
REMARK  3 active torsions:
REMARK  status: ('A' for Active; 'I' for Inactive)
REMARK    1  A    between atoms: C_3  and  N_4 
REMARK       I    between atoms: N_4  and  C_5 
REMARK    2  A    between atoms: C_5  and  C_6 
REMARK    3  A    between atoms: C_6  and  C_7 
ROOT
HETATM    1  C   UNL     1       5.767  25.600  54.889  1.00  0.00     0.286 C 
HETATM    2  N   UNL     1       6.830  25.636  53.795  1.00  0.00    -0.056 N 
HETATM    3  H   UNL     1       7.680  26.026  54.258  1.00  0.00     0.278 HD
HETATM    4  H   UNL     1       7.083  24.691  53.487  1.00  0.00     0.278 HD
HETATM    5  C   UNL     1       6.506  26.526  52.630  1.00  0.00     0.209 C 
HETATM    6  C   UNL     1       6.164  27.944  53.147  1.00  0.00     0.115 C 
HETATM    7  N   UNL     1       5.186  27.931  54.236  1.00  0.00    -0.353 N 
HETATM    8  C   UNL     1       5.202  26.993  55.241  1.00  0.00     0.249 C 
HETATM    9  O   UNL     1       4.683  27.241  56.324  1.00  0.00    -0.271 OA
HETATM   10  C   UNL     1       5.389  25.904  51.787  1.00  0.00     0.035 C 
HETATM   11  C   UNL     1       4.983  26.833  50.646  1.00  0.00     0.002 C 
HETATM   12  C   UNL     1       4.585  28.212  51.165  1.00  0.00     0.002 C 
HETATM   13  C   UNL     1       5.699  28.846  51.999  1.00  0.00     0.027 C 
HETATM   14  H   UNL     1       4.834  28.829  54.560  1.00  0.00     0.163 HD
ENDROOT
BRANCH   1  15
HETATM   15  C   UNL     1       6.286  24.870  56.137  1.00  0.00     0.146 C 
BRANCH  15  16
HETATM   16  C   UNL     1       7.787  24.959  56.224  1.00  0.00     0.224 C 
HETATM   17  N   UNL     1       8.606  23.978  55.770  1.00  0.00    -0.326 N 
HETATM   18  H   UNL     1       9.582  24.151  56.011  1.00  0.00     0.169 HD
HETATM   19  O   UNL     1       8.286  25.994  56.689  1.00  0.00    -0.273 OA
BRANCH  17  20
HETATM   20  C   UNL     1       8.418  22.779  55.042  1.00  0.00     0.056 A 
HETATM   21  C   UNL     1       8.390  22.689  53.648  1.00  0.00     0.031 A 
HETATM   22  C   UNL     1       8.232  21.447  53.015  1.00  0.00     0.002 A 
HETATM   23  C   UNL     1       8.104  20.280  53.763  1.00  0.00     0.002 A 
HETATM   24  C   UNL     1       8.138  20.346  55.151  1.00  0.00     0.026 A 
HETATM   25  C   UNL     1       8.298  21.582  55.783  1.00  0.00     0.060 A 
HETATM   26 CL   UNL     1       8.347  21.604  57.515  1.00  0.00    -0.082 Cl
ENDBRANCH  17  20
ENDBRANCH  15  16
ENDBRANCH   1  15
TORSDOF 3
ENDMDL
MODEL 9
REMARK VINA RESULT:      -8.0      2.220      3.309
REMARK  3 active torsions:
REMARK  status: ('A' for Active; 'I' for Inactive)
REMARK    1  A    between atoms: C_3  and  N_4 
REMARK       I    between atoms: N_4  and  C_5 
REMARK    2  A    between atoms: C_5  and  C_6 
REMARK    3  A    between atoms: C_6  and  C_7 
ROOT
HETATM    1  C   UNL     1       7.588  25.447  56.491  1.00  0.00     0.286 C 
HETATM    2  N   UNL     1       6.442  24.862  55.670  1.00  0.00    -0.056 N 
HETATM    3  H   UNL     1       5.750  24.529  56.375  1.00  0.00     0.278 HD
HETATM    4  H   UNL     1       5.965  25.587  55.124  1.00  0.00     0.278 HD
HETATM    5  C   UNL     1       6.816  23.685  54.816  1.00  0.00     0.209 C 
HETATM    6  C   UNL     1       7.502  22.612  55.694  1.00  0.00     0.115 C 
HETATM    7  N   UNL     1       8.570  23.160  56.532  1.00  0.00    -0.353 N 
HETATM    8  C   UNL     1       8.468  24.375  57.168  1.00  0.00     0.249 C 
HETATM    9  O   UNL     1       9.143  24.607  58.165  1.00  0.00    -0.271 OA
HETATM   10  C   UNL     1       7.678  24.143  53.636  1.00  0.00     0.035 C 
HETATM   11  C   UNL     1       8.142  22.952  52.803  1.00  0.00     0.002 C 
HETATM   12  C   UNL     1       8.874  21.924  53.660  1.00  0.00     0.002 C 
HETATM   13  C   UNL     1       8.017  21.452  54.835  1.00  0.00     0.027 C 
HETATM   14  H   UNL     1       9.136  22.500  57.062  1.00  0.00     0.163 HD
ENDROOT
BRANCH   1  15
HETATM   15  C   UNL     1       7.068  26.475  57.508  1.00  0.00     0.146 C 
BRANCH  15  16
HETATM   16  C   UNL     1       7.658  27.835  57.244  1.00  0.00     0.224 C 
HETATM   17  N   UNL     1       7.401  28.538  56.114  1.00  0.00    -0.326 N 
HETATM   18  H   UNL     1       7.970  29.383  56.049  1.00  0.00     0.169 HD
HETATM   19  O   UNL     1       8.368  28.345  58.122  1.00  0.00    -0.273 OA
BRANCH  17  20
HETATM   20  C   UNL     1       6.528  28.370  55.012  1.00  0.00     0.056 A 
HETATM   21  C   UNL     1       6.911  27.893  53.756  1.00  0.00     0.031 A 
HETATM   22  C   UNL     1       5.965  27.729  52.735  1.00  0.00     0.002 A 
HETATM   23  C   UNL     1       4.624  28.034  52.953  1.00  0.00     0.002 A 
HETATM   24  C   UNL     1       4.220  28.502  54.198  1.00  0.00     0.026 A 
HETATM   25  C   UNL     1       5.161  28.663  55.218  1.00  0.00     0.060 A 
HETATM   26 CL   UNL     1       4.598  29.237  56.753  1.00  0.00    -0.082 Cl
ENDBRANCH  17  20
ENDBRANCH  15  16
ENDBRANCH   1  15
TORSDOF 3
ENDMDL
MODEL 10
REMARK VINA RESULT:      -8.0      3.268      4.187
REMARK  3 active torsions:
REMARK  status: ('A' for Active; 'I' for Inactive)
REMARK    1  A    between atoms: C_3  and  N_4 
REMARK       I    between atoms: N_4  and  C_5 
REMARK    2  A    between atoms: C_5  and  C_6 
REMARK    3  A    between atoms: C_6  and  C_7 
ROOT
HETATM    1  C   UNL     1       6.811  24.643  55.529  1.00  0.00     0.286 C 
HETATM    2  N   UNL     1       8.250  24.251  55.854  1.00  0.00    -0.056 N 
HETATM    3  H   UNL     1       8.837  24.981  55.396  1.00  0.00     0.278 HD
HETATM    4  H   UNL     1       8.440  24.323  56.859  1.00  0.00     0.278 HD
HETATM    5  C   UNL     1       8.680  22.921  55.306  1.00  0.00     0.209 C 
HETATM    6  C   UNL     1       8.400  22.879  53.784  1.00  0.00     0.115 C 
HETATM    7  N   UNL     1       7.042  23.304  53.444  1.00  0.00    -0.353 N 
HETATM    8  C   UNL     1       6.412  24.355  54.067  1.00  0.00     0.249 C 
HETATM    9  O   UNL     1       5.501  24.950  53.501  1.00  0.00    -0.271 OA
HETATM   10  C   UNL     1       7.998  21.788  56.078  1.00  0.00     0.035 C 
HETATM   11  C   UNL     1       8.352  20.429  55.481  1.00  0.00     0.002 C 
HETATM   12  C   UNL     1       8.017  20.369  53.994  1.00  0.00     0.002 C 
HETATM   13  C   UNL     1       8.703  21.490  53.212  1.00  0.00     0.027 C 
HETATM   14  H   UNL     1       6.749  23.206  52.474  1.00  0.00     0.163 HD
ENDROOT
BRANCH   1  15
HETATM   15  C   UNL     1       6.540  26.107  55.912  1.00  0.00     0.146 C 
BRANCH  15  16
HETATM   16  C   UNL     1       5.231  26.234  56.645  1.00  0.00     0.224 C 
HETATM   17  N   UNL     1       4.370  27.259  56.432  1.00  0.00    -0.326 N 
HETATM   18  H   UNL     1       3.591  27.250  57.092  1.00  0.00     0.169 HD
HETATM   19  O   UNL     1       4.916  25.337  57.439  1.00  0.00    -0.273 OA
BRANCH  17  20
HETATM   20  C   UNL     1       4.303  28.330  55.509  1.00  0.00     0.056 A 
HETATM   21  C   UNL     1       4.052  28.191  54.142  1.00  0.00     0.031 A 
HETATM   22  C   UNL     1       3.970  29.318  53.311  1.00  0.00     0.002 A 
HETATM   23  C   UNL     1       4.132  30.598  53.834  1.00  0.00     0.002 A 
HETATM   24  C   UNL     1       4.373  30.760  55.193  1.00  0.00     0.026 A 
HETATM   25  C   UNL     1       4.452  29.639  56.022  1.00  0.00     0.060 A 
HETATM   26 CL   UNL     1       4.742  29.901  57.711  1.00  0.00    -0.082 Cl
ENDBRANCH  17  20
ENDBRANCH  15  16
ENDBRANCH   1  15
TORSDOF 3
ENDMDL
