MODEL 1
REMARK VINA RESULT:      -9.6      0.000      0.000
REMARK  3 active torsions:
REMARK  status: ('A' for Active; 'I' for Inactive)
REMARK    1  A    between atoms: C_2  and  C_3 
REMARK    2  A    between atoms: C_11  and  C_12 
REMARK    3  A    between atoms: C_12  and  C_13 
ROOT
HETATM    1  C   UNL     1       7.843  21.566  54.881  1.00  0.00     0.041 A 
HETATM    2  N   UNL     1       7.610  22.561  55.771  1.00  0.00    -0.245 NA
HETATM    3  C   UNL     1       7.390  23.776  55.233  1.00  0.00     0.111 A 
HETATM    4  C   UNL     1       7.385  24.095  53.883  1.00  0.00     0.028 A 
HETATM    5  C   UNL     1       7.648  23.036  52.988  1.00  0.00     0.025 A 
HETATM    6  C   UNL     1       7.888  21.750  53.492  1.00  0.00    -0.036 A 
HETATM    7  C   UNL     1       8.144  20.626  52.532  1.00  0.00     0.050 C 
HETATM    8  S   UNL     1       7.064  25.119  56.227  1.00  0.00    -0.063 SA
HETATM    9  C   UNL     1       6.932  26.176  54.883  1.00  0.00     0.085 A 
HETATM   10  C   UNL     1       7.096  25.485  53.696  1.00  0.00     0.060 A 
HETATM   11  N   UNL     1       6.997  26.074  52.478  1.00  0.00    -0.397 N 
HETATM   12  H   UNL     1       6.551  26.994  52.415  1.00  0.00     0.156 HD
HETATM   13  H   UNL     1       6.846  25.521  51.640  1.00  0.00     0.156 HD
ENDROOT
BRANCH   9  14
HETATM   14  C   UNL     1       6.590  27.581  55.041  1.00  0.00     0.201 C 
HETATM   15  O   UNL     1       5.688  28.117  54.391  1.00  0.00    -0.286 OA
BRANCH  14  16
HETATM   16  C   UNL     1       7.344  28.466  55.971  1.00  0.00     0.018 A 
HETATM   17  C   UNL     1       8.635  28.871  55.599  1.00  0.00     0.055 A 
HETATM   18  C   UNL     1       9.350  29.635  56.495  1.00  0.00     0.106 A 
HETATM   19  C   UNL     1       8.834  29.993  57.719  1.00  0.00     0.105 A 
HETATM   20  O   UNL     1      10.611  30.108  56.306  1.00  0.00    -0.323 OA
HETATM   21  O   UNL     1       9.706  30.734  58.452  1.00  0.00    -0.323 OA
HETATM   22  C   UNL     1       7.574  29.603  58.119  1.00  0.00     0.040 A 
HETATM   23  C   UNL     1      10.838  30.788  57.558  1.00  0.00     0.352 A 
HETATM   24  C   UNL     1       6.823  28.820  57.236  1.00  0.00     0.018 A 
ENDBRANCH  14  16
ENDBRANCH   9  14
BRANCH   1  25
HETATM   25  C   UNL     1       8.078  20.212  55.510  1.00  0.00     0.055 C 
HETATM   26  C   UNL     1       9.151  20.265  56.586  1.00  0.00     0.011 C 
ENDBRANCH   1  25
TORSDOF 3
ENDMDL
MODEL 2
REMARK VINA RESULT:      -9.4      1.607      2.756
REMARK  3 active torsions:
REMARK  status: ('A' for Active; 'I' for Inactive)
REMARK    1  A    between atoms: C_2  and  C_3 
REMARK    2  A    between atoms: C_11  and  C_12 
REMARK    3  A    between atoms: C_12  and  C_13 
ROOT
HETATM    1  C   UNL     1       8.609  22.220  54.419  1.00  0.00     0.041 A 
HETATM    2  N   UNL     1       8.244  23.438  53.952  1.00  0.00    -0.245 NA
HETATM    3  C   UNL     1       7.955  24.354  54.896  1.00  0.00     0.111 A 
HETATM    4  C   UNL     1       7.991  24.167  56.270  1.00  0.00     0.028 A 
HETATM    5  C   UNL     1       8.360  22.881  56.717  1.00  0.00     0.025 A 
HETATM    6  C   UNL     1       8.668  21.886  55.779  1.00  0.00    -0.036 A 
HETATM    7  C   UNL     1       9.081  20.527  56.264  1.00  0.00     0.050 C 
HETATM    8  S   UNL     1       7.499  25.936  54.460  1.00  0.00    -0.063 SA
HETATM    9  C   UNL     1       7.311  26.413  56.095  1.00  0.00     0.085 A 
HETATM   10  C   UNL     1       7.638  25.376  56.952  1.00  0.00     0.060 A 
HETATM   11  N   UNL     1       7.617  25.497  58.302  1.00  0.00    -0.397 N 
HETATM   12  H   UNL     1       7.598  26.439  58.707  1.00  0.00     0.156 HD
HETATM   13  H   UNL     1       8.112  24.839  58.894  1.00  0.00     0.156 HD
ENDROOT
BRANCH   9  14
HETATM   14  C   UNL     1       6.951  27.774  56.463  1.00  0.00     0.201 C 
HETATM   15  O   UNL     1       5.797  28.200  56.363  1.00  0.00    -0.286 OA
BRANCH  14  16
HETATM   16  C   UNL     1       7.971  28.746  56.942  1.00  0.00     0.018 A 
HETATM   17  C   UNL     1       7.720  29.434  58.139  1.00  0.00     0.055 A 
HETATM   18  C   UNL     1       8.639  30.379  58.541  1.00  0.00     0.106 A 
HETATM   19  C   UNL     1       9.766  30.656  57.802  1.00  0.00     0.105 A 
HETATM   20  O   UNL     1       8.555  31.141  59.664  1.00  0.00    -0.323 OA
HETATM   21  O   UNL     1      10.530  31.627  58.368  1.00  0.00    -0.323 OA
HETATM   22  C   UNL     1      10.037  30.006  56.617  1.00  0.00     0.040 A 
HETATM   23  C   UNL     1       9.747  31.944  59.539  1.00  0.00     0.352 A 
HETATM   24  C   UNL     1       9.121  29.045  56.176  1.00  0.00     0.018 A 
ENDBRANCH  14  16
ENDBRANCH   9  14
BRANCH   1  25
HETATM   25  C   UNL     1       8.937  21.213  53.340  1.00  0.00     0.055 C 
HETATM   26  C   UNL     1       7.700  20.462  52.873  1.00  0.00     0.011 C 
ENDBRANCH   1  25
TORSDOF 3
ENDMDL
MODEL 3
REMARK VINA RESULT:      -9.1      2.081      2.898
REMARK  3 active torsions:
REMARK  status: ('A' for Active; 'I' for Inactive)
REMARK    1  A    between atoms: C_2  and  C_3 
REMARK    2  A    between atoms: C_11  and  C_12 
REMARK    3  A    between atoms: C_12  and  C_13 
ROOT
HETATM    1  C   UNL     1       7.761  21.767  54.896  1.00  0.00     0.041 A 
HETATM    2  N   UNL     1       7.416  22.895  55.563  1.00  0.00    -0.245 NA
HETATM    3  C   UNL     1       7.212  23.980  54.792  1.00  0.00     0.111 A 
HETATM    4  C   UNL     1       7.325  24.049  53.411  1.00  0.00     0.028 A 
HETATM    5  C   UNL     1       7.701  22.858  52.755  1.00  0.00     0.025 A 
HETATM    6  C   UNL     1       7.931  21.697  53.507  1.00  0.00    -0.036 A 
HETATM    7  C   UNL     1       8.309  20.430  52.797  1.00  0.00     0.050 C 
HETATM    8  S   UNL     1       6.755  25.465  55.488  1.00  0.00    -0.063 SA
HETATM    9  C   UNL     1       6.718  26.253  53.966  1.00  0.00     0.085 A 
HETATM   10  C   UNL     1       7.014  25.366  52.946  1.00  0.00     0.060 A 
HETATM   11  N   UNL     1       7.013  25.719  51.636  1.00  0.00    -0.397 N 
HETATM   12  H   UNL     1       6.548  26.592  51.366  1.00  0.00     0.156 HD
HETATM   13  H   UNL     1       6.957  25.017  50.905  1.00  0.00     0.156 HD
ENDROOT
BRANCH   9  14
HETATM   14  C   UNL     1       6.322  27.647  53.831  1.00  0.00     0.201 C 
HETATM   15  O   UNL     1       6.250  28.208  52.734  1.00  0.00    -0.286 OA
BRANCH  14  16
HETATM   16  C   UNL     1       6.022  28.489  55.021  1.00  0.00     0.018 A 
HETATM   17  C   UNL     1       4.678  28.768  55.313  1.00  0.00     0.055 A 
HETATM   18  C   UNL     1       4.413  29.601  56.378  1.00  0.00     0.106 A 
HETATM   19  C   UNL     1       5.420  30.156  57.134  1.00  0.00     0.105 A 
HETATM   20  O   UNL     1       3.178  29.984  56.799  1.00  0.00    -0.323 OA
HETATM   21  O   UNL     1       4.942  30.955  58.124  1.00  0.00    -0.323 OA
HETATM   22  C   UNL     1       6.749  29.911  56.868  1.00  0.00     0.040 A 
HETATM   23  C   UNL     1       3.521  30.857  57.894  1.00  0.00     0.352 A 
HETATM   24  C   UNL     1       7.054  29.073  55.789  1.00  0.00     0.018 A 
ENDBRANCH  14  16
ENDBRANCH   9  14
BRANCH   1  25
HETATM   25  C   UNL     1       7.975  20.561  55.782  1.00  0.00     0.055 C 
HETATM   26  C   UNL     1       8.420  20.959  57.181  1.00  0.00     0.011 C 
ENDBRANCH   1  25
TORSDOF 3
ENDMDL
MODEL 4
REMARK VINA RESULT:      -8.8      3.092      7.624
REMARK  3 active torsions:
REMARK  status: ('A' for Active; 'I' for Inactive)
REMARK    1  A    between atoms: C_2  and  C_3 
REMARK    2  A    between atoms: C_11  and  C_12 
REMARK    3  A    between atoms: C_12  and  C_13 
ROOT
HETATM    1  C   UNL     1       7.873  29.752  58.398  1.00  0.00     0.041 A 
HETATM    2  N   UNL     1       8.282  28.554  57.917  1.00  0.00    -0.245 NA
HETATM    3  C   UNL     1       7.419  27.942  57.084  1.00  0.00     0.111 A 
HETATM    4  C   UNL     1       6.177  28.414  56.686  1.00  0.00     0.028 A 
HETATM    5  C   UNL     1       5.780  29.658  57.221  1.00  0.00     0.025 A 
HETATM    6  C   UNL     1       6.636  30.338  58.098  1.00  0.00    -0.036 A 
HETATM    7  C   UNL     1       6.214  31.670  58.644  1.00  0.00     0.050 C 
HETATM    8  S   UNL     1       7.805  26.438  56.385  1.00  0.00    -0.063 SA
HETATM    9  C   UNL     1       6.311  26.359  55.548  1.00  0.00     0.085 A 
HETATM   10  C   UNL     1       5.557  27.496  55.778  1.00  0.00     0.060 A 
HETATM   11  N   UNL     1       4.347  27.711  55.203  1.00  0.00    -0.397 N 
HETATM   12  H   UNL     1       4.086  27.144  54.391  1.00  0.00     0.156 HD
HETATM   13  H   UNL     1       3.946  28.643  55.161  1.00  0.00     0.156 HD
ENDROOT
BRANCH   9  14
HETATM   14  C   UNL     1       5.988  25.259  54.652  1.00  0.00     0.201 C 
HETATM   15  O   UNL     1       4.985  25.267  53.933  1.00  0.00    -0.286 OA
BRANCH  14  16
HETATM   16  C   UNL     1       6.834  24.036  54.586  1.00  0.00     0.018 A 
HETATM   17  C   UNL     1       7.049  23.314  55.771  1.00  0.00     0.055 A 
HETATM   18  C   UNL     1       7.886  22.222  55.713  1.00  0.00     0.106 A 
HETATM   19  C   UNL     1       8.503  21.841  54.544  1.00  0.00     0.105 A 
HETATM   20  O   UNL     1       8.213  21.415  56.758  1.00  0.00    -0.323 OA
HETATM   21  O   UNL     1       9.294  20.748  54.708  1.00  0.00    -0.323 OA
HETATM   22  C   UNL     1       8.322  22.533  53.366  1.00  0.00     0.040 A 
HETATM   23  C   UNL     1       9.120  20.494  56.119  1.00  0.00     0.352 A 
HETATM   24  C   UNL     1       7.483  23.653  53.391  1.00  0.00     0.018 A 
ENDBRANCH  14  16
ENDBRANCH   9  14
BRANCH   1  25
HETATM   25  C   UNL     1       8.863  30.421  59.325  1.00  0.00     0.055 C 
HETATM   26  C   UNL     1       9.890  31.240  58.559  1.00  0.00     0.011 C 
ENDBRANCH   1  25
TORSDOF 3
ENDMDL
MODEL 5
REMARK VINA RESULT:      -8.6      6.342     10.872
REMARK  3 active torsions:
REMARK  status: ('A' for Active; 'I' for Inactive)
REMARK    1  A    between atoms: C_2  and  C_3 
REMARK    2  A    between atoms: C_11  and  C_12 
REMARK    3  A    between atoms: C_12  and  C_13 
ROOT
HETATM    1  C   UNL     1       5.347  33.760  64.381  1.00  0.00     0.041 A 
HETATM    2  N   UNL     1       5.083  33.502  63.078  1.00  0.00    -0.245 NA
HETATM    3  C   UNL     1       6.126  33.051  62.356  1.00  0.00     0.111 A 
HETATM    4  C   UNL     1       7.418  32.835  62.814  1.00  0.00     0.028 A 
HETATM    5  C   UNL     1       7.658  33.129  64.172  1.00  0.00     0.025 A 
HETATM    6  C   UNL     1       6.609  33.607  64.971  1.00  0.00    -0.036 A 
HETATM    7  C   UNL     1       6.869  33.897  66.420  1.00  0.00     0.050 C 
HETATM    8  S   UNL     1       5.940  32.666  60.708  1.00  0.00    -0.063 SA
HETATM    9  C   UNL     1       7.588  32.223  60.548  1.00  0.00     0.085 A 
HETATM   10  C   UNL     1       8.247  32.333  61.760  1.00  0.00     0.060 A 
HETATM   11  N   UNL     1       9.553  32.003  61.924  1.00  0.00    -0.397 N 
HETATM   12  H   UNL     1      10.005  31.429  61.206  1.00  0.00     0.156 HD
HETATM   13  H   UNL     1       9.935  31.828  62.848  1.00  0.00     0.156 HD
ENDROOT
BRANCH   9  14
HETATM   14  C   UNL     1       8.129  31.710  59.298  1.00  0.00     0.201 C 
HETATM   15  O   UNL     1       9.122  32.205  58.758  1.00  0.00    -0.286 OA
BRANCH  14  16
HETATM   16  C   UNL     1       7.483  30.580  58.576  1.00  0.00     0.018 A 
HETATM   17  C   UNL     1       8.117  29.328  58.602  1.00  0.00     0.055 A 
HETATM   18  C   UNL     1       7.547  28.305  57.878  1.00  0.00     0.106 A 
HETATM   19  C   UNL     1       6.398  28.488  57.143  1.00  0.00     0.105 A 
HETATM   20  O   UNL     1       8.025  27.036  57.782  1.00  0.00    -0.323 OA
HETATM   21  O   UNL     1       6.012  27.358  56.495  1.00  0.00    -0.323 OA
HETATM   22  C   UNL     1       5.756  29.707  57.088  1.00  0.00     0.040 A 
HETATM   23  C   UNL     1       7.059  26.445  56.890  1.00  0.00     0.352 A 
HETATM   24  C   UNL     1       6.312  30.770  57.808  1.00  0.00     0.018 A 
ENDBRANCH  14  16
ENDBRANCH   9  14
BRANCH   1  25
HETATM   25  C   UNL     1       4.158  34.257  65.171  1.00  0.00     0.055 C 
HETATM   26  C   UNL     1       3.945  35.752  64.993  1.00  0.00     0.011 C 
ENDBRANCH   1  25
TORSDOF 3
ENDMDL
MODEL 6
REMARK VINA RESULT:      -8.6      2.812      7.582
REMARK  3 active torsions:
REMARK  status: ('A' for Active; 'I' for Inactive)
REMARK    1  A    between atoms: C_2  and  C_3 
REMARK    2  A    between atoms: C_11  and  C_12 
REMARK    3  A    between atoms: C_12  and  C_13 
ROOT
HETATM    1  C   UNL     1       8.727  29.979  58.838  1.00  0.00     0.041 A 
HETATM    2  N   UNL     1       7.721  29.083  58.693  1.00  0.00    -0.245 NA
HETATM    3  C   UNL     1       7.554  28.601  57.446  1.00  0.00     0.111 A 
HETATM    4  C   UNL     1       8.299  28.934  56.324  1.00  0.00     0.028 A 
HETATM    5  C   UNL     1       9.326  29.882  56.513  1.00  0.00     0.025 A 
HETATM    6  C   UNL     1       9.542  30.421  57.788  1.00  0.00    -0.036 A 
HETATM    7  C   UNL     1      10.652  31.412  57.984  1.00  0.00     0.050 C 
HETATM    8  S   UNL     1       6.342  27.453  57.114  1.00  0.00    -0.063 SA
HETATM    9  C   UNL     1       6.758  27.383  55.453  1.00  0.00     0.085 A 
HETATM   10  C   UNL     1       7.840  28.203  55.181  1.00  0.00     0.060 A 
HETATM   11  N   UNL     1       8.401  28.303  53.950  1.00  0.00    -0.397 N 
HETATM   12  H   UNL     1       8.186  27.581  53.256  1.00  0.00     0.156 HD
HETATM   13  H   UNL     1       9.335  28.680  53.831  1.00  0.00     0.156 HD
ENDROOT
BRANCH   9  14
HETATM   14  C   UNL     1       6.085  26.483  54.529  1.00  0.00     0.201 C 
HETATM   15  O   UNL     1       4.974  26.737  54.053  1.00  0.00    -0.286 OA
BRANCH  14  16
HETATM   16  C   UNL     1       6.685  25.178  54.138  1.00  0.00     0.018 A 
HETATM   17  C   UNL     1       6.733  24.157  55.100  1.00  0.00     0.055 A 
HETATM   18  C   UNL     1       7.349  22.975  54.750  1.00  0.00     0.106 A 
HETATM   19  C   UNL     1       7.908  22.788  53.506  1.00  0.00     0.105 A 
HETATM   20  O   UNL     1       7.494  21.887  55.552  1.00  0.00    -0.323 OA
HETATM   21  O   UNL     1       8.473  21.559  53.373  1.00  0.00    -0.323 OA
HETATM   22  C   UNL     1       7.886  23.773  52.543  1.00  0.00     0.040 A 
HETATM   23  C   UNL     1       8.224  21.000  54.680  1.00  0.00     0.352 A 
HETATM   24  C   UNL     1       7.274  24.989  52.868  1.00  0.00     0.018 A 
ENDBRANCH  14  16
ENDBRANCH   9  14
BRANCH   1  25
HETATM   25  C   UNL     1       8.897  30.499  60.248  1.00  0.00     0.055 C 
HETATM   26  C   UNL     1       8.138  31.797  60.469  1.00  0.00     0.011 C 
ENDBRANCH   1  25
TORSDOF 3
ENDMDL
MODEL 7
REMARK VINA RESULT:      -8.3      4.129      6.199
REMARK  3 active torsions:
REMARK  status: ('A' for Active; 'I' for Inactive)
REMARK    1  A    between atoms: C_2  and  C_3 
REMARK    2  A    between atoms: C_11  and  C_12 
REMARK    3  A    between atoms: C_12  and  C_13 
ROOT
HETATM    1  C   UNL     1       7.997  22.803  53.871  1.00  0.00     0.041 A 
HETATM    2  N   UNL     1       7.515  23.545  52.846  1.00  0.00    -0.245 NA
HETATM    3  C   UNL     1       6.711  24.566  53.200  1.00  0.00     0.111 A 
HETATM    4  C   UNL     1       6.338  24.916  54.490  1.00  0.00     0.028 A 
HETATM    5  C   UNL     1       6.848  24.111  55.529  1.00  0.00     0.025 A 
HETATM    6  C   UNL     1       7.686  23.031  55.219  1.00  0.00    -0.036 A 
HETATM    7  C   UNL     1       8.241  22.193  56.333  1.00  0.00     0.050 C 
HETATM    8  S   UNL     1       6.046  25.597  52.020  1.00  0.00    -0.063 SA
HETATM    9  C   UNL     1       5.216  26.529  53.195  1.00  0.00     0.085 A 
HETATM   10  C   UNL     1       5.490  26.070  54.471  1.00  0.00     0.060 A 
HETATM   11  N   UNL     1       4.995  26.656  55.591  1.00  0.00    -0.397 N 
HETATM   12  H   UNL     1       4.610  27.602  55.516  1.00  0.00     0.156 HD
HETATM   13  H   UNL     1       5.416  26.486  56.499  1.00  0.00     0.156 HD
ENDROOT
BRANCH   9  14
HETATM   14  C   UNL     1       4.427  27.697  52.833  1.00  0.00     0.201 C 
HETATM   15  O   UNL     1       3.590  28.189  53.595  1.00  0.00    -0.286 OA
BRANCH  14  16
HETATM   16  C   UNL     1       4.558  28.341  51.498  1.00  0.00     0.018 A 
HETATM   17  C   UNL     1       3.680  27.939  50.480  1.00  0.00     0.055 A 
HETATM   18  C   UNL     1       3.850  28.493  49.230  1.00  0.00     0.106 A 
HETATM   19  C   UNL     1       4.847  29.405  48.969  1.00  0.00     0.105 A 
HETATM   20  O   UNL     1       3.101  28.216  48.129  1.00  0.00    -0.323 OA
HETATM   21  O   UNL     1       4.848  29.815  47.673  1.00  0.00    -0.323 OA
HETATM   22  C   UNL     1       5.732  29.813  49.943  1.00  0.00     0.040 A 
HETATM   23  C   UNL     1       3.750  29.043  47.142  1.00  0.00     0.352 A 
HETATM   24  C   UNL     1       5.591  29.265  51.223  1.00  0.00     0.018 A 
ENDBRANCH  14  16
ENDBRANCH   9  14
BRANCH   1  25
HETATM   25  C   UNL     1       8.902  21.669  53.447  1.00  0.00     0.055 C 
HETATM   26  C   UNL     1       8.116  20.501  52.873  1.00  0.00     0.011 C 
ENDBRANCH   1  25
TORSDOF 3
ENDMDL
MODEL 8
REMARK VINA RESULT:      -8.2      1.894      2.682
REMARK  3 active torsions:
REMARK  status: ('A' for Active; 'I' for Inactive)
REMARK    1  A    between atoms: C_2  and  C_3 
REMARK    2  A    between atoms: C_11  and  C_12 
REMARK    3  A    between atoms: C_12  and  C_13 
ROOT
HETATM    1  C   UNL     1       7.266  23.728  55.157  1.00  0.00     0.041 A 
HETATM    2  N   UNL     1       6.798  24.544  56.131  1.00  0.00    -0.245 NA
HETATM    3  C   UNL     1       6.707  25.846  55.799  1.00  0.00     0.111 A 
HETATM    4  C   UNL     1       7.045  26.415  54.579  1.00  0.00     0.028 A 
HETATM    5  C   UNL     1       7.544  25.535  53.596  1.00  0.00     0.025 A 
HETATM    6  C   UNL     1       7.665  24.169  53.888  1.00  0.00    -0.036 A 
HETATM    7  C   UNL     1       8.176  23.238  52.828  1.00  0.00     0.050 C 
HETATM    8  S   UNL     1       6.117  26.988  56.915  1.00  0.00    -0.063 SA
HETATM    9  C   UNL     1       6.320  28.284  55.811  1.00  0.00     0.085 A 
HETATM   10  C   UNL     1       6.794  27.824  54.595  1.00  0.00     0.060 A 
HETATM   11  N   UNL     1       7.004  28.636  53.528  1.00  0.00    -0.397 N 
HETATM   12  H   UNL     1       6.576  29.567  53.532  1.00  0.00     0.156 HD
HETATM   13  H   UNL     1       7.082  28.257  52.590  1.00  0.00     0.156 HD
ENDROOT
BRANCH   9  14
HETATM   14  C   UNL     1       5.929  29.646  56.143  1.00  0.00     0.201 C 
HETATM   15  O   UNL     1       5.181  30.311  55.421  1.00  0.00    -0.286 OA
BRANCH  14  16
HETATM   16  C   UNL     1       6.449  30.330  57.358  1.00  0.00     0.018 A 
HETATM   17  C   UNL     1       7.604  29.813  57.966  1.00  0.00     0.055 A 
HETATM   18  C   UNL     1       8.041  30.413  59.126  1.00  0.00     0.106 A 
HETATM   19  C   UNL     1       7.376  31.479  59.688  1.00  0.00     0.105 A 
HETATM   20  O   UNL     1       9.131  30.043  59.851  1.00  0.00    -0.323 OA
HETATM   21  O   UNL     1       7.965  31.911  60.834  1.00  0.00    -0.323 OA
HETATM   22  C   UNL     1       6.234  32.004  59.122  1.00  0.00     0.040 A 
HETATM   23  C   UNL     1       9.066  30.984  60.942  1.00  0.00     0.352 A 
HETATM   24  C   UNL     1       5.759  31.414  57.945  1.00  0.00     0.018 A 
ENDBRANCH  14  16
ENDBRANCH   9  14
BRANCH   1  25
HETATM   25  C   UNL     1       7.350  22.272  55.553  1.00  0.00     0.055 C 
HETATM   26  C   UNL     1       8.652  21.955  56.273  1.00  0.00     0.011 C 
ENDBRANCH   1  25
TORSDOF 3
ENDMDL
MODEL 9
REMARK VINA RESULT:      -8.0      4.768      7.447
REMARK  3 active torsions:
REMARK  status: ('A' for Active; 'I' for Inactive)
REMARK    1  A    between atoms: C_2  and  C_3 
REMARK    2  A    between atoms: C_11  and  C_12 
REMARK    3  A    between atoms: C_12  and  C_13 
ROOT
HETATM    1  C   UNL     1       7.322  23.606  54.628  1.00  0.00     0.041 A 
HETATM    2  N   UNL     1       6.641  23.801  53.474  1.00  0.00    -0.245 NA
HETATM    3  C   UNL     1       6.444  25.088  53.129  1.00  0.00     0.111 A 
HETATM    4  C   UNL     1       6.862  26.207  53.836  1.00  0.00     0.028 A 
HETATM    5  C   UNL     1       7.555  25.963  55.041  1.00  0.00     0.025 A 
HETATM    6  C   UNL     1       7.784  24.643  55.451  1.00  0.00    -0.036 A 
HETATM    7  C   UNL     1       8.540  24.394  56.723  1.00  0.00     0.050 C 
HETATM    8  S   UNL     1       5.621  25.487  51.694  1.00  0.00    -0.063 SA
HETATM    9  C   UNL     1       5.775  27.169  51.985  1.00  0.00     0.085 A 
HETATM   10  C   UNL     1       6.487  27.405  53.147  1.00  0.00     0.060 A 
HETATM   11  N   UNL     1       6.790  28.651  53.590  1.00  0.00    -0.397 N 
HETATM   12  H   UNL     1       6.709  29.434  52.934  1.00  0.00     0.156 HD
HETATM   13  H   UNL     1       7.528  28.799  54.270  1.00  0.00     0.156 HD
ENDROOT
BRANCH   9  14
HETATM   14  C   UNL     1       5.286  28.161  51.039  1.00  0.00     0.201 C 
HETATM   15  O   UNL     1       5.473  29.371  51.197  1.00  0.00    -0.286 OA
BRANCH  14  16
HETATM   16  C   UNL     1       4.491  27.770  49.842  1.00  0.00     0.018 A 
HETATM   17  C   UNL     1       3.140  28.146  49.794  1.00  0.00     0.055 A 
HETATM   18  C   UNL     1       2.395  27.723  48.714  1.00  0.00     0.106 A 
HETATM   19  C   UNL     1       2.941  26.953  47.712  1.00  0.00     0.105 A 
HETATM   20  O   UNL     1       1.077  27.985  48.506  1.00  0.00    -0.323 OA
HETATM   21  O   UNL     1       2.034  26.636  46.751  1.00  0.00    -0.323 OA
HETATM   22  C   UNL     1       4.261  26.559  47.735  1.00  0.00     0.040 A 
HETATM   23  C   UNL     1       0.849  27.278  47.270  1.00  0.00     0.352 A 
HETATM   24  C   UNL     1       5.044  26.965  48.821  1.00  0.00     0.018 A 
ENDBRANCH  14  16
ENDBRANCH   9  14
BRANCH   1  25
HETATM   25  C   UNL     1       7.536  22.154  54.987  1.00  0.00     0.055 C 
HETATM   26  C   UNL     1       7.887  21.315  53.769  1.00  0.00     0.011 C 
ENDBRANCH   1  25
TORSDOF 3
ENDMDL
MODEL 10
REMARK VINA RESULT:      -7.9      5.594     10.416
REMARK  3 active torsions:
REMARK  status: ('A' for Active; 'I' for Inactive)
REMARK    1  A    between atoms: C_2  and  C_3 
REMARK    2  A    between atoms: C_11  and  C_12 
REMARK    3  A    between atoms: C_12  and  C_13 
ROOT
HETATM    1  C   UNL     1       6.073  33.973  63.178  1.00  0.00     0.041 A 
HETATM    2  N   UNL     1       5.958  33.685  61.859  1.00  0.00    -0.245 NA
HETATM    3  C   UNL     1       6.823  32.764  61.392  1.00  0.00     0.111 A 
HETATM    4  C   UNL     1       7.800  32.101  62.121  1.00  0.00     0.028 A 
HETATM    5  C   UNL     1       7.899  32.440  63.487  1.00  0.00     0.025 A 
HETATM    6  C   UNL     1       7.028  33.396  64.027  1.00  0.00    -0.036 A 
HETATM    7  C   UNL     1       7.126  33.734  65.486  1.00  0.00     0.050 C 
HETATM    8  S   UNL     1       6.784  32.286  59.759  1.00  0.00    -0.063 SA
HETATM    9  C   UNL     1       8.091  31.197  59.969  1.00  0.00     0.085 A 
HETATM   10  C   UNL     1       8.511  31.180  61.287  1.00  0.00     0.060 A 
HETATM   11  N   UNL     1       9.504  30.373  61.737  1.00  0.00    -0.397 N 
HETATM   12  H   UNL     1       9.791  29.580  61.154  1.00  0.00     0.156 HD
HETATM   13  H   UNL     1       9.608  30.174  62.727  1.00  0.00     0.156 HD
ENDROOT
BRANCH   9  14
HETATM   14  C   UNL     1       8.576  30.359  58.883  1.00  0.00     0.201 C 
HETATM   15  O   UNL     1       9.769  30.305  58.573  1.00  0.00    -0.286 OA
BRANCH  14  16
HETATM   16  C   UNL     1       7.645  29.547  58.052  1.00  0.00     0.018 A 
HETATM   17  C   UNL     1       6.644  30.217  57.332  1.00  0.00     0.055 A 
HETATM   18  C   UNL     1       5.747  29.453  56.618  1.00  0.00     0.106 A 
HETATM   19  C   UNL     1       5.812  28.079  56.605  1.00  0.00     0.105 A 
HETATM   20  O   UNL     1       4.713  29.930  55.873  1.00  0.00    -0.323 OA
HETATM   21  O   UNL     1       4.828  27.521  55.851  1.00  0.00    -0.323 OA
HETATM   22  C   UNL     1       6.775  27.390  57.309  1.00  0.00     0.040 A 
HETATM   23  C   UNL     1       4.123  28.700  55.405  1.00  0.00     0.352 A 
HETATM   24  C   UNL     1       7.699  28.135  58.050  1.00  0.00     0.018 A 
ENDBRANCH  14  16
ENDBRANCH   9  14
BRANCH   1  25
HETATM   25  C   UNL     1       5.087  35.004  63.678  1.00  0.00     0.055 C 
HETATM   26  C   UNL     1       5.454  36.407  63.222  1.00  0.00     0.011 C 
ENDBRANCH   1  25
TORSDOF 3
ENDMDL
