MODEL 1
REMARK VINA RESULT:      -9.9      0.000      0.000
REMARK  7 active torsions:
REMARK  status: ('A' for Active; 'I' for Inactive)
REMARK    1  A    between atoms: C_8  and  N_9 
REMARK       I    between atoms: N_9  and  C_10 
REMARK    2  A    between atoms: C_10  and  C_11 
REMARK    3  A    between atoms: C_11  and  N_12 
REMARK    4  A    between atoms: N_12  and  C_14 
REMARK    5  A    between atoms: C_14  and  C_15 
REMARK       I    between atoms: C_15  and  N_16 
REMARK    6  A    between atoms: N_16  and  C_17 
REMARK    7  A    between atoms: C_19  and  C_20 
ROOT
HETATM    1  N   UNL     1       6.395  29.241  55.272  1.00  0.00    -0.058 N 
HETATM    2  H   UNL     1       6.627  29.787  54.424  1.00  0.00     0.280 HD
HETATM    3  C   UNL     1       5.612  30.140  56.186  1.00  0.00     0.270 C 
ENDROOT
BRANCH   1   4
HETATM    4  C   UNL     1       7.747  28.835  55.881  1.00  0.00     0.337 C 
BRANCH   4   5
HETATM    5  C   UNL     1       7.577  28.356  57.321  1.00  0.00     0.248 C 
HETATM    6  N   UNL     1       8.181  28.960  58.372  1.00  0.00    -0.322 N 
HETATM    7  H   UNL     1       8.220  28.367  59.198  1.00  0.00     0.169 HD
HETATM    8  O   UNL     1       6.911  27.329  57.511  1.00  0.00    -0.271 OA
BRANCH   6   9
HETATM    9  C   UNL     1       8.782  30.197  58.514  1.00  0.00     0.085 C 
HETATM   10  C   UNL     1      10.033  30.442  57.977  1.00  0.00     0.052 C 
HETATM   11  C   UNL     1      10.973  29.603  57.192  1.00  0.00     0.072 C 
HETATM   12  N   UNL     1      10.327  31.743  58.276  1.00  0.00    -0.280 N 
HETATM   13  H   UNL     1      11.157  32.277  58.029  1.00  0.00     0.189 HD
HETATM   14  N   UNL     1       9.386  32.340  59.012  1.00  0.00    -0.177 NA
HETATM   15  C   UNL     1       8.473  31.387  59.234  1.00  0.00     0.079 C 
HETATM   16  C   UNL     1       7.431  31.695  60.245  1.00  0.00     0.075 C 
ENDBRANCH   6   9
ENDBRANCH   4   5
ENDBRANCH   1   4
BRANCH   1  17
HETATM   17  C   UNL     1       5.600  28.026  54.770  1.00  0.00     0.337 C 
BRANCH  17  18
HETATM   18  C   UNL     1       6.456  26.872  54.226  1.00  0.00     0.248 C 
HETATM   19  N   UNL     1       6.368  25.712  54.979  1.00  0.00    -0.326 N 
HETATM   20  H   UNL     1       5.965  25.767  55.909  1.00  0.00     0.169 HD
HETATM   21  O   UNL     1       7.125  27.023  53.208  1.00  0.00    -0.271 OA
BRANCH  19  22
HETATM   22  C   UNL     1       6.857  24.434  54.626  1.00  0.00     0.035 A 
HETATM   23  C   UNL     1       7.272  23.472  55.550  1.00  0.00     0.047 A 
HETATM   24  C   UNL     1       7.809  22.234  55.133  1.00  0.00     0.071 A 
HETATM   25  C   UNL     1       7.913  21.972  53.763  1.00  0.00     0.049 A 
HETATM   26 CL   UNL     1       8.563  20.497  53.154  1.00  0.00    -0.083 Cl
HETATM   27  C   UNL     1       7.493  22.925  52.834  1.00  0.00     0.027 A 
HETATM   28  C   UNL     1       6.974  24.150  53.261  1.00  0.00     0.031 A 
BRANCH  24  29
HETATM   29  C   UNL     1       8.280  21.235  56.159  1.00  0.00     0.419 C 
HETATM   30  F   UNL     1       8.259  21.733  57.430  1.00  0.00    -0.166 F 
HETATM   31  F   UNL     1       7.517  20.110  56.201  1.00  0.00    -0.166 F 
HETATM   32  F   UNL     1       9.563  20.834  55.954  1.00  0.00    -0.166 F 
ENDBRANCH  24  29
ENDBRANCH  19  22
ENDBRANCH  17  18
ENDBRANCH   1  17
TORSDOF 7
ENDMDL
MODEL 2
REMARK VINA RESULT:      -9.8      1.707      2.299
REMARK  7 active torsions:
REMARK  status: ('A' for Active; 'I' for Inactive)
REMARK    1  A    between atoms: C_8  and  N_9 
REMARK       I    between atoms: N_9  and  C_10 
REMARK    2  A    between atoms: C_10  and  C_11 
REMARK    3  A    between atoms: C_11  and  N_12 
REMARK    4  A    between atoms: N_12  and  C_14 
REMARK    5  A    between atoms: C_14  and  C_15 
REMARK       I    between atoms: C_15  and  N_16 
REMARK    6  A    between atoms: N_16  and  C_17 
REMARK    7  A    between atoms: C_19  and  C_20 
ROOT
HETATM    1  N   UNL     1       6.865  28.055  56.569  1.00  0.00    -0.058 N 
HETATM    2  H   UNL     1       7.485  27.452  56.002  1.00  0.00     0.280 HD
HETATM    3  C   UNL     1       6.712  29.358  55.838  1.00  0.00     0.270 C 
ENDROOT
BRANCH   1   4
HETATM    4  C   UNL     1       7.584  28.230  57.917  1.00  0.00     0.337 C 
BRANCH   4   5
HETATM    5  C   UNL     1       8.747  29.213  57.793  1.00  0.00     0.248 C 
HETATM    6  N   UNL     1       8.796  30.382  58.474  1.00  0.00    -0.322 N 
HETATM    7  H   UNL     1       9.454  31.046  58.071  1.00  0.00     0.169 HD
HETATM    8  O   UNL     1       9.640  28.946  56.978  1.00  0.00    -0.271 OA
BRANCH   6   9
HETATM    9  C   UNL     1       8.097  30.849  59.572  1.00  0.00     0.085 C 
HETATM   10  C   UNL     1       6.927  31.570  59.413  1.00  0.00     0.052 C 
HETATM   11  C   UNL     1       6.162  31.994  58.214  1.00  0.00     0.072 C 
HETATM   12  N   UNL     1       6.486  31.863  60.673  1.00  0.00    -0.280 N 
HETATM   13  H   UNL     1       5.647  32.368  60.949  1.00  0.00     0.189 HD
HETATM   14  N   UNL     1       7.310  31.433  61.633  1.00  0.00    -0.177 NA
HETATM   15  C   UNL     1       8.337  30.883  60.976  1.00  0.00     0.079 C 
HETATM   16  C   UNL     1       9.534  30.546  61.787  1.00  0.00     0.075 C 
ENDBRANCH   6   9
ENDBRANCH   4   5
ENDBRANCH   1   4
BRANCH   1  17
HETATM   17  C   UNL     1       5.552  27.270  56.713  1.00  0.00     0.337 C 
BRANCH  17  18
HETATM   18  C   UNL     1       5.639  25.787  56.321  1.00  0.00     0.248 C 
HETATM   19  N   UNL     1       6.547  25.533  55.306  1.00  0.00    -0.326 N 
HETATM   20  H   UNL     1       6.893  26.313  54.759  1.00  0.00     0.169 HD
HETATM   21  O   UNL     1       4.950  24.952  56.900  1.00  0.00    -0.271 OA
BRANCH  19  22
HETATM   22  C   UNL     1       7.005  24.266  54.877  1.00  0.00     0.035 A 
HETATM   23  C   UNL     1       7.414  23.249  55.742  1.00  0.00     0.047 A 
HETATM   24  C   UNL     1       7.921  22.024  55.250  1.00  0.00     0.071 A 
HETATM   25  C   UNL     1       7.998  21.835  53.868  1.00  0.00     0.049 A 
HETATM   26 CL   UNL     1       8.610  20.382  53.169  1.00  0.00    -0.083 Cl
HETATM   27  C   UNL     1       7.584  22.844  52.997  1.00  0.00     0.027 A 
HETATM   28  C   UNL     1       7.096  24.054  53.497  1.00  0.00     0.031 A 
BRANCH  24  29
HETATM   29  C   UNL     1       8.386  20.963  56.214  1.00  0.00     0.419 C 
HETATM   30  F   UNL     1       8.333  21.370  57.516  1.00  0.00    -0.166 F 
HETATM   31  F   UNL     1       7.641  19.827  56.162  1.00  0.00    -0.166 F 
HETATM   32  F   UNL     1       9.679  20.595  56.008  1.00  0.00    -0.166 F 
ENDBRANCH  24  29
ENDBRANCH  19  22
ENDBRANCH  17  18
ENDBRANCH   1  17
TORSDOF 7
ENDMDL
MODEL 3
REMARK VINA RESULT:      -9.7      2.428      5.064
REMARK  7 active torsions:
REMARK  status: ('A' for Active; 'I' for Inactive)
REMARK    1  A    between atoms: C_8  and  N_9 
REMARK       I    between atoms: N_9  and  C_10 
REMARK    2  A    between atoms: C_10  and  C_11 
REMARK    3  A    between atoms: C_11  and  N_12 
REMARK    4  A    between atoms: N_12  and  C_14 
REMARK    5  A    between atoms: C_14  and  C_15 
REMARK       I    between atoms: C_15  and  N_16 
REMARK    6  A    between atoms: N_16  and  C_17 
REMARK    7  A    between atoms: C_19  and  C_20 
ROOT
HETATM    1  N   UNL     1       6.249  28.674  56.885  1.00  0.00    -0.058 N 
HETATM    2  H   UNL     1       5.343  28.456  57.334  1.00  0.00     0.280 HD
HETATM    3  C   UNL     1       6.688  30.021  57.385  1.00  0.00     0.270 C 
ENDROOT
BRANCH   1   4
HETATM    4  C   UNL     1       5.967  28.684  55.373  1.00  0.00     0.337 C 
BRANCH   4   5
HETATM    5  C   UNL     1       4.497  28.379  55.090  1.00  0.00     0.248 C 
HETATM    6  N   UNL     1       4.060  27.922  53.892  1.00  0.00    -0.322 N 
HETATM    7  H   UNL     1       3.059  28.054  53.761  1.00  0.00     0.169 HD
HETATM    8  O   UNL     1       3.675  28.632  55.981  1.00  0.00    -0.271 OA
BRANCH   6   9
HETATM    9  C   UNL     1       4.719  27.358  52.815  1.00  0.00     0.085 C 
HETATM   10  C   UNL     1       5.140  28.140  51.754  1.00  0.00     0.052 C 
HETATM   11  C   UNL     1       5.051  29.596  51.479  1.00  0.00     0.072 C 
HETATM   12  N   UNL     1       5.759  27.292  50.879  1.00  0.00    -0.280 N 
HETATM   13  H   UNL     1       6.208  27.513  49.993  1.00  0.00     0.189 HD
HETATM   14  N   UNL     1       5.723  26.014  51.268  1.00  0.00    -0.177 NA
HETATM   15  C   UNL     1       5.021  26.027  52.407  1.00  0.00     0.079 C 
HETATM   16  C   UNL     1       4.599  24.706  52.937  1.00  0.00     0.075 C 
ENDBRANCH   6   9
ENDBRANCH   4   5
ENDBRANCH   1   4
BRANCH   1  17
HETATM   17  C   UNL     1       7.191  27.529  57.288  1.00  0.00     0.337 C 
BRANCH  17  18
HETATM   18  C   UNL     1       6.842  26.161  56.682  1.00  0.00     0.248 C 
HETATM   19  N   UNL     1       7.785  25.696  55.781  1.00  0.00    -0.326 N 
HETATM   20  H   UNL     1       8.473  26.347  55.419  1.00  0.00     0.169 HD
HETATM   21  O   UNL     1       5.814  25.579  57.017  1.00  0.00    -0.271 OA
BRANCH  19  22
HETATM   22  C   UNL     1       7.859  24.397  55.227  1.00  0.00     0.035 A 
HETATM   23  C   UNL     1       7.917  23.225  55.985  1.00  0.00     0.047 A 
HETATM   24  C   UNL     1       8.051  21.958  55.373  1.00  0.00     0.071 A 
HETATM   25  C   UNL     1       8.117  21.888  53.979  1.00  0.00     0.049 A 
HETATM   26 CL   UNL     1       8.291  20.393  53.139  1.00  0.00    -0.083 Cl
HETATM   27  C   UNL     1       8.052  23.054  53.214  1.00  0.00     0.027 A 
HETATM   28  C   UNL     1       7.930  24.300  53.833  1.00  0.00     0.031 A 
BRANCH  24  29
HETATM   29  C   UNL     1       8.146  20.719  56.226  1.00  0.00     0.419 C 
HETATM   30  F   UNL     1       8.259  21.000  57.557  1.00  0.00    -0.166 F 
HETATM   31  F   UNL     1       7.058  19.911  56.119  1.00  0.00    -0.166 F 
HETATM   32  F   UNL     1       9.233  19.957  55.929  1.00  0.00    -0.166 F 
ENDBRANCH  24  29
ENDBRANCH  19  22
ENDBRANCH  17  18
ENDBRANCH   1  17
TORSDOF 7
ENDMDL
MODEL 4
REMARK VINA RESULT:      -9.7      1.703      2.227
REMARK  7 active torsions:
REMARK  status: ('A' for Active; 'I' for Inactive)
REMARK    1  A    between atoms: C_8  and  N_9 
REMARK       I    between atoms: N_9  and  C_10 
REMARK    2  A    between atoms: C_10  and  C_11 
REMARK    3  A    between atoms: C_11  and  N_12 
REMARK    4  A    between atoms: N_12  and  C_14 
REMARK    5  A    between atoms: C_14  and  C_15 
REMARK       I    between atoms: C_15  and  N_16 
REMARK    6  A    between atoms: N_16  and  C_17 
REMARK    7  A    between atoms: C_19  and  C_20 
ROOT
HETATM    1  N   UNL     1       6.887  28.147  56.693  1.00  0.00    -0.058 N 
HETATM    2  H   UNL     1       7.498  27.514  56.150  1.00  0.00     0.280 HD
HETATM    3  C   UNL     1       6.715  29.405  55.889  1.00  0.00     0.270 C 
ENDROOT
BRANCH   1   4
HETATM    4  C   UNL     1       7.631  28.404  58.013  1.00  0.00     0.337 C 
BRANCH   4   5
HETATM    5  C   UNL     1       8.759  29.415  57.818  1.00  0.00     0.248 C 
HETATM    6  N   UNL     1       8.700  30.683  58.291  1.00  0.00    -0.322 N 
HETATM    7  H   UNL     1       9.364  31.305  57.835  1.00  0.00     0.169 HD
HETATM    8  O   UNL     1       9.732  29.066  57.135  1.00  0.00    -0.271 OA
BRANCH   6   9
HETATM    9  C   UNL     1       7.888  31.286  59.233  1.00  0.00     0.085 C 
HETATM   10  C   UNL     1       8.176  31.191  60.582  1.00  0.00     0.052 C 
HETATM   11  C   UNL     1       9.275  30.533  61.332  1.00  0.00     0.072 C 
HETATM   12  N   UNL     1       7.203  31.898  61.231  1.00  0.00    -0.280 N 
HETATM   13  H   UNL     1       7.098  32.062  62.229  1.00  0.00     0.189 HD
HETATM   14  N   UNL     1       6.277  32.398  60.407  1.00  0.00    -0.177 NA
HETATM   15  C   UNL     1       6.636  31.967  59.193  1.00  0.00     0.079 C 
HETATM   16  C   UNL     1       5.643  32.157  58.105  1.00  0.00     0.075 C 
ENDBRANCH   6   9
ENDBRANCH   4   5
ENDBRANCH   1   4
BRANCH   1  17
HETATM   17  C   UNL     1       5.580  27.369  56.909  1.00  0.00     0.337 C 
BRANCH  17  18
HETATM   18  C   UNL     1       5.617  25.903  56.453  1.00  0.00     0.248 C 
HETATM   19  N   UNL     1       6.564  25.649  55.474  1.00  0.00    -0.326 N 
HETATM   20  H   UNL     1       6.975  26.435  54.982  1.00  0.00     0.169 HD
HETATM   21  O   UNL     1       4.861  25.078  56.957  1.00  0.00    -0.271 OA
BRANCH  19  22
HETATM   22  C   UNL     1       6.984  24.382  55.010  1.00  0.00     0.035 A 
HETATM   23  C   UNL     1       7.408  23.344  55.845  1.00  0.00     0.047 A 
HETATM   24  C   UNL     1       7.874  22.119  55.317  1.00  0.00     0.071 A 
HETATM   25  C   UNL     1       7.898  21.950  53.930  1.00  0.00     0.049 A 
HETATM   26 CL   UNL     1       8.459  20.498  53.189  1.00  0.00    -0.083 Cl
HETATM   27  C   UNL     1       7.470  22.979  53.090  1.00  0.00     0.027 A 
HETATM   28  C   UNL     1       7.022  24.189  53.625  1.00  0.00     0.031 A 
BRANCH  24  29
HETATM   29  C   UNL     1       8.357  21.036  56.248  1.00  0.00     0.419 C 
HETATM   30  F   UNL     1       8.341  21.418  57.558  1.00  0.00    -0.166 F 
HETATM   31  F   UNL     1       7.601  19.907  56.193  1.00  0.00    -0.166 F 
HETATM   32  F   UNL     1       9.641  20.662  56.000  1.00  0.00    -0.166 F 
ENDBRANCH  24  29
ENDBRANCH  19  22
ENDBRANCH  17  18
ENDBRANCH   1  17
TORSDOF 7
ENDMDL
MODEL 5
REMARK VINA RESULT:      -9.6      1.689      2.768
REMARK  7 active torsions:
REMARK  status: ('A' for Active; 'I' for Inactive)
REMARK    1  A    between atoms: C_8  and  N_9 
REMARK       I    between atoms: N_9  and  C_10 
REMARK    2  A    between atoms: C_10  and  C_11 
REMARK    3  A    between atoms: C_11  and  N_12 
REMARK    4  A    between atoms: N_12  and  C_14 
REMARK    5  A    between atoms: C_14  and  C_15 
REMARK       I    between atoms: C_15  and  N_16 
REMARK    6  A    between atoms: N_16  and  C_17 
REMARK    7  A    between atoms: C_19  and  C_20 
ROOT
HETATM    1  N   UNL     1       5.680  28.597  56.303  1.00  0.00    -0.058 N 
HETATM    2  H   UNL     1       6.475  29.112  55.890  1.00  0.00     0.280 HD
HETATM    3  C   UNL     1       4.832  28.092  55.170  1.00  0.00     0.270 C 
ENDROOT
BRANCH   1   4
HETATM    4  C   UNL     1       4.933  29.622  57.171  1.00  0.00     0.337 C 
BRANCH   4   5
HETATM    5  C   UNL     1       5.476  31.031  56.943  1.00  0.00     0.248 C 
HETATM    6  N   UNL     1       6.343  31.631  57.794  1.00  0.00    -0.322 N 
HETATM    7  H   UNL     1       6.374  32.642  57.678  1.00  0.00     0.169 HD
HETATM    8  O   UNL     1       5.041  31.665  55.972  1.00  0.00    -0.271 OA
BRANCH   6   9
HETATM    9  C   UNL     1       7.149  31.135  58.802  1.00  0.00     0.085 C 
HETATM   10  C   UNL     1       6.974  31.541  60.113  1.00  0.00     0.052 C 
HETATM   11  C   UNL     1       6.016  32.474  60.758  1.00  0.00     0.072 C 
HETATM   12  N   UNL     1       7.905  30.864  60.849  1.00  0.00    -0.280 N 
HETATM   13  H   UNL     1       8.065  30.896  61.853  1.00  0.00     0.189 HD
HETATM   14  N   UNL     1       8.704  30.092  60.107  1.00  0.00    -0.177 NA
HETATM   15  C   UNL     1       8.308  30.307  58.847  1.00  0.00     0.079 C 
HETATM   16  C   UNL     1       9.189  29.773  57.778  1.00  0.00     0.075 C 
ENDBRANCH   6   9
ENDBRANCH   4   5
ENDBRANCH   1   4
BRANCH   1  17
HETATM   17  C   UNL     1       6.312  27.479  57.147  1.00  0.00     0.337 C 
BRANCH  17  18
HETATM   18  C   UNL     1       6.132  26.062  56.581  1.00  0.00     0.248 C 
HETATM   19  N   UNL     1       7.140  25.679  55.711  1.00  0.00    -0.326 N 
HETATM   20  H   UNL     1       7.757  26.393  55.340  1.00  0.00     0.169 HD
HETATM   21  O   UNL     1       5.170  25.377  56.917  1.00  0.00    -0.271 OA
BRANCH  19  22
HETATM   22  C   UNL     1       7.372  24.381  55.202  1.00  0.00     0.035 A 
HETATM   23  C   UNL     1       7.705  23.278  55.992  1.00  0.00     0.047 A 
HETATM   24  C   UNL     1       7.985  22.018  55.417  1.00  0.00     0.071 A 
HETATM   25  C   UNL     1       7.912  21.881  54.028  1.00  0.00     0.049 A 
HETATM   26 CL   UNL     1       8.245  20.389  53.231  1.00  0.00    -0.083 Cl
HETATM   27  C   UNL     1       7.572  22.976  53.232  1.00  0.00     0.027 A 
HETATM   28  C   UNL     1       7.310  24.219  53.814  1.00  0.00     0.031 A 
BRANCH  24  29
HETATM   29  C   UNL     1       8.376  20.860  56.300  1.00  0.00     0.419 C 
HETATM   30  F   UNL     1       7.521  19.802  56.196  1.00  0.00    -0.166 F 
HETATM   31  F   UNL     1       9.606  20.359  56.012  1.00  0.00    -0.166 F 
HETATM   32  F   UNL     1       8.383  21.185  57.621  1.00  0.00    -0.166 F 
ENDBRANCH  24  29
ENDBRANCH  19  22
ENDBRANCH  17  18
ENDBRANCH   1  17
TORSDOF 7
ENDMDL
MODEL 6
REMARK VINA RESULT:      -9.2      1.920      2.541
REMARK  7 active torsions:
REMARK  status: ('A' for Active; 'I' for Inactive)
REMARK    1  A    between atoms: C_8  and  N_9 
REMARK       I    between atoms: N_9  and  C_10 
REMARK    2  A    between atoms: C_10  and  C_11 
REMARK    3  A    between atoms: C_11  and  N_12 
REMARK    4  A    between atoms: N_12  and  C_14 
REMARK    5  A    between atoms: C_14  and  C_15 
REMARK       I    between atoms: C_15  and  N_16 
REMARK    6  A    between atoms: N_16  and  C_17 
REMARK    7  A    between atoms: C_19  and  C_20 
ROOT
HETATM    1  N   UNL     1       4.464  27.418  55.652  1.00  0.00    -0.058 N 
HETATM    2  H   UNL     1       3.623  26.830  55.523  1.00  0.00     0.280 HD
HETATM    3  C   UNL     1       5.164  26.935  56.891  1.00  0.00     0.270 C 
ENDROOT
BRANCH   1   4
HETATM    4  C   UNL     1       3.940  28.855  55.809  1.00  0.00     0.337 C 
BRANCH   4   5
HETATM    5  C   UNL     1       4.763  29.831  54.970  1.00  0.00     0.248 C 
HETATM    6  N   UNL     1       5.798  30.543  55.476  1.00  0.00    -0.322 N 
HETATM    7  H   UNL     1       6.042  31.347  54.902  1.00  0.00     0.169 HD
HETATM    8  O   UNL     1       4.410  30.021  53.798  1.00  0.00    -0.271 OA
BRANCH   6   9
HETATM    9  C   UNL     1       6.544  30.405  56.632  1.00  0.00     0.085 C 
HETATM   10  C   UNL     1       7.648  29.572  56.667  1.00  0.00     0.052 C 
HETATM   11  C   UNL     1       8.292  28.711  55.644  1.00  0.00     0.072 C 
HETATM   12  N   UNL     1       8.161  29.672  57.930  1.00  0.00    -0.280 N 
HETATM   13  H   UNL     1       8.982  29.215  58.318  1.00  0.00     0.189 HD
HETATM   14  N   UNL     1       7.441  30.465  58.730  1.00  0.00    -0.177 NA
HETATM   15  C   UNL     1       6.407  30.856  57.976  1.00  0.00     0.079 C 
HETATM   16  C   UNL     1       5.299  31.546  58.685  1.00  0.00     0.075 C 
ENDBRANCH   6   9
ENDBRANCH   4   5
ENDBRANCH   1   4
BRANCH   1  17
HETATM   17  C   UNL     1       5.288  27.241  54.368  1.00  0.00     0.337 C 
BRANCH  17  18
HETATM   18  C   UNL     1       5.534  25.782  53.953  1.00  0.00     0.248 C 
HETATM   19  N   UNL     1       6.812  25.331  54.239  1.00  0.00    -0.326 N 
HETATM   20  H   UNL     1       7.528  26.013  54.464  1.00  0.00     0.169 HD
HETATM   21  O   UNL     1       4.636  25.126  53.433  1.00  0.00    -0.271 OA
BRANCH  19  22
HETATM   22  C   UNL     1       7.273  23.996  54.177  1.00  0.00     0.035 A 
HETATM   23  C   UNL     1       7.510  23.198  55.299  1.00  0.00     0.047 A 
HETATM   24  C   UNL     1       8.029  21.889  55.175  1.00  0.00     0.071 A 
HETATM   25  C   UNL     1       8.296  21.390  53.897  1.00  0.00     0.049 A 
HETATM   26 CL   UNL     1       8.939  19.811  53.641  1.00  0.00    -0.083 Cl
HETATM   27  C   UNL     1       8.055  22.179  52.771  1.00  0.00     0.027 A 
HETATM   28  C   UNL     1       7.552  23.475  52.910  1.00  0.00     0.031 A 
BRANCH  24  29
HETATM   29  C   UNL     1       8.305  21.071  56.410  1.00  0.00     0.419 C 
HETATM   30  F   UNL     1       7.441  20.025  56.558  1.00  0.00    -0.166 F 
HETATM   31  F   UNL     1       9.547  20.516  56.418  1.00  0.00    -0.166 F 
HETATM   32  F   UNL     1       8.191  21.794  57.557  1.00  0.00    -0.166 F 
ENDBRANCH  24  29
ENDBRANCH  19  22
ENDBRANCH  17  18
ENDBRANCH   1  17
TORSDOF 7
ENDMDL
MODEL 7
REMARK VINA RESULT:      -9.0      4.872      8.893
REMARK  7 active torsions:
REMARK  status: ('A' for Active; 'I' for Inactive)
REMARK    1  A    between atoms: C_8  and  N_9 
REMARK       I    between atoms: N_9  and  C_10 
REMARK    2  A    between atoms: C_10  and  C_11 
REMARK    3  A    between atoms: C_11  and  N_12 
REMARK    4  A    between atoms: N_12  and  C_14 
REMARK    5  A    between atoms: C_14  and  C_15 
REMARK       I    between atoms: C_15  and  N_16 
REMARK    6  A    between atoms: N_16  and  C_17 
REMARK    7  A    between atoms: C_19  and  C_20 
ROOT
HETATM    1  N   UNL     1       6.088  26.738  55.665  1.00  0.00    -0.058 N 
HETATM    2  H   UNL     1       5.636  26.521  56.569  1.00  0.00     0.280 HD
HETATM    3  C   UNL     1       5.273  27.810  54.999  1.00  0.00     0.270 C 
ENDROOT
BRANCH   1   4
HETATM    4  C   UNL     1       6.070  25.422  54.871  1.00  0.00     0.337 C 
BRANCH   4   5
HETATM    5  C   UNL     1       7.335  25.275  54.027  1.00  0.00     0.248 C 
HETATM    6  N   UNL     1       8.243  24.291  54.229  1.00  0.00    -0.322 N 
HETATM    7  H   UNL     1       9.148  24.497  53.810  1.00  0.00     0.169 HD
HETATM    8  O   UNL     1       7.558  26.142  53.171  1.00  0.00    -0.271 OA
BRANCH   6   9
HETATM    9  C   UNL     1       8.182  23.098  54.926  1.00  0.00     0.085 C 
HETATM   10  C   UNL     1       8.474  23.052  56.277  1.00  0.00     0.052 C 
HETATM   11  C   UNL     1       8.868  24.094  57.258  1.00  0.00     0.072 C 
HETATM   12  N   UNL     1       8.307  21.750  56.658  1.00  0.00    -0.280 N 
HETATM   13  H   UNL     1       8.418  21.341  57.583  1.00  0.00     0.189 HD
HETATM   14  N   UNL     1       7.982  20.942  55.645  1.00  0.00    -0.177 NA
HETATM   15  C   UNL     1       7.980  21.734  54.567  1.00  0.00     0.079 C 
HETATM   16  C   UNL     1       7.900  21.055  53.249  1.00  0.00     0.075 C 
ENDBRANCH   6   9
ENDBRANCH   4   5
ENDBRANCH   1   4
BRANCH   1  17
HETATM   17  C   UNL     1       7.517  27.179  56.018  1.00  0.00     0.337 C 
BRANCH  17  18
HETATM   18  C   UNL     1       7.657  27.896  57.370  1.00  0.00     0.248 C 
HETATM   19  N   UNL     1       7.722  29.275  57.263  1.00  0.00    -0.326 N 
HETATM   20  H   UNL     1       7.905  29.683  56.353  1.00  0.00     0.169 HD
HETATM   21  O   UNL     1       7.690  27.250  58.413  1.00  0.00    -0.271 OA
BRANCH  19  22
HETATM   22  C   UNL     1       7.638  30.212  58.319  1.00  0.00     0.035 A 
HETATM   23  C   UNL     1       8.473  30.206  59.439  1.00  0.00     0.047 A 
HETATM   24  C   UNL     1       8.299  31.132  60.491  1.00  0.00     0.071 A 
HETATM   25  C   UNL     1       7.273  32.077  60.394  1.00  0.00     0.049 A 
HETATM   26 CL   UNL     1       6.973  33.242  61.629  1.00  0.00    -0.083 Cl
HETATM   27  C   UNL     1       6.439  32.094  59.275  1.00  0.00     0.027 A 
HETATM   28  C   UNL     1       6.616  31.165  58.247  1.00  0.00     0.031 A 
BRANCH  24  29
HETATM   29  C   UNL     1       9.197  31.072  61.700  1.00  0.00     0.419 C 
HETATM   30  F   UNL     1       9.942  29.929  61.750  1.00  0.00    -0.166 F 
HETATM   31  F   UNL     1      10.097  32.090  61.750  1.00  0.00    -0.166 F 
HETATM   32  F   UNL     1       8.506  31.099  62.872  1.00  0.00    -0.166 F 
ENDBRANCH  24  29
ENDBRANCH  19  22
ENDBRANCH  17  18
ENDBRANCH   1  17
TORSDOF 7
ENDMDL
MODEL 8
REMARK VINA RESULT:      -9.0      0.560      1.629
REMARK  7 active torsions:
REMARK  status: ('A' for Active; 'I' for Inactive)
REMARK    1  A    between atoms: C_8  and  N_9 
REMARK       I    between atoms: N_9  and  C_10 
REMARK    2  A    between atoms: C_10  and  C_11 
REMARK    3  A    between atoms: C_11  and  N_12 
REMARK    4  A    between atoms: N_12  and  C_14 
REMARK    5  A    between atoms: C_14  and  C_15 
REMARK       I    between atoms: C_15  and  N_16 
REMARK    6  A    between atoms: N_16  and  C_17 
REMARK    7  A    between atoms: C_19  and  C_20 
ROOT
HETATM    1  N   UNL     1       6.269  29.463  55.170  1.00  0.00    -0.058 N 
HETATM    2  H   UNL     1       6.621  29.716  54.231  1.00  0.00     0.280 HD
HETATM    3  C   UNL     1       5.616  30.686  55.750  1.00  0.00     0.270 C 
ENDROOT
BRANCH   1   4
HETATM    4  C   UNL     1       7.509  29.036  55.972  1.00  0.00     0.337 C 
BRANCH   4   5
HETATM    5  C   UNL     1       7.136  28.687  57.412  1.00  0.00     0.248 C 
HETATM    6  N   UNL     1       7.774  29.213  58.484  1.00  0.00    -0.322 N 
HETATM    7  H   UNL     1       7.627  28.674  59.335  1.00  0.00     0.169 HD
HETATM    8  O   UNL     1       6.258  27.831  57.586  1.00  0.00    -0.271 OA
BRANCH   6   9
HETATM    9  C   UNL     1       8.609  30.307  58.625  1.00  0.00     0.085 C 
HETATM   10  C   UNL     1       8.217  31.407  59.366  1.00  0.00     0.052 C 
HETATM   11  C   UNL     1       6.985  31.714  60.135  1.00  0.00     0.072 C 
HETATM   12  N   UNL     1       9.259  32.289  59.319  1.00  0.00    -0.280 N 
HETATM   13  H   UNL     1       9.337  33.201  59.762  1.00  0.00     0.189 HD
HETATM   14  N   UNL     1      10.274  31.866  58.559  1.00  0.00    -0.177 NA
HETATM   15  C   UNL     1       9.860  30.694  58.064  1.00  0.00     0.079 C 
HETATM   16  C   UNL     1      10.684  30.111  56.975  1.00  0.00     0.075 C 
ENDBRANCH   6   9
ENDBRANCH   4   5
ENDBRANCH   1   4
BRANCH   1  17
HETATM   17  C   UNL     1       5.299  28.294  54.942  1.00  0.00     0.337 C 
BRANCH  17  18
HETATM   18  C   UNL     1       5.885  27.112  54.154  1.00  0.00     0.248 C 
HETATM   19  N   UNL     1       6.585  26.213  54.942  1.00  0.00    -0.326 N 
HETATM   20  H   UNL     1       6.855  26.495  55.878  1.00  0.00     0.169 HD
HETATM   21  O   UNL     1       5.704  27.023  52.944  1.00  0.00    -0.271 OA
BRANCH  19  22
HETATM   22  C   UNL     1       7.051  24.934  54.558  1.00  0.00     0.035 A 
HETATM   23  C   UNL     1       7.313  23.895  55.455  1.00  0.00     0.047 A 
HETATM   24  C   UNL     1       7.836  22.658  55.015  1.00  0.00     0.071 A 
HETATM   25  C   UNL     1       8.081  22.478  53.651  1.00  0.00     0.049 A 
HETATM   26 CL   UNL     1       8.727  21.010  53.017  1.00  0.00    -0.083 Cl
HETATM   27  C   UNL     1       7.815  23.508  52.748  1.00  0.00     0.027 A 
HETATM   28  C   UNL     1       7.309  24.730  53.198  1.00  0.00     0.031 A 
BRANCH  24  29
HETATM   29  C   UNL     1       8.139  21.573  56.017  1.00  0.00     0.419 C 
HETATM   30  F   UNL     1       7.990  21.988  57.309  1.00  0.00    -0.166 F 
HETATM   31  F   UNL     1       7.330  20.488  55.892  1.00  0.00    -0.166 F 
HETATM   32  F   UNL     1       9.419  21.122  55.932  1.00  0.00    -0.166 F 
ENDBRANCH  24  29
ENDBRANCH  19  22
ENDBRANCH  17  18
ENDBRANCH   1  17
TORSDOF 7
ENDMDL
MODEL 9
REMARK VINA RESULT:      -8.9      3.143      5.535
REMARK  7 active torsions:
REMARK  status: ('A' for Active; 'I' for Inactive)
REMARK    1  A    between atoms: C_8  and  N_9 
REMARK       I    between atoms: N_9  and  C_10 
REMARK    2  A    between atoms: C_10  and  C_11 
REMARK    3  A    between atoms: C_11  and  N_12 
REMARK    4  A    between atoms: N_12  and  C_14 
REMARK    5  A    between atoms: C_14  and  C_15 
REMARK       I    between atoms: C_15  and  N_16 
REMARK    6  A    between atoms: N_16  and  C_17 
REMARK    7  A    between atoms: C_19  and  C_20 
ROOT
HETATM    1  N   UNL     1       6.844  28.777  55.202  1.00  0.00    -0.058 N 
HETATM    2  H   UNL     1       7.489  29.517  55.527  1.00  0.00     0.280 HD
HETATM    3  C   UNL     1       7.492  28.098  54.028  1.00  0.00     0.270 C 
ENDROOT
BRANCH   1   4
HETATM    4  C   UNL     1       5.549  29.505  54.806  1.00  0.00     0.337 C 
BRANCH   4   5
HETATM    5  C   UNL     1       4.339  28.584  54.947  1.00  0.00     0.248 C 
HETATM    6  N   UNL     1       3.887  27.805  53.935  1.00  0.00    -0.322 N 
HETATM    7  H   UNL     1       2.928  27.494  54.075  1.00  0.00     0.169 HD
HETATM    8  O   UNL     1       3.713  28.616  56.015  1.00  0.00    -0.271 OA
BRANCH   6   9
HETATM    9  C   UNL     1       4.464  27.398  52.747  1.00  0.00     0.085 C 
HETATM   10  C   UNL     1       4.489  28.236  51.647  1.00  0.00     0.052 C 
HETATM   11  C   UNL     1       3.999  29.620  51.426  1.00  0.00     0.072 C 
HETATM   12  N   UNL     1       5.133  27.548  50.657  1.00  0.00    -0.280 N 
HETATM   13  H   UNL     1       5.351  27.854  49.712  1.00  0.00     0.189 HD
HETATM   14  N   UNL     1       5.479  26.309  51.017  1.00  0.00    -0.177 NA
HETATM   15  C   UNL     1       5.008  26.173  52.262  1.00  0.00     0.079 C 
HETATM   16  C   UNL     1       5.022  24.800  52.826  1.00  0.00     0.075 C 
ENDBRANCH   6   9
ENDBRANCH   4   5
ENDBRANCH   1   4
BRANCH   1  17
HETATM   17  C   UNL     1       6.639  27.854  56.413  1.00  0.00     0.337 C 
BRANCH  17  18
HETATM   18  C   UNL     1       6.540  26.358  56.077  1.00  0.00     0.248 C 
HETATM   19  N   UNL     1       7.771  25.735  55.947  1.00  0.00    -0.326 N 
HETATM   20  H   UNL     1       8.599  26.313  55.848  1.00  0.00     0.169 HD
HETATM   21  O   UNL     1       5.443  25.820  55.959  1.00  0.00    -0.271 OA
BRANCH  19  22
HETATM   22  C   UNL     1       8.011  24.345  55.856  1.00  0.00     0.035 A 
HETATM   23  C   UNL     1       8.030  23.632  54.654  1.00  0.00     0.047 A 
HETATM   24  C   UNL     1       8.216  22.231  54.633  1.00  0.00     0.071 A 
HETATM   25  C   UNL     1       8.394  21.557  55.845  1.00  0.00     0.049 A 
HETATM   26 CL   UNL     1       8.618  19.850  55.926  1.00  0.00    -0.083 Cl
HETATM   27  C   UNL     1       8.384  22.264  57.049  1.00  0.00     0.027 A 
HETATM   28  C   UNL     1       8.188  23.647  57.055  1.00  0.00     0.031 A 
BRANCH  24  29
HETATM   29  C   UNL     1       8.194  21.491  53.320  1.00  0.00     0.419 C 
HETATM   30  F   UNL     1       7.938  22.307  52.256  1.00  0.00    -0.166 F 
HETATM   31  F   UNL     1       9.375  20.881  53.030  1.00  0.00    -0.166 F 
HETATM   32  F   UNL     1       7.233  20.530  53.273  1.00  0.00    -0.166 F 
ENDBRANCH  24  29
ENDBRANCH  19  22
ENDBRANCH  17  18
ENDBRANCH   1  17
TORSDOF 7
ENDMDL
MODEL 10
REMARK VINA RESULT:      -8.8      2.180      3.359
REMARK  7 active torsions:
REMARK  status: ('A' for Active; 'I' for Inactive)
REMARK    1  A    between atoms: C_8  and  N_9 
REMARK       I    between atoms: N_9  and  C_10 
REMARK    2  A    between atoms: C_10  and  C_11 
REMARK    3  A    between atoms: C_11  and  N_12 
REMARK    4  A    between atoms: N_12  and  C_14 
REMARK    5  A    between atoms: C_14  and  C_15 
REMARK       I    between atoms: C_15  and  N_16 
REMARK    6  A    between atoms: N_16  and  C_17 
REMARK    7  A    between atoms: C_19  and  C_20 
ROOT
HETATM    1  N   UNL     1       5.804  28.477  56.323  1.00  0.00    -0.058 N 
HETATM    2  H   UNL     1       6.619  28.977  55.928  1.00  0.00     0.280 HD
HETATM    3  C   UNL     1       5.084  27.819  55.180  1.00  0.00     0.270 C 
ENDROOT
BRANCH   1   4
HETATM    4  C   UNL     1       4.946  29.558  57.000  1.00  0.00     0.337 C 
BRANCH   4   5
HETATM    5  C   UNL     1       5.510  30.952  56.731  1.00  0.00     0.248 C 
HETATM    6  N   UNL     1       6.356  31.579  57.583  1.00  0.00    -0.322 N 
HETATM    7  H   UNL     1       6.401  32.583  57.427  1.00  0.00     0.169 HD
HETATM    8  O   UNL     1       5.112  31.548  55.722  1.00  0.00    -0.271 OA
BRANCH   6   9
HETATM    9  C   UNL     1       7.125  31.119  58.636  1.00  0.00     0.085 C 
HETATM   10  C   UNL     1       6.880  31.542  59.930  1.00  0.00     0.052 C 
HETATM   11  C   UNL     1       5.873  32.463  60.514  1.00  0.00     0.072 C 
HETATM   12  N   UNL     1       7.792  30.899  60.720  1.00  0.00    -0.280 N 
HETATM   13  H   UNL     1       7.903  30.951  61.730  1.00  0.00     0.189 HD
HETATM   14  N   UNL     1       8.641  30.133  60.029  1.00  0.00    -0.177 NA
HETATM   15  C   UNL     1       8.299  30.319  58.749  1.00  0.00     0.079 C 
HETATM   16  C   UNL     1       9.240  29.787  57.731  1.00  0.00     0.075 C 
ENDBRANCH   6   9
ENDBRANCH   4   5
ENDBRANCH   1   4
BRANCH   1  17
HETATM   17  C   UNL     1       6.387  27.483  57.339  1.00  0.00     0.337 C 
BRANCH  17  18
HETATM   18  C   UNL     1       6.339  26.010  56.904  1.00  0.00     0.248 C 
HETATM   19  N   UNL     1       7.534  25.546  56.379  1.00  0.00    -0.326 N 
HETATM   20  H   UNL     1       8.240  26.222  56.109  1.00  0.00     0.169 HD
HETATM   21  O   UNL     1       5.310  25.356  57.046  1.00  0.00    -0.271 OA
BRANCH  19  22
HETATM   22  C   UNL     1       7.869  24.203  56.094  1.00  0.00     0.035 A 
HETATM   23  C   UNL     1       7.869  23.652  54.810  1.00  0.00     0.047 A 
HETATM   24  C   UNL     1       8.154  22.284  54.596  1.00  0.00     0.071 A 
HETATM   25  C   UNL     1       8.452  21.478  55.698  1.00  0.00     0.049 A 
HETATM   26 CL   UNL     1       8.803  19.798  55.543  1.00  0.00    -0.083 Cl
HETATM   27  C   UNL     1       8.461  22.023  56.984  1.00  0.00     0.027 A 
HETATM   28  C   UNL     1       8.166  23.374  57.181  1.00  0.00     0.031 A 
BRANCH  24  29
HETATM   29  C   UNL     1       8.110  21.718  53.200  1.00  0.00     0.419 C 
HETATM   30  F   UNL     1       9.291  21.149  52.821  1.00  0.00    -0.166 F 
HETATM   31  F   UNL     1       7.175  20.743  53.047  1.00  0.00    -0.166 F 
HETATM   32  F   UNL     1       7.850  22.663  52.256  1.00  0.00    -0.166 F 
ENDBRANCH  24  29
ENDBRANCH  19  22
ENDBRANCH  17  18
ENDBRANCH   1  17
TORSDOF 7
ENDMDL
