MODEL 1
REMARK VINA RESULT:     -10.3      0.000      0.000
REMARK  8 active torsions:
REMARK  status: ('A' for Active; 'I' for Inactive)
REMARK    1  A    between atoms: N_2  and  C_3 
REMARK    2  A    between atoms: C_6  and  C_7 
REMARK    3  A    between atoms: N_8  and  C_9 
REMARK    4  A    between atoms: C_9  and  C_10 
REMARK    5  A    between atoms: C_14  and  N_15 
REMARK    6  A    between atoms: C_17  and  N_18 
REMARK    7  A    between atoms: C_19  and  C_20 
REMARK    8  A    between atoms: C_26  and  C_27 
ROOT
HETATM    1  C   UNL     1       7.271  26.456  55.660  1.00  0.00     0.141 A 
HETATM    2  N   UNL     1       6.189  27.304  55.490  1.00  0.00    -0.324 N 
HETATM    3  C   UNL     1       6.479  28.506  56.134  1.00  0.00     0.076 A 
HETATM    4  C   UNL     1       7.779  28.333  56.595  1.00  0.00     0.097 A 
HETATM    5  N   UNL     1       8.214  27.057  56.352  1.00  0.00    -0.227 NA
ENDROOT
BRANCH   2   6
HETATM    6  C   UNL     1       4.999  27.001  54.693  1.00  0.00     0.178 C 
BRANCH   6   7
HETATM    7  C   UNL     1       5.142  26.935  53.201  1.00  0.00     0.068 A 
HETATM    8  C   UNL     1       4.756  25.630  52.612  1.00  0.00     0.259 A 
HETATM    9  O   UNL     1       4.402  24.674  53.297  1.00  0.00    -0.267 OA
HETATM   10  N   UNL     1       4.786  25.550  51.258  1.00  0.00    -0.298 N 
HETATM   11  C   UNL     1       5.114  26.610  50.485  1.00  0.00     0.181 A 
HETATM   12  H   UNL     1       4.466  24.689  50.847  1.00  0.00     0.171 HD
HETATM   13  N   UNL     1       5.461  27.750  50.978  1.00  0.00    -0.208 NA
HETATM   14  C   UNL     1       5.469  27.922  52.340  1.00  0.00     0.117 A 
BRANCH  11  15
HETATM   15  N   UNL     1       5.066  26.418  49.144  1.00  0.00    -0.272 NA
HETATM   16  H   UNL     1       4.219  26.016  48.768  1.00  0.00     0.127 HD
HETATM   17  H   UNL     1       5.908  25.972  48.793  1.00  0.00     0.127 HD
ENDBRANCH  11  15
BRANCH  14  18
HETATM   18  N   UNL     1       5.789  29.191  52.779  1.00  0.00    -0.286 NA
HETATM   19  H   UNL     1       5.297  29.914  52.262  1.00  0.00     0.125 HD
HETATM   20  H   UNL     1       5.532  29.243  53.762  1.00  0.00     0.125 HD
ENDBRANCH  14  18
ENDBRANCH   6   7
ENDBRANCH   2   6
BRANCH   1  21
HETATM   21  C   UNL     1       7.393  25.076  55.195  1.00  0.00     0.010 A 
HETATM   22  C   UNL     1       7.892  24.757  53.934  1.00  0.00     0.017 A 
HETATM   23  C   UNL     1       8.083  23.415  53.564  1.00  0.00     0.030 A 
HETATM   24  C   UNL     1       7.820  22.345  54.439  1.00  0.00     0.029 A 
HETATM   25  C   UNL     1       7.293  22.699  55.693  1.00  0.00     0.030 A 
HETATM   26  C   UNL     1       7.094  24.033  56.071  1.00  0.00     0.017 A 
BRANCH  24  27
HETATM   27  N   UNL     1       8.042  21.009  54.071  1.00  0.00    -0.390 N 
HETATM   28  C   UNL     1       8.254  20.711  52.654  1.00  0.00     0.149 C 
HETATM   29  C   UNL     1       8.764  20.141  55.001  1.00  0.00     0.149 C 
ENDBRANCH  24  27
ENDBRANCH   1  21
BRANCH   3  30
HETATM   30  C   UNL     1       5.537  29.607  56.337  1.00  0.00    -0.007 A 
HETATM   31  C   UNL     1       4.596  29.518  57.374  1.00  0.00     0.014 A 
HETATM   32  C   UNL     1       3.692  30.555  57.608  1.00  0.00     0.001 A 
HETATM   33  C   UNL     1       3.719  31.692  56.803  1.00  0.00     0.000 A 
HETATM   34  C   UNL     1       4.652  31.792  55.771  1.00  0.00     0.001 A 
HETATM   35  C   UNL     1       5.563  30.756  55.542  1.00  0.00     0.014 A 
ENDBRANCH   3  30
BRANCH   4  36
HETATM   36  C   UNL     1       8.637  29.294  57.275  1.00  0.00    -0.005 A 
HETATM   37  C   UNL     1       9.904  29.571  56.740  1.00  0.00     0.014 A 
HETATM   38  C   UNL     1      10.734  30.531  57.324  1.00  0.00     0.001 A 
HETATM   39  C   UNL     1      10.303  31.230  58.448  1.00  0.00     0.000 A 
HETATM   40  C   UNL     1       9.044  30.972  58.985  1.00  0.00     0.001 A 
HETATM   41  C   UNL     1       8.212  30.012  58.399  1.00  0.00     0.014 A 
ENDBRANCH   4  36
TORSDOF 8
ENDMDL
MODEL 2
REMARK VINA RESULT:      -9.8      2.698      6.757
REMARK  8 active torsions:
REMARK  status: ('A' for Active; 'I' for Inactive)
REMARK    1  A    between atoms: N_2  and  C_3 
REMARK    2  A    between atoms: C_6  and  C_7 
REMARK    3  A    between atoms: N_8  and  C_9 
REMARK    4  A    between atoms: C_9  and  C_10 
REMARK    5  A    between atoms: C_14  and  N_15 
REMARK    6  A    between atoms: C_17  and  N_18 
REMARK    7  A    between atoms: C_19  and  C_20 
REMARK    8  A    between atoms: C_26  and  C_27 
ROOT
HETATM    1  C   UNL     1       5.930  26.146  51.975  1.00  0.00     0.141 A 
HETATM    2  N   UNL     1       6.039  27.518  52.131  1.00  0.00    -0.324 N 
HETATM    3  C   UNL     1       5.297  28.127  51.120  1.00  0.00     0.076 A 
HETATM    4  C   UNL     1       4.710  27.061  50.448  1.00  0.00     0.097 A 
HETATM    5  N   UNL     1       5.161  25.867  50.945  1.00  0.00    -0.227 NA
ENDROOT
BRANCH   2   6
HETATM    6  C   UNL     1       6.741  28.188  53.228  1.00  0.00     0.178 C 
BRANCH   6   7
HETATM    7  C   UNL     1       6.000  28.408  54.514  1.00  0.00     0.068 A 
HETATM    8  C   UNL     1       6.833  28.971  55.605  1.00  0.00     0.259 A 
HETATM    9  O   UNL     1       8.035  29.186  55.475  1.00  0.00    -0.267 OA
HETATM   10  N   UNL     1       6.187  29.269  56.761  1.00  0.00    -0.298 N 
HETATM   11  C   UNL     1       4.853  29.096  56.901  1.00  0.00     0.181 A 
HETATM   12  H   UNL     1       6.730  29.709  57.484  1.00  0.00     0.171 HD
HETATM   13  N   UNL     1       4.113  28.600  55.968  1.00  0.00    -0.208 NA
HETATM   14  C   UNL     1       4.682  28.260  54.765  1.00  0.00     0.117 A 
BRANCH  11  15
HETATM   15  N   UNL     1       4.316  29.471  58.088  1.00  0.00    -0.272 NA
HETATM   16  H   UNL     1       3.319  29.632  58.111  1.00  0.00     0.127 HD
HETATM   17  H   UNL     1       4.849  30.214  58.529  1.00  0.00     0.127 HD
ENDBRANCH  11  15
BRANCH  14  18
HETATM   18  N   UNL     1       3.808  27.798  53.803  1.00  0.00    -0.286 NA
HETATM   19  H   UNL     1       4.266  27.637  52.910  1.00  0.00     0.125 HD
HETATM   20  H   UNL     1       3.418  26.922  54.145  1.00  0.00     0.125 HD
ENDBRANCH  14  18
ENDBRANCH   6   7
ENDBRANCH   2   6
BRANCH   1  21
HETATM   21  C   UNL     1       6.577  25.111  52.778  1.00  0.00     0.010 A 
HETATM   22  C   UNL     1       6.136  24.777  54.057  1.00  0.00     0.017 A 
HETATM   23  C   UNL     1       6.725  23.711  54.756  1.00  0.00     0.030 A 
HETATM   24  C   UNL     1       7.747  22.917  54.202  1.00  0.00     0.029 A 
HETATM   25  C   UNL     1       8.188  23.297  52.923  1.00  0.00     0.030 A 
HETATM   26  C   UNL     1       7.611  24.361  52.218  1.00  0.00     0.017 A 
BRANCH  24  27
HETATM   27  N   UNL     1       8.310  21.835  54.897  1.00  0.00    -0.390 N 
HETATM   28  C   UNL     1       8.293  21.871  56.359  1.00  0.00     0.149 C 
HETATM   29  C   UNL     1       8.204  20.499  54.309  1.00  0.00     0.149 C 
ENDBRANCH  24  27
ENDBRANCH   1  21
BRANCH   3  30
HETATM   30  C   UNL     1       5.284  29.560  50.825  1.00  0.00    -0.007 A 
HETATM   31  C   UNL     1       6.016  30.039  49.728  1.00  0.00     0.014 A 
HETATM   32  C   UNL     1       6.015  31.397  49.408  1.00  0.00     0.001 A 
HETATM   33  C   UNL     1       5.281  32.290  50.184  1.00  0.00     0.000 A 
HETATM   34  C   UNL     1       4.546  31.826  51.274  1.00  0.00     0.001 A 
HETATM   35  C   UNL     1       4.542  30.464  51.591  1.00  0.00     0.014 A 
ENDBRANCH   3  30
BRANCH   4  36
HETATM   36  C   UNL     1       3.760  27.096  49.345  1.00  0.00    -0.005 A 
HETATM   37  C   UNL     1       3.897  26.167  48.301  1.00  0.00     0.014 A 
HETATM   38  C   UNL     1       2.972  26.124  47.255  1.00  0.00     0.001 A 
HETATM   39  C   UNL     1       1.894  27.004  47.244  1.00  0.00     0.000 A 
HETATM   40  C   UNL     1       1.739  27.925  48.278  1.00  0.00     0.001 A 
HETATM   41  C   UNL     1       2.665  27.967  49.327  1.00  0.00     0.014 A 
ENDBRANCH   4  36
TORSDOF 8
ENDMDL
MODEL 3
REMARK VINA RESULT:      -9.3      2.998      7.220
REMARK  8 active torsions:
REMARK  status: ('A' for Active; 'I' for Inactive)
REMARK    1  A    between atoms: N_2  and  C_3 
REMARK    2  A    between atoms: C_6  and  C_7 
REMARK    3  A    between atoms: N_8  and  C_9 
REMARK    4  A    between atoms: C_9  and  C_10 
REMARK    5  A    between atoms: C_14  and  N_15 
REMARK    6  A    between atoms: C_17  and  N_18 
REMARK    7  A    between atoms: C_19  and  C_20 
REMARK    8  A    between atoms: C_26  and  C_27 
ROOT
HETATM    1  C   UNL     1       5.385  26.370  51.315  1.00  0.00     0.141 A 
HETATM    2  N   UNL     1       5.397  27.755  51.304  1.00  0.00    -0.324 N 
HETATM    3  C   UNL     1       4.586  28.184  50.255  1.00  0.00     0.076 A 
HETATM    4  C   UNL     1       4.061  27.007  49.734  1.00  0.00     0.097 A 
HETATM    5  N   UNL     1       4.612  25.916  50.352  1.00  0.00    -0.227 NA
ENDROOT
BRANCH   2   6
HETATM    6  C   UNL     1       6.076  28.599  52.289  1.00  0.00     0.178 C 
BRANCH   6   7
HETATM    7  C   UNL     1       5.596  28.558  53.710  1.00  0.00     0.068 A 
HETATM    8  C   UNL     1       6.651  28.227  54.698  1.00  0.00     0.259 A 
HETATM    9  O   UNL     1       7.803  27.960  54.369  1.00  0.00    -0.267 OA
HETATM   10  N   UNL     1       6.283  28.264  56.004  1.00  0.00    -0.298 N 
HETATM   11  C   UNL     1       5.036  28.616  56.387  1.00  0.00     0.181 A 
HETATM   12  H   UNL     1       7.007  28.103  56.684  1.00  0.00     0.171 HD
HETATM   13  N   UNL     1       4.102  28.898  55.544  1.00  0.00    -0.208 NA
HETATM   14  C   UNL     1       4.379  28.879  54.199  1.00  0.00     0.117 A 
BRANCH  11  15
HETATM   15  N   UNL     1       4.802  28.657  57.723  1.00  0.00    -0.272 NA
HETATM   16  H   UNL     1       4.114  28.013  58.087  1.00  0.00     0.127 HD
HETATM   17  H   UNL     1       4.676  29.606  58.058  1.00  0.00     0.127 HD
ENDBRANCH  11  15
BRANCH  14  18
HETATM   18  N   UNL     1       3.340  29.256  53.372  1.00  0.00    -0.286 NA
HETATM   19  H   UNL     1       3.081  30.230  53.498  1.00  0.00     0.125 HD
HETATM   20  H   UNL     1       3.651  29.110  52.413  1.00  0.00     0.125 HD
ENDBRANCH  14  18
ENDBRANCH   6   7
ENDBRANCH   2   6
BRANCH   1  21
HETATM   21  C   UNL     1       6.127  25.487  52.212  1.00  0.00     0.010 A 
HETATM   22  C   UNL     1       7.457  25.140  51.981  1.00  0.00     0.017 A 
HETATM   23  C   UNL     1       8.163  24.367  52.919  1.00  0.00     0.030 A 
HETATM   24  C   UNL     1       7.589  23.941  54.132  1.00  0.00     0.029 A 
HETATM   25  C   UNL     1       6.240  24.285  54.322  1.00  0.00     0.030 A 
HETATM   26  C   UNL     1       5.525  25.051  53.391  1.00  0.00     0.017 A 
BRANCH  24  27
HETATM   27  N   UNL     1       8.311  23.194  55.075  1.00  0.00    -0.390 N 
HETATM   28  C   UNL     1       9.230  22.167  54.584  1.00  0.00     0.149 C 
HETATM   29  C   UNL     1       8.723  23.851  56.316  1.00  0.00     0.149 C 
ENDBRANCH  24  27
ENDBRANCH   1  21
BRANCH   3  30
HETATM   30  C   UNL     1       4.460  29.567  49.793  1.00  0.00    -0.007 A 
HETATM   31  C   UNL     1       3.487  30.395  50.373  1.00  0.00     0.014 A 
HETATM   32  C   UNL     1       3.347  31.723  49.968  1.00  0.00     0.001 A 
HETATM   33  C   UNL     1       4.180  32.235  48.976  1.00  0.00     0.000 A 
HETATM   34  C   UNL     1       5.152  31.423  48.395  1.00  0.00     0.001 A 
HETATM   35  C   UNL     1       5.297  30.094  48.805  1.00  0.00     0.014 A 
ENDBRANCH   3  30
BRANCH   4  36
HETATM   36  C   UNL     1       3.083  26.842  48.668  1.00  0.00    -0.005 A 
HETATM   37  C   UNL     1       1.926  27.637  48.678  1.00  0.00     0.014 A 
HETATM   38  C   UNL     1       0.992  27.556  47.642  1.00  0.00     0.001 A 
HETATM   39  C   UNL     1       1.208  26.683  46.580  1.00  0.00     0.000 A 
HETATM   40  C   UNL     1       2.355  25.894  46.552  1.00  0.00     0.001 A 
HETATM   41  C   UNL     1       3.292  25.977  47.588  1.00  0.00     0.014 A 
ENDBRANCH   4  36
TORSDOF 8
ENDMDL
MODEL 4
REMARK VINA RESULT:      -9.0      2.490      8.395
REMARK  8 active torsions:
REMARK  status: ('A' for Active; 'I' for Inactive)
REMARK    1  A    between atoms: N_2  and  C_3 
REMARK    2  A    between atoms: C_6  and  C_7 
REMARK    3  A    between atoms: N_8  and  C_9 
REMARK    4  A    between atoms: C_9  and  C_10 
REMARK    5  A    between atoms: C_14  and  N_15 
REMARK    6  A    between atoms: C_17  and  N_18 
REMARK    7  A    between atoms: C_19  and  C_20 
REMARK    8  A    between atoms: C_26  and  C_27 
ROOT
HETATM    1  C   UNL     1       5.090  28.870  54.536  1.00  0.00     0.141 A 
HETATM    2  N   UNL     1       5.972  27.822  54.740  1.00  0.00    -0.324 N 
HETATM    3  C   UNL     1       6.034  27.076  53.564  1.00  0.00     0.076 A 
HETATM    4  C   UNL     1       5.228  27.780  52.678  1.00  0.00     0.097 A 
HETATM    5  N   UNL     1       4.614  28.829  53.311  1.00  0.00    -0.227 NA
ENDROOT
BRANCH   2   6
HETATM    6  C   UNL     1       6.760  27.609  55.956  1.00  0.00     0.178 C 
BRANCH   6   7
HETATM    7  C   UNL     1       7.942  28.500  56.201  1.00  0.00     0.068 A 
HETATM    8  C   UNL     1       8.212  28.770  57.634  1.00  0.00     0.259 A 
HETATM    9  O   UNL     1       7.494  28.342  58.533  1.00  0.00    -0.267 OA
HETATM   10  N   UNL     1       9.322  29.500  57.908  1.00  0.00    -0.298 N 
HETATM   11  C   UNL     1      10.157  29.928  56.935  1.00  0.00     0.181 A 
HETATM   12  H   UNL     1       9.547  29.635  58.879  1.00  0.00     0.171 HD
HETATM   13  N   UNL     1       9.935  29.712  55.683  1.00  0.00    -0.208 NA
HETATM   14  C   UNL     1       8.830  28.988  55.309  1.00  0.00     0.117 A 
BRANCH  11  15
HETATM   15  N   UNL     1      11.256  30.612  57.338  1.00  0.00    -0.272 NA
HETATM   16  H   UNL     1      12.048  30.066  57.647  1.00  0.00     0.127 HD
HETATM   17  H   UNL     1      11.022  31.368  57.973  1.00  0.00     0.127 HD
ENDBRANCH  11  15
BRANCH  14  18
HETATM   18  N   UNL     1       8.705  28.749  53.955  1.00  0.00    -0.286 NA
HETATM   19  H   UNL     1       7.740  28.796  53.643  1.00  0.00     0.125 HD
HETATM   20  H   UNL     1       9.252  29.459  53.472  1.00  0.00     0.125 HD
ENDBRANCH  14  18
ENDBRANCH   6   7
ENDBRANCH   2   6
BRANCH   1  21
HETATM   21  C   UNL     1       4.680  29.881  55.507  1.00  0.00     0.010 A 
HETATM   22  C   UNL     1       3.705  29.634  56.471  1.00  0.00     0.017 A 
HETATM   23  C   UNL     1       3.409  30.600  57.447  1.00  0.00     0.030 A 
HETATM   24  C   UNL     1       4.090  31.830  57.524  1.00  0.00     0.029 A 
HETATM   25  C   UNL     1       5.048  32.060  56.522  1.00  0.00     0.030 A 
HETATM   26  C   UNL     1       5.348  31.105  55.541  1.00  0.00     0.017 A 
BRANCH  24  27
HETATM   27  N   UNL     1       3.808  32.777  58.520  1.00  0.00    -0.390 N 
HETATM   28  C   UNL     1       3.480  32.291  59.860  1.00  0.00     0.149 C 
HETATM   29  C   UNL     1       4.512  34.059  58.482  1.00  0.00     0.149 C 
ENDBRANCH  24  27
ENDBRANCH   1  21
BRANCH   3  30
HETATM   30  C   UNL     1       6.719  25.792  53.411  1.00  0.00    -0.007 A 
HETATM   31  C   UNL     1       6.348  24.716  54.231  1.00  0.00     0.014 A 
HETATM   32  C   UNL     1       6.969  23.474  54.103  1.00  0.00     0.001 A 
HETATM   33  C   UNL     1       7.970  23.295  53.152  1.00  0.00     0.000 A 
HETATM   34  C   UNL     1       8.346  24.356  52.328  1.00  0.00     0.001 A 
HETATM   35  C   UNL     1       7.719  25.600  52.452  1.00  0.00     0.014 A 
ENDBRANCH   3  30
BRANCH   4  36
HETATM   36  C   UNL     1       4.978  27.514  51.268  1.00  0.00    -0.005 A 
HETATM   37  C   UNL     1       5.186  28.542  50.335  1.00  0.00     0.014 A 
HETATM   38  C   UNL     1       5.019  28.313  48.967  1.00  0.00     0.001 A 
HETATM   39  C   UNL     1       4.649  27.049  48.515  1.00  0.00     0.000 A 
HETATM   40  C   UNL     1       4.448  26.017  49.428  1.00  0.00     0.001 A 
HETATM   41  C   UNL     1       4.617  26.246  50.798  1.00  0.00     0.014 A 
ENDBRANCH   4  36
TORSDOF 8
ENDMDL
MODEL 5
REMARK VINA RESULT:      -8.6      2.645      7.186
REMARK  8 active torsions:
REMARK  status: ('A' for Active; 'I' for Inactive)
REMARK    1  A    between atoms: N_2  and  C_3 
REMARK    2  A    between atoms: C_6  and  C_7 
REMARK    3  A    between atoms: N_8  and  C_9 
REMARK    4  A    between atoms: C_9  and  C_10 
REMARK    5  A    between atoms: C_14  and  N_15 
REMARK    6  A    between atoms: C_17  and  N_18 
REMARK    7  A    between atoms: C_19  and  C_20 
REMARK    8  A    between atoms: C_26  and  C_27 
ROOT
HETATM    1  C   UNL     1       6.065  25.985  51.944  1.00  0.00     0.141 A 
HETATM    2  N   UNL     1       6.354  26.600  53.151  1.00  0.00    -0.324 N 
HETATM    3  C   UNL     1       6.789  25.619  54.041  1.00  0.00     0.076 A 
HETATM    4  C   UNL     1       6.811  24.459  53.275  1.00  0.00     0.097 A 
HETATM    5  N   UNL     1       6.304  24.694  52.024  1.00  0.00    -0.227 NA
ENDROOT
BRANCH   2   6
HETATM    6  C   UNL     1       6.294  28.042  53.397  1.00  0.00     0.178 C 
BRANCH   6   7
HETATM    7  C   UNL     1       5.322  28.547  54.423  1.00  0.00     0.068 A 
HETATM    8  C   UNL     1       5.955  29.258  55.560  1.00  0.00     0.259 A 
HETATM    9  O   UNL     1       7.173  29.375  55.671  1.00  0.00    -0.267 OA
HETATM   10  N   UNL     1       5.111  29.809  56.469  1.00  0.00    -0.298 N 
HETATM   11  C   UNL     1       3.768  29.743  56.330  1.00  0.00     0.181 A 
HETATM   12  H   UNL     1       5.529  30.347  57.209  1.00  0.00     0.171 HD
HETATM   13  N   UNL     1       3.198  29.121  55.355  1.00  0.00    -0.208 NA
HETATM   14  C   UNL     1       3.973  28.526  54.390  1.00  0.00     0.117 A 
BRANCH  11  15
HETATM   15  N   UNL     1       3.030  30.368  57.281  1.00  0.00    -0.272 NA
HETATM   16  H   UNL     1       3.401  31.230  57.656  1.00  0.00     0.127 HD
HETATM   17  H   UNL     1       2.714  29.725  58.000  1.00  0.00     0.127 HD
ENDBRANCH  11  15
BRANCH  14  18
HETATM   18  N   UNL     1       3.282  27.939  53.349  1.00  0.00    -0.286 NA
HETATM   19  H   UNL     1       3.550  26.970  53.206  1.00  0.00     0.125 HD
HETATM   20  H   UNL     1       2.292  27.985  53.581  1.00  0.00     0.125 HD
ENDBRANCH  14  18
ENDBRANCH   6   7
ENDBRANCH   2   6
BRANCH   1  21
HETATM   21  C   UNL     1       5.536  26.615  50.736  1.00  0.00     0.010 A 
HETATM   22  C   UNL     1       4.713  25.933  49.842  1.00  0.00     0.017 A 
HETATM   23  C   UNL     1       4.147  26.603  48.745  1.00  0.00     0.030 A 
HETATM   24  C   UNL     1       4.347  27.977  48.513  1.00  0.00     0.029 A 
HETATM   25  C   UNL     1       5.203  28.629  49.418  1.00  0.00     0.030 A 
HETATM   26  C   UNL     1       5.776  27.970  50.513  1.00  0.00     0.017 A 
BRANCH  24  27
HETATM   27  N   UNL     1       3.754  28.645  47.431  1.00  0.00    -0.390 N 
HETATM   28  C   UNL     1       2.336  28.401  47.164  1.00  0.00     0.149 C 
HETATM   29  C   UNL     1       4.223  29.991  47.101  1.00  0.00     0.149 C 
ENDBRANCH  24  27
ENDBRANCH   1  21
BRANCH   3  30
HETATM   30  C   UNL     1       7.034  25.819  55.469  1.00  0.00    -0.007 A 
HETATM   31  C   UNL     1       8.317  26.194  55.896  1.00  0.00     0.014 A 
HETATM   32  C   UNL     1       8.585  26.409  57.248  1.00  0.00     0.001 A 
HETATM   33  C   UNL     1       7.570  26.248  58.189  1.00  0.00     0.000 A 
HETATM   34  C   UNL     1       6.290  25.879  57.776  1.00  0.00     0.001 A 
HETATM   35  C   UNL     1       6.020  25.671  56.420  1.00  0.00     0.014 A 
ENDBRANCH   3  30
BRANCH   4  36
HETATM   36  C   UNL     1       7.260  23.127  53.657  1.00  0.00    -0.005 A 
HETATM   37  C   UNL     1       7.749  22.265  52.663  1.00  0.00     0.014 A 
HETATM   38  C   UNL     1       8.248  21.002  52.992  1.00  0.00     0.001 A 
HETATM   39  C   UNL     1       8.271  20.590  54.322  1.00  0.00     0.000 A 
HETATM   40  C   UNL     1       7.798  21.438  55.320  1.00  0.00     0.001 A 
HETATM   41  C   UNL     1       7.299  22.703  54.990  1.00  0.00     0.014 A 
ENDBRANCH   4  36
TORSDOF 8
ENDMDL
MODEL 6
REMARK VINA RESULT:      -8.4      3.032      4.744
REMARK  8 active torsions:
REMARK  status: ('A' for Active; 'I' for Inactive)
REMARK    1  A    between atoms: N_2  and  C_3 
REMARK    2  A    between atoms: C_6  and  C_7 
REMARK    3  A    between atoms: N_8  and  C_9 
REMARK    4  A    between atoms: C_9  and  C_10 
REMARK    5  A    between atoms: C_14  and  N_15 
REMARK    6  A    between atoms: C_17  and  N_18 
REMARK    7  A    between atoms: C_19  and  C_20 
REMARK    8  A    between atoms: C_26  and  C_27 
ROOT
HETATM    1  C   UNL     1       5.638  26.997  53.127  1.00  0.00     0.141 A 
HETATM    2  N   UNL     1       5.368  27.752  51.998  1.00  0.00    -0.324 N 
HETATM    3  C   UNL     1       4.628  28.865  52.392  1.00  0.00     0.076 A 
HETATM    4  C   UNL     1       4.563  28.751  53.776  1.00  0.00     0.097 A 
HETATM    5  N   UNL     1       5.126  27.574  54.193  1.00  0.00    -0.227 NA
ENDROOT
BRANCH   2   6
HETATM    6  C   UNL     1       5.863  27.460  50.652  1.00  0.00     0.178 C 
BRANCH   6   7
HETATM    7  C   UNL     1       4.881  26.981  49.623  1.00  0.00     0.068 A 
HETATM    8  C   UNL     1       4.778  27.855  48.429  1.00  0.00     0.259 A 
HETATM    9  O   UNL     1       5.407  28.905  48.323  1.00  0.00    -0.267 OA
HETATM   10  N   UNL     1       3.967  27.418  47.433  1.00  0.00    -0.298 N 
HETATM   11  C   UNL     1       3.316  26.235  47.507  1.00  0.00     0.181 A 
HETATM   12  H   UNL     1       3.940  27.972  46.594  1.00  0.00     0.171 HD
HETATM   13  N   UNL     1       3.384  25.466  48.540  1.00  0.00    -0.208 NA
HETATM   14  C   UNL     1       4.175  25.831  49.601  1.00  0.00     0.117 A 
BRANCH  11  15
HETATM   15  N   UNL     1       2.568  25.888  46.430  1.00  0.00    -0.272 NA
HETATM   16  H   UNL     1       2.918  26.161  45.522  1.00  0.00     0.127 HD
HETATM   17  H   UNL     1       1.586  26.109  46.562  1.00  0.00     0.127 HD
ENDBRANCH  11  15
BRANCH  14  18
HETATM   18  N   UNL     1       4.241  24.919  50.636  1.00  0.00    -0.286 NA
HETATM   19  H   UNL     1       3.535  25.090  51.346  1.00  0.00     0.125 HD
HETATM   20  H   UNL     1       4.099  23.995  50.233  1.00  0.00     0.125 HD
ENDBRANCH  14  18
ENDBRANCH   6   7
ENDBRANCH   2   6
BRANCH   1  21
HETATM   21  C   UNL     1       6.348  25.720  53.188  1.00  0.00     0.010 A 
HETATM   22  C   UNL     1       7.333  25.373  52.266  1.00  0.00     0.017 A 
HETATM   23  C   UNL     1       8.058  24.179  52.417  1.00  0.00     0.030 A 
HETATM   24  C   UNL     1       7.858  23.305  53.502  1.00  0.00     0.029 A 
HETATM   25  C   UNL     1       6.839  23.671  54.399  1.00  0.00     0.030 A 
HETATM   26  C   UNL     1       6.107  24.856  54.255  1.00  0.00     0.017 A 
BRANCH  24  27
HETATM   27  N   UNL     1       8.607  22.129  53.660  1.00  0.00    -0.390 N 
HETATM   28  C   UNL     1       9.245  21.887  54.954  1.00  0.00     0.149 C 
HETATM   29  C   UNL     1       8.173  20.926  52.950  1.00  0.00     0.149 C 
ENDBRANCH  24  27
ENDBRANCH   1  21
BRANCH   3  30
HETATM   30  C   UNL     1       3.998  29.827  51.487  1.00  0.00    -0.007 A 
HETATM   31  C   UNL     1       4.716  30.966  51.093  1.00  0.00     0.014 A 
HETATM   32  C   UNL     1       4.153  31.897  50.220  1.00  0.00     0.001 A 
HETATM   33  C   UNL     1       2.862  31.698  49.733  1.00  0.00     0.000 A 
HETATM   34  C   UNL     1       2.140  30.568  50.116  1.00  0.00     0.001 A 
HETATM   35  C   UNL     1       2.707  29.631  50.986  1.00  0.00     0.014 A 
ENDBRANCH   3  30
BRANCH   4  36
HETATM   36  C   UNL     1       3.978  29.676  54.737  1.00  0.00    -0.005 A 
HETATM   37  C   UNL     1       4.233  29.485  56.105  1.00  0.00     0.014 A 
HETATM   38  C   UNL     1       3.744  30.384  57.056  1.00  0.00     0.001 A 
HETATM   39  C   UNL     1       3.001  31.489  56.651  1.00  0.00     0.000 A 
HETATM   40  C   UNL     1       2.748  31.697  55.297  1.00  0.00     0.001 A 
HETATM   41  C   UNL     1       3.239  30.798  54.344  1.00  0.00     0.014 A 
ENDBRANCH   4  36
TORSDOF 8
ENDMDL
MODEL 7
REMARK VINA RESULT:      -8.3      6.810     10.924
REMARK  8 active torsions:
REMARK  status: ('A' for Active; 'I' for Inactive)
REMARK    1  A    between atoms: N_2  and  C_3 
REMARK    2  A    between atoms: C_6  and  C_7 
REMARK    3  A    between atoms: N_8  and  C_9 
REMARK    4  A    between atoms: C_9  and  C_10 
REMARK    5  A    between atoms: C_14  and  N_15 
REMARK    6  A    between atoms: C_17  and  N_18 
REMARK    7  A    between atoms: C_19  and  C_20 
REMARK    8  A    between atoms: C_26  and  C_27 
ROOT
HETATM    1  C   UNL     1       6.316  32.673  61.897  1.00  0.00     0.141 A 
HETATM    2  N   UNL     1       5.323  32.893  60.957  1.00  0.00    -0.324 N 
HETATM    3  C   UNL     1       5.786  32.431  59.726  1.00  0.00     0.076 A 
HETATM    4  C   UNL     1       7.026  31.876  60.022  1.00  0.00     0.097 A 
HETATM    5  N   UNL     1       7.354  32.095  61.334  1.00  0.00    -0.227 NA
ENDROOT
BRANCH   2   6
HETATM    6  C   UNL     1       3.994  33.434  61.246  1.00  0.00     0.178 C 
BRANCH   6   7
HETATM    7  C   UNL     1       3.694  34.843  60.826  1.00  0.00     0.068 A 
HETATM    8  C   UNL     1       2.591  34.961  59.842  1.00  0.00     0.259 A 
HETATM    9  O   UNL     1       2.013  33.982  59.377  1.00  0.00    -0.267 OA
HETATM   10  N   UNL     1       2.225  36.221  59.497  1.00  0.00    -0.298 N 
HETATM   11  C   UNL     1       2.809  37.311  60.045  1.00  0.00     0.181 A 
HETATM   12  H   UNL     1       1.437  36.312  58.879  1.00  0.00     0.171 HD
HETATM   13  N   UNL     1       3.776  37.230  60.895  1.00  0.00    -0.208 NA
HETATM   14  C   UNL     1       4.219  35.994  61.297  1.00  0.00     0.117 A 
BRANCH  11  15
HETATM   15  N   UNL     1       2.328  38.516  59.652  1.00  0.00    -0.272 NA
HETATM   16  H   UNL     1       1.675  38.520  58.881  1.00  0.00     0.127 HD
HETATM   17  H   UNL     1       3.066  39.206  59.552  1.00  0.00     0.127 HD
ENDBRANCH  11  15
BRANCH  14  18
HETATM   18  N   UNL     1       5.211  36.000  62.256  1.00  0.00    -0.286 NA
HETATM   19  H   UNL     1       4.845  35.847  63.192  1.00  0.00     0.125 HD
HETATM   20  H   UNL     1       5.861  35.253  62.022  1.00  0.00     0.125 HD
ENDBRANCH  14  18
ENDBRANCH   6   7
ENDBRANCH   2   6
BRANCH   1  21
HETATM   21  C   UNL     1       6.290  33.040  63.312  1.00  0.00     0.010 A 
HETATM   22  C   UNL     1       7.429  33.469  63.990  1.00  0.00     0.017 A 
HETATM   23  C   UNL     1       7.340  33.904  65.323  1.00  0.00     0.030 A 
HETATM   24  C   UNL     1       6.118  33.963  66.020  1.00  0.00     0.029 A 
HETATM   25  C   UNL     1       4.994  33.499  65.317  1.00  0.00     0.030 A 
HETATM   26  C   UNL     1       5.071  33.058  63.989  1.00  0.00     0.017 A 
BRANCH  24  27
HETATM   27  N   UNL     1       6.036  34.426  67.341  1.00  0.00    -0.390 N 
HETATM   28  C   UNL     1       4.808  34.155  68.091  1.00  0.00     0.149 C 
HETATM   29  C   UNL     1       7.257  34.460  68.146  1.00  0.00     0.149 C 
ENDBRANCH  24  27
ENDBRANCH   1  21
BRANCH   3  30
HETATM   30  C   UNL     1       5.115  32.625  58.441  1.00  0.00    -0.007 A 
HETATM   31  C   UNL     1       4.271  31.616  57.951  1.00  0.00     0.014 A 
HETATM   32  C   UNL     1       3.602  31.773  56.737  1.00  0.00     0.001 A 
HETATM   33  C   UNL     1       3.774  32.942  55.998  1.00  0.00     0.000 A 
HETATM   34  C   UNL     1       4.607  33.952  56.476  1.00  0.00     0.001 A 
HETATM   35  C   UNL     1       5.272  33.798  57.697  1.00  0.00     0.014 A 
ENDBRANCH   3  30
BRANCH   4  36
HETATM   36  C   UNL     1       7.940  31.168  59.136  1.00  0.00    -0.005 A 
HETATM   37  C   UNL     1       9.226  31.690  58.929  1.00  0.00     0.014 A 
HETATM   38  C   UNL     1      10.156  31.011  58.137  1.00  0.00     0.001 A 
HETATM   39  C   UNL     1       9.811  29.797  57.549  1.00  0.00     0.000 A 
HETATM   40  C   UNL     1       8.542  29.262  57.753  1.00  0.00     0.001 A 
HETATM   41  C   UNL     1       7.611  29.942  58.547  1.00  0.00     0.014 A 
ENDBRANCH   4  36
TORSDOF 8
ENDMDL
MODEL 8
REMARK VINA RESULT:      -8.2      6.010     10.215
REMARK  8 active torsions:
REMARK  status: ('A' for Active; 'I' for Inactive)
REMARK    1  A    between atoms: N_2  and  C_3 
REMARK    2  A    between atoms: C_6  and  C_7 
REMARK    3  A    between atoms: N_8  and  C_9 
REMARK    4  A    between atoms: C_9  and  C_10 
REMARK    5  A    between atoms: C_14  and  N_15 
REMARK    6  A    between atoms: C_17  and  N_18 
REMARK    7  A    between atoms: C_19  and  C_20 
REMARK    8  A    between atoms: C_26  and  C_27 
ROOT
HETATM    1  C   UNL     1       6.248  32.325  60.679  1.00  0.00     0.141 A 
HETATM    2  N   UNL     1       5.296  31.956  59.744  1.00  0.00    -0.324 N 
HETATM    3  C   UNL     1       5.952  31.326  58.687  1.00  0.00     0.076 A 
HETATM    4  C   UNL     1       7.280  31.284  59.095  1.00  0.00     0.097 A 
HETATM    5  N   UNL     1       7.445  31.955  60.278  1.00  0.00    -0.227 NA
ENDROOT
BRANCH   2   6
HETATM    6  C   UNL     1       3.850  32.125  59.902  1.00  0.00     0.178 C 
BRANCH   6   7
HETATM    7  C   UNL     1       3.306  33.519  60.006  1.00  0.00     0.068 A 
HETATM    8  C   UNL     1       3.435  34.315  58.761  1.00  0.00     0.259 A 
HETATM    9  O   UNL     1       3.987  33.882  57.754  1.00  0.00    -0.267 OA
HETATM   10  N   UNL     1       2.878  35.553  58.780  1.00  0.00    -0.298 N 
HETATM   11  C   UNL     1       2.213  36.023  59.859  1.00  0.00     0.181 A 
HETATM   12  H   UNL     1       2.906  36.075  57.921  1.00  0.00     0.171 HD
HETATM   13  N   UNL     1       2.098  35.350  60.954  1.00  0.00    -0.208 NA
HETATM   14  C   UNL     1       2.637  34.090  61.030  1.00  0.00     0.117 A 
BRANCH  11  15
HETATM   15  N   UNL     1       1.665  37.257  59.741  1.00  0.00    -0.272 NA
HETATM   16  H   UNL     1       0.892  37.476  60.354  1.00  0.00     0.127 HD
HETATM   17  H   UNL     1       1.487  37.503  58.772  1.00  0.00     0.127 HD
ENDBRANCH  11  15
BRANCH  14  18
HETATM   18  N   UNL     1       2.412  33.417  62.214  1.00  0.00    -0.286 NA
HETATM   19  H   UNL     1       1.422  33.308  62.414  1.00  0.00     0.125 HD
HETATM   20  H   UNL     1       2.842  32.498  62.125  1.00  0.00     0.125 HD
ENDBRANCH  14  18
ENDBRANCH   6   7
ENDBRANCH   2   6
BRANCH   1  21
HETATM   21  C   UNL     1       6.026  33.053  61.926  1.00  0.00     0.010 A 
HETATM   22  C   UNL     1       6.056  34.444  61.992  1.00  0.00     0.017 A 
HETATM   23  C   UNL     1       5.741  35.107  63.190  1.00  0.00     0.030 A 
HETATM   24  C   UNL     1       5.352  34.418  64.354  1.00  0.00     0.029 A 
HETATM   25  C   UNL     1       5.357  33.016  64.263  1.00  0.00     0.030 A 
HETATM   26  C   UNL     1       5.674  32.344  63.075  1.00  0.00     0.017 A 
BRANCH  24  27
HETATM   27  N   UNL     1       5.011  35.089  65.538  1.00  0.00    -0.390 N 
HETATM   28  C   UNL     1       4.582  36.485  65.440  1.00  0.00     0.149 C 
HETATM   29  C   UNL     1       4.387  34.324  66.618  1.00  0.00     0.149 C 
ENDBRANCH  24  27
ENDBRANCH   1  21
BRANCH   3  30
HETATM   30  C   UNL     1       5.334  30.933  57.420  1.00  0.00    -0.007 A 
HETATM   31  C   UNL     1       4.652  29.709  57.343  1.00  0.00     0.014 A 
HETATM   32  C   UNL     1       4.038  29.308  56.156  1.00  0.00     0.001 A 
HETATM   33  C   UNL     1       4.103  30.128  55.032  1.00  0.00     0.000 A 
HETATM   34  C   UNL     1       4.775  31.348  55.098  1.00  0.00     0.001 A 
HETATM   35  C   UNL     1       5.385  31.753  56.289  1.00  0.00     0.014 A 
ENDBRANCH   3  30
BRANCH   4  36
HETATM   36  C   UNL     1       8.417  30.666  58.426  1.00  0.00    -0.005 A 
HETATM   37  C   UNL     1       8.249  29.411  57.821  1.00  0.00     0.014 A 
HETATM   38  C   UNL     1       9.295  28.811  57.115  1.00  0.00     0.001 A 
HETATM   39  C   UNL     1      10.520  29.463  57.001  1.00  0.00     0.000 A 
HETATM   40  C   UNL     1      10.698  30.713  57.589  1.00  0.00     0.001 A 
HETATM   41  C   UNL     1       9.650  31.315  58.294  1.00  0.00     0.014 A 
ENDBRANCH   4  36
TORSDOF 8
ENDMDL
MODEL 9
REMARK VINA RESULT:      -7.9      7.868     10.278
REMARK  8 active torsions:
REMARK  status: ('A' for Active; 'I' for Inactive)
REMARK    1  A    between atoms: N_2  and  C_3 
REMARK    2  A    between atoms: C_6  and  C_7 
REMARK    3  A    between atoms: N_8  and  C_9 
REMARK    4  A    between atoms: C_9  and  C_10 
REMARK    5  A    between atoms: C_14  and  N_15 
REMARK    6  A    between atoms: C_17  and  N_18 
REMARK    7  A    between atoms: C_19  and  C_20 
REMARK    8  A    between atoms: C_26  and  C_27 
ROOT
HETATM    1  C   UNL     1       4.961  33.756  58.989  1.00  0.00     0.141 A 
HETATM    2  N   UNL     1       4.649  34.431  60.158  1.00  0.00    -0.324 N 
HETATM    3  C   UNL     1       5.501  33.970  61.161  1.00  0.00     0.076 A 
HETATM    4  C   UNL     1       6.344  33.083  60.502  1.00  0.00     0.097 A 
HETATM    5  N   UNL     1       5.954  32.920  59.199  1.00  0.00    -0.227 NA
ENDROOT
BRANCH   2   6
HETATM    6  C   UNL     1       3.658  35.502  60.273  1.00  0.00     0.178 C 
BRANCH   6   7
HETATM    7  C   UNL     1       2.209  35.147  60.113  1.00  0.00     0.068 A 
HETATM    8  C   UNL     1       1.634  34.408  61.264  1.00  0.00     0.259 A 
HETATM    9  O   UNL     1       2.306  34.073  62.236  1.00  0.00    -0.267 OA
HETATM   10  N   UNL     1       0.305  34.142  61.203  1.00  0.00    -0.298 N 
HETATM   11  C   UNL     1      -0.462  34.557  60.170  1.00  0.00     0.181 A 
HETATM   12  H   UNL     1      -0.106  33.697  62.006  1.00  0.00     0.171 HD
HETATM   13  N   UNL     1       0.020  35.193  59.156  1.00  0.00    -0.208 NA
HETATM   14  C   UNL     1       1.358  35.499  59.126  1.00  0.00     0.117 A 
BRANCH  11  15
HETATM   15  N   UNL     1      -1.785  34.267  60.244  1.00  0.00    -0.272 NA
HETATM   16  H   UNL     1      -2.072  33.352  59.927  1.00  0.00     0.127 HD
HETATM   17  H   UNL     1      -2.359  35.016  59.871  1.00  0.00     0.127 HD
ENDBRANCH  11  15
BRANCH  14  18
HETATM   18  N   UNL     1       1.776  36.236  58.036  1.00  0.00    -0.286 NA
HETATM   19  H   UNL     1       2.784  36.355  58.015  1.00  0.00     0.125 HD
HETATM   20  H   UNL     1       1.477  35.736  57.202  1.00  0.00     0.125 HD
ENDBRANCH  14  18
ENDBRANCH   6   7
ENDBRANCH   2   6
BRANCH   1  21
HETATM   21  C   UNL     1       4.297  33.881  57.693  1.00  0.00     0.010 A 
HETATM   22  C   UNL     1       4.638  34.872  56.776  1.00  0.00     0.017 A 
HETATM   23  C   UNL     1       4.043  34.898  55.503  1.00  0.00     0.030 A 
HETATM   24  C   UNL     1       3.117  33.925  55.082  1.00  0.00     0.029 A 
HETATM   25  C   UNL     1       2.775  32.955  56.040  1.00  0.00     0.030 A 
HETATM   26  C   UNL     1       3.358  32.922  57.313  1.00  0.00     0.017 A 
BRANCH  24  27
HETATM   27  N   UNL     1       2.550  33.942  53.799  1.00  0.00    -0.390 N 
HETATM   28  C   UNL     1       1.134  33.597  53.666  1.00  0.00     0.149 C 
HETATM   29  C   UNL     1       3.040  34.927  52.834  1.00  0.00     0.149 C 
ENDBRANCH  24  27
ENDBRANCH   1  21
BRANCH   3  30
HETATM   30  C   UNL     1       5.394  34.303  62.582  1.00  0.00    -0.007 A 
HETATM   31  C   UNL     1       5.006  33.306  63.490  1.00  0.00     0.014 A 
HETATM   32  C   UNL     1       4.908  33.583  64.854  1.00  0.00     0.001 A 
HETATM   33  C   UNL     1       5.196  34.863  65.323  1.00  0.00     0.000 A 
HETATM   34  C   UNL     1       5.586  35.861  64.430  1.00  0.00     0.001 A 
HETATM   35  C   UNL     1       5.691  35.581  63.064  1.00  0.00     0.014 A 
ENDBRANCH   3  30
BRANCH   4  36
HETATM   36  C   UNL     1       7.490  32.355  61.032  1.00  0.00    -0.005 A 
HETATM   37  C   UNL     1       7.280  31.395  62.033  1.00  0.00     0.014 A 
HETATM   38  C   UNL     1       8.341  30.629  62.525  1.00  0.00     0.001 A 
HETATM   39  C   UNL     1       9.623  30.811  62.015  1.00  0.00     0.000 A 
HETATM   40  C   UNL     1       9.845  31.754  61.014  1.00  0.00     0.001 A 
HETATM   41  C   UNL     1       8.782  32.519  60.521  1.00  0.00     0.014 A 
ENDBRANCH   4  36
TORSDOF 8
ENDMDL
MODEL 10
REMARK VINA RESULT:      -7.7      2.613      4.197
REMARK  8 active torsions:
REMARK  status: ('A' for Active; 'I' for Inactive)
REMARK    1  A    between atoms: N_2  and  C_3 
REMARK    2  A    between atoms: C_6  and  C_7 
REMARK    3  A    between atoms: N_8  and  C_9 
REMARK    4  A    between atoms: C_9  and  C_10 
REMARK    5  A    between atoms: C_14  and  N_15 
REMARK    6  A    between atoms: C_17  and  N_18 
REMARK    7  A    between atoms: C_19  and  C_20 
REMARK    8  A    between atoms: C_26  and  C_27 
ROOT
HETATM    1  C   UNL     1       6.111  29.330  57.074  1.00  0.00     0.141 A 
HETATM    2  N   UNL     1       5.136  30.301  57.235  1.00  0.00    -0.324 N 
HETATM    3  C   UNL     1       5.553  31.165  58.247  1.00  0.00     0.076 A 
HETATM    4  C   UNL     1       6.817  30.698  58.587  1.00  0.00     0.097 A 
HETATM    5  N   UNL     1       7.106  29.544  57.908  1.00  0.00    -0.227 NA
ENDROOT
BRANCH   2   6
HETATM    6  C   UNL     1       3.932  30.429  56.413  1.00  0.00     0.178 C 
BRANCH   6   7
HETATM    7  C   UNL     1       4.086  30.903  54.998  1.00  0.00     0.068 A 
HETATM    8  C   UNL     1       3.756  29.881  53.976  1.00  0.00     0.259 A 
HETATM    9  O   UNL     1       3.436  28.732  54.270  1.00  0.00    -0.267 OA
HETATM   10  N   UNL     1       3.797  30.289  52.682  1.00  0.00    -0.298 N 
HETATM   11  C   UNL     1       4.087  31.566  52.344  1.00  0.00     0.181 A 
HETATM   12  H   UNL     1       3.514  29.621  51.986  1.00  0.00     0.171 HD
HETATM   13  N   UNL     1       4.385  32.467  53.216  1.00  0.00    -0.208 NA
HETATM   14  C   UNL     1       4.378  32.143  54.550  1.00  0.00     0.117 A 
BRANCH  11  15
HETATM   15  N   UNL     1       4.054  31.862  51.021  1.00  0.00    -0.272 NA
HETATM   16  H   UNL     1       3.151  31.843  50.568  1.00  0.00     0.127 HD
HETATM   17  H   UNL     1       4.770  31.364  50.502  1.00  0.00     0.127 HD
ENDBRANCH  11  15
BRANCH  14  18
HETATM   18  N   UNL     1       4.646  33.183  55.417  1.00  0.00    -0.286 NA
HETATM   19  H   UNL     1       4.172  34.041  55.149  1.00  0.00     0.125 HD
HETATM   20  H   UNL     1       4.328  32.895  56.340  1.00  0.00     0.125 HD
ENDBRANCH  14  18
ENDBRANCH   6   7
ENDBRANCH   2   6
BRANCH   1  21
HETATM   21  C   UNL     1       6.081  28.191  56.159  1.00  0.00     0.010 A 
HETATM   22  C   UNL     1       6.785  28.184  54.957  1.00  0.00     0.017 A 
HETATM   23  C   UNL     1       6.807  27.033  54.152  1.00  0.00     0.030 A 
HETATM   24  C   UNL     1       6.163  25.838  54.525  1.00  0.00     0.029 A 
HETATM   25  C   UNL     1       5.439  25.886  55.729  1.00  0.00     0.030 A 
HETATM   26  C   UNL     1       5.407  27.031  56.537  1.00  0.00     0.017 A 
BRANCH  24  27
HETATM   27  N   UNL     1       6.214  24.684  53.729  1.00  0.00    -0.390 N 
HETATM   28  C   UNL     1       5.511  24.700  52.446  1.00  0.00     0.149 C 
HETATM   29  C   UNL     1       7.431  23.871  53.758  1.00  0.00     0.149 C 
ENDBRANCH  24  27
ENDBRANCH   1  21
BRANCH   3  30
HETATM   30  C   UNL     1       4.741  32.227  58.841  1.00  0.00    -0.007 A 
HETATM   31  C   UNL     1       4.976  33.558  58.467  1.00  0.00     0.014 A 
HETATM   32  C   UNL     1       4.212  34.596  59.002  1.00  0.00     0.001 A 
HETATM   33  C   UNL     1       3.203  34.310  59.920  1.00  0.00     0.000 A 
HETATM   34  C   UNL     1       2.957  32.990  60.296  1.00  0.00     0.001 A 
HETATM   35  C   UNL     1       3.719  31.950  59.755  1.00  0.00     0.014 A 
ENDBRANCH   3  30
BRANCH   4  36
HETATM   36  C   UNL     1       7.769  31.260  59.535  1.00  0.00    -0.005 A 
HETATM   37  C   UNL     1       7.387  31.399  60.879  1.00  0.00     0.014 A 
HETATM   38  C   UNL     1       8.289  31.875  61.834  1.00  0.00     0.001 A 
HETATM   39  C   UNL     1       9.586  32.211  61.457  1.00  0.00     0.000 A 
HETATM   40  C   UNL     1       9.982  32.070  60.129  1.00  0.00     0.001 A 
HETATM   41  C   UNL     1       9.080  31.591  59.173  1.00  0.00     0.014 A 
ENDBRANCH   4  36
TORSDOF 8
ENDMDL
