MODEL 1
REMARK VINA RESULT:      -9.7      0.000      0.000
REMARK  3 active torsions:
REMARK  status: ('A' for Active; 'I' for Inactive)
REMARK    1  A    between atoms: C_4  and  N_5 
REMARK       I    between atoms: N_5  and  C_6 
REMARK    2  A    between atoms: C_6  and  C_7 
REMARK    3  A    between atoms: C_7  and  C_8 
ROOT
HETATM    1  C   UNL     1       7.085  25.630  56.053  1.00  0.00     0.286 C 
HETATM    2  N   UNL     1       7.626  24.904  54.821  1.00  0.00    -0.056 N 
HETATM    3  H   UNL     1       7.041  25.211  54.016  1.00  0.00     0.278 HD
HETATM    4  H   UNL     1       8.583  25.212  54.613  1.00  0.00     0.278 HD
HETATM    5  C   UNL     1       7.549  23.420  55.011  1.00  0.00     0.209 C 
HETATM    6  C   UNL     1       8.437  23.044  56.220  1.00  0.00     0.115 C 
HETATM    7  N   UNL     1       8.117  23.827  57.413  1.00  0.00    -0.353 N 
HETATM    8  C   UNL     1       7.796  25.168  57.344  1.00  0.00     0.249 C 
HETATM    9  O   UNL     1       7.999  25.906  58.300  1.00  0.00    -0.271 OA
HETATM   10  C   UNL     1       8.001  22.693  53.752  1.00  0.00     0.035 C 
HETATM   11  C   UNL     1       7.944  21.181  53.981  1.00  0.00     0.002 C 
HETATM   12  C   UNL     1       8.733  20.749  55.220  1.00  0.00     0.002 C 
HETATM   13  C   UNL     1       8.345  21.539  56.474  1.00  0.00     0.027 C 
HETATM   14  H   UNL     1       8.602  23.591  58.277  1.00  0.00     0.163 HD
ENDROOT
BRANCH   1  15
HETATM   15  C   UNL     1       7.141  27.151  55.873  1.00  0.00     0.146 C 
BRANCH  15  16
HETATM   16  C   UNL     1       6.119  27.804  56.769  1.00  0.00     0.224 C 
HETATM   17  N   UNL     1       6.441  28.763  57.671  1.00  0.00    -0.327 N 
HETATM   18  H   UNL     1       5.661  28.981  58.287  1.00  0.00     0.169 HD
HETATM   19  O   UNL     1       4.939  27.434  56.683  1.00  0.00    -0.273 OA
BRANCH  17  20
HETATM   20  C   UNL     1       7.627  29.467  57.951  1.00  0.00     0.035 A 
HETATM   21  C   UNL     1       8.871  29.202  57.379  1.00  0.00     0.036 A 
HETATM   22  C   UNL     1      10.000  29.963  57.730  1.00  0.00    -0.059 A 
HETATM   23  C   UNL     1      11.326  29.704  57.076  1.00  0.00     0.048 C 
HETATM   24  C   UNL     1       9.864  31.015  58.642  1.00  0.00     0.013 A 
HETATM   25  C   UNL     1       8.624  31.304  59.217  1.00  0.00    -0.059 A 
HETATM   26  C   UNL     1       7.511  30.539  58.848  1.00  0.00     0.036 A 
HETATM   27  C   UNL     1       8.482  32.454  60.171  1.00  0.00     0.048 C 
ENDBRANCH  17  20
ENDBRANCH  15  16
ENDBRANCH   1  15
TORSDOF 3
ENDMDL
MODEL 2
REMARK VINA RESULT:      -9.7      1.714      7.252
REMARK  3 active torsions:
REMARK  status: ('A' for Active; 'I' for Inactive)
REMARK    1  A    between atoms: C_4  and  N_5 
REMARK       I    between atoms: N_5  and  C_6 
REMARK    2  A    between atoms: C_6  and  C_7 
REMARK    3  A    between atoms: C_7  and  C_8 
ROOT
HETATM    1  C   UNL     1       7.069  27.501  56.279  1.00  0.00     0.286 C 
HETATM    2  N   UNL     1       8.244  28.291  55.702  1.00  0.00    -0.056 N 
HETATM    3  H   UNL     1       8.814  27.615  55.152  1.00  0.00     0.278 HD
HETATM    4  H   UNL     1       7.910  28.996  55.033  1.00  0.00     0.278 HD
HETATM    5  C   UNL     1       9.051  28.909  56.803  1.00  0.00     0.209 C 
HETATM    6  C   UNL     1       8.140  29.893  57.572  1.00  0.00     0.115 C 
HETATM    7  N   UNL     1       6.891  29.273  58.010  1.00  0.00    -0.353 N 
HETATM    8  C   UNL     1       6.206  28.369  57.221  1.00  0.00     0.249 C 
HETATM    9  O   UNL     1       4.996  28.229  57.343  1.00  0.00    -0.271 OA
HETATM   10  C   UNL     1      10.273  29.620  56.238  1.00  0.00     0.035 C 
HETATM   11  C   UNL     1      11.064  30.269  57.376  1.00  0.00     0.002 C 
HETATM   12  C   UNL     1      10.196  31.192  58.236  1.00  0.00     0.002 C 
HETATM   13  C   UNL     1       8.919  30.509  58.735  1.00  0.00     0.027 C 
HETATM   14  H   UNL     1       6.265  29.829  58.590  1.00  0.00     0.163 HD
ENDROOT
BRANCH   1  15
HETATM   15  C   UNL     1       6.239  26.848  55.169  1.00  0.00     0.146 C 
BRANCH  15  16
HETATM   16  C   UNL     1       7.019  26.863  53.879  1.00  0.00     0.224 C 
HETATM   17  N   UNL     1       7.716  25.790  53.430  1.00  0.00    -0.327 N 
HETATM   18  H   UNL     1       8.297  26.024  52.629  1.00  0.00     0.169 HD
HETATM   19  O   UNL     1       7.032  27.907  53.210  1.00  0.00    -0.273 OA
BRANCH  17  20
HETATM   20  C   UNL     1       7.831  24.459  53.873  1.00  0.00     0.035 A 
HETATM   21  C   UNL     1       7.786  23.333  53.052  1.00  0.00     0.036 A 
HETATM   22  C   UNL     1       7.906  22.042  53.596  1.00  0.00    -0.059 A 
HETATM   23  C   UNL     1       7.905  20.836  52.701  1.00  0.00     0.048 C 
HETATM   24  C   UNL     1       8.103  21.891  54.972  1.00  0.00     0.013 A 
HETATM   25  C   UNL     1       8.162  23.006  55.810  1.00  0.00    -0.059 A 
HETATM   26  C   UNL     1       8.047  24.284  55.248  1.00  0.00     0.036 A 
HETATM   27  C   UNL     1       8.402  22.836  57.282  1.00  0.00     0.048 C 
ENDBRANCH  17  20
ENDBRANCH  15  16
ENDBRANCH   1  15
TORSDOF 3
ENDMDL
MODEL 3
REMARK VINA RESULT:      -9.6      1.251      7.975
REMARK  3 active torsions:
REMARK  status: ('A' for Active; 'I' for Inactive)
REMARK    1  A    between atoms: C_4  and  N_5 
REMARK       I    between atoms: N_5  and  C_6 
REMARK    2  A    between atoms: C_6  and  C_7 
REMARK    3  A    between atoms: C_7  and  C_8 
ROOT
HETATM    1  C   UNL     1       7.033  27.688  57.650  1.00  0.00     0.286 C 
HETATM    2  N   UNL     1       8.321  28.506  57.742  1.00  0.00    -0.056 N 
HETATM    3  H   UNL     1       9.073  27.844  58.027  1.00  0.00     0.278 HD
HETATM    4  H   UNL     1       8.588  28.861  56.815  1.00  0.00     0.278 HD
HETATM    5  C   UNL     1       8.169  29.614  58.738  1.00  0.00     0.209 C 
HETATM    6  C   UNL     1       7.038  30.549  58.248  1.00  0.00     0.115 C 
HETATM    7  N   UNL     1       5.803  29.824  57.952  1.00  0.00    -0.353 N 
HETATM    8  C   UNL     1       5.810  28.582  57.349  1.00  0.00     0.249 C 
HETATM    9  O   UNL     1       4.851  28.206  56.687  1.00  0.00    -0.271 OA
HETATM   10  C   UNL     1       9.477  30.375  58.899  1.00  0.00     0.035 C 
HETATM   11  C   UNL     1       9.290  31.520  59.896  1.00  0.00     0.002 C 
HETATM   12  C   UNL     1       8.123  32.437  59.518  1.00  0.00     0.002 C 
HETATM   13  C   UNL     1       6.822  31.668  59.268  1.00  0.00     0.027 C 
HETATM   14  H   UNL     1       4.983  30.372  57.697  1.00  0.00     0.163 HD
ENDROOT
BRANCH   1  15
HETATM   15  C   UNL     1       7.173  26.539  56.646  1.00  0.00     0.146 C 
BRANCH  15  16
HETATM   16  C   UNL     1       7.941  25.406  57.279  1.00  0.00     0.224 C 
HETATM   17  N   UNL     1       8.230  24.257  56.620  1.00  0.00    -0.327 N 
HETATM   18  H   UNL     1       8.619  23.551  57.241  1.00  0.00     0.169 HD
HETATM   19  O   UNL     1       8.309  25.529  58.457  1.00  0.00    -0.273 OA
BRANCH  17  20
HETATM   20  C   UNL     1       8.058  23.839  55.287  1.00  0.00     0.035 A 
HETATM   21  C   UNL     1       7.826  24.686  54.204  1.00  0.00     0.036 A 
HETATM   22  C   UNL     1       7.663  24.167  52.908  1.00  0.00    -0.059 A 
HETATM   23  C   UNL     1       7.461  25.087  51.738  1.00  0.00     0.048 C 
HETATM   24  C   UNL     1       7.764  22.787  52.701  1.00  0.00     0.013 A 
HETATM   25  C   UNL     1       8.007  21.923  53.771  1.00  0.00    -0.059 A 
HETATM   26  C   UNL     1       8.174  22.461  55.053  1.00  0.00     0.036 A 
HETATM   27  C   UNL     1       8.143  20.446  53.536  1.00  0.00     0.048 C 
ENDBRANCH  17  20
ENDBRANCH  15  16
ENDBRANCH   1  15
TORSDOF 3
ENDMDL
MODEL 4
REMARK VINA RESULT:      -9.3      5.370      8.018
REMARK  3 active torsions:
REMARK  status: ('A' for Active; 'I' for Inactive)
REMARK    1  A    between atoms: C_4  and  N_5 
REMARK       I    between atoms: N_5  and  C_6 
REMARK    2  A    between atoms: C_6  and  C_7 
REMARK    3  A    between atoms: C_7  and  C_8 
ROOT
HETATM    1  C   UNL     1       5.533  27.590  50.975  1.00  0.00     0.286 C 
HETATM    2  N   UNL     1       4.644  26.400  50.614  1.00  0.00    -0.056 N 
HETATM    3  H   UNL     1       5.195  25.543  50.831  1.00  0.00     0.278 HD
HETATM    4  H   UNL     1       3.818  26.371  51.223  1.00  0.00     0.278 HD
HETATM    5  C   UNL     1       4.266  26.447  49.166  1.00  0.00     0.209 C 
HETATM    6  C   UNL     1       3.458  27.743  48.923  1.00  0.00     0.115 C 
HETATM    7  N   UNL     1       4.152  28.935  49.409  1.00  0.00    -0.353 N 
HETATM    8  C   UNL     1       4.874  28.932  50.586  1.00  0.00     0.249 C 
HETATM    9  O   UNL     1       5.034  29.967  51.221  1.00  0.00    -0.271 OA
HETATM   10  C   UNL     1       3.457  25.217  48.781  1.00  0.00     0.035 C 
HETATM   11  C   UNL     1       3.055  25.303  47.307  1.00  0.00     0.002 C 
HETATM   12  C   UNL     1       2.326  26.608  46.978  1.00  0.00     0.002 C 
HETATM   13  C   UNL     1       3.093  27.849  47.442  1.00  0.00     0.027 C 
HETATM   14  H   UNL     1       3.725  29.840  49.221  1.00  0.00     0.163 HD
ENDROOT
BRANCH   1  15
HETATM   15  C   UNL     1       5.945  27.552  52.450  1.00  0.00     0.146 C 
BRANCH  15  16
HETATM   16  C   UNL     1       4.818  26.983  53.275  1.00  0.00     0.224 C 
HETATM   17  N   UNL     1       4.971  25.904  54.082  1.00  0.00    -0.327 N 
HETATM   18  H   UNL     1       4.080  25.571  54.443  1.00  0.00     0.169 HD
HETATM   19  O   UNL     1       3.703  27.518  53.197  1.00  0.00    -0.273 OA
BRANCH  17  20
HETATM   20  C   UNL     1       6.087  25.141  54.472  1.00  0.00     0.035 A 
HETATM   21  C   UNL     1       6.828  25.340  55.636  1.00  0.00     0.036 A 
HETATM   22  C   UNL     1       7.933  24.522  55.933  1.00  0.00    -0.059 A 
HETATM   23  C   UNL     1       8.698  24.711  57.211  1.00  0.00     0.048 C 
HETATM   24  C   UNL     1       8.271  23.479  55.064  1.00  0.00     0.013 A 
HETATM   25  C   UNL     1       7.534  23.256  53.899  1.00  0.00    -0.059 A 
HETATM   26  C   UNL     1       6.433  24.077  53.625  1.00  0.00     0.036 A 
HETATM   27  C   UNL     1       7.885  22.117  52.987  1.00  0.00     0.048 C 
ENDBRANCH  17  20
ENDBRANCH  15  16
ENDBRANCH   1  15
TORSDOF 3
ENDMDL
MODEL 5
REMARK VINA RESULT:      -9.2      1.493      2.496
REMARK  3 active torsions:
REMARK  status: ('A' for Active; 'I' for Inactive)
REMARK    1  A    between atoms: C_4  and  N_5 
REMARK       I    between atoms: N_5  and  C_6 
REMARK    2  A    between atoms: C_6  and  C_7 
REMARK    3  A    between atoms: C_7  and  C_8 
ROOT
HETATM    1  C   UNL     1       7.211  27.066  54.448  1.00  0.00     0.286 C 
HETATM    2  N   UNL     1       7.121  25.846  55.365  1.00  0.00    -0.056 N 
HETATM    3  H   UNL     1       7.576  26.116  56.263  1.00  0.00     0.278 HD
HETATM    4  H   UNL     1       6.141  25.639  55.593  1.00  0.00     0.278 HD
HETATM    5  C   UNL     1       7.807  24.669  54.743  1.00  0.00     0.209 C 
HETATM    6  C   UNL     1       7.079  24.333  53.421  1.00  0.00     0.115 C 
HETATM    7  N   UNL     1       6.949  25.495  52.543  1.00  0.00    -0.353 N 
HETATM    8  C   UNL     1       6.674  26.756  53.034  1.00  0.00     0.249 C 
HETATM    9  O   UNL     1       6.109  27.586  52.334  1.00  0.00    -0.271 OA
HETATM   10  C   UNL     1       7.798  23.479  55.691  1.00  0.00     0.035 C 
HETATM   11  C   UNL     1       8.475  22.281  55.023  1.00  0.00     0.002 C 
HETATM   12  C   UNL     1       7.858  21.948  53.661  1.00  0.00     0.002 C 
HETATM   13  C   UNL     1       7.783  23.163  52.732  1.00  0.00     0.027 C 
HETATM   14  H   UNL     1       6.550  25.346  51.618  1.00  0.00     0.163 HD
ENDROOT
BRANCH   1  15
HETATM   15  C   UNL     1       6.528  28.286  55.074  1.00  0.00     0.146 C 
BRANCH  15  16
HETATM   16  C   UNL     1       6.006  27.926  56.442  1.00  0.00     0.224 C 
HETATM   17  N   UNL     1       6.627  28.302  57.587  1.00  0.00    -0.327 N 
HETATM   18  H   UNL     1       6.223  27.851  58.404  1.00  0.00     0.169 HD
HETATM   19  O   UNL     1       4.973  27.246  56.518  1.00  0.00    -0.273 OA
BRANCH  17  20
HETATM   20  C   UNL     1       7.727  29.137  57.859  1.00  0.00     0.035 A 
HETATM   21  C   UNL     1       9.009  28.972  57.336  1.00  0.00     0.036 A 
HETATM   22  C   UNL     1      10.043  29.862  57.675  1.00  0.00    -0.059 A 
HETATM   23  C   UNL     1      11.410  29.707  57.071  1.00  0.00     0.048 C 
HETATM   24  C   UNL     1       9.773  30.941  58.523  1.00  0.00     0.013 A 
HETATM   25  C   UNL     1       8.493  31.130  59.049  1.00  0.00    -0.059 A 
HETATM   26  C   UNL     1       7.475  30.237  58.693  1.00  0.00     0.036 A 
HETATM   27  C   UNL     1       8.205  32.307  59.935  1.00  0.00     0.048 C 
ENDBRANCH  17  20
ENDBRANCH  15  16
ENDBRANCH   1  15
TORSDOF 3
ENDMDL
MODEL 6
REMARK VINA RESULT:      -9.1      5.098      7.377
REMARK  3 active torsions:
REMARK  status: ('A' for Active; 'I' for Inactive)
REMARK    1  A    between atoms: C_4  and  N_5 
REMARK       I    between atoms: N_5  and  C_6 
REMARK    2  A    between atoms: C_6  and  C_7 
REMARK    3  A    between atoms: C_7  and  C_8 
ROOT
HETATM    1  C   UNL     1       5.174  25.576  53.843  1.00  0.00     0.286 C 
HETATM    2  N   UNL     1       6.303  24.980  53.003  1.00  0.00    -0.056 N 
HETATM    3  H   UNL     1       5.898  24.772  52.066  1.00  0.00     0.278 HD
HETATM    4  H   UNL     1       7.042  25.676  52.847  1.00  0.00     0.278 HD
HETATM    5  C   UNL     1       6.838  23.739  53.649  1.00  0.00     0.209 C 
HETATM    6  C   UNL     1       7.417  24.127  55.029  1.00  0.00     0.115 C 
HETATM    7  N   UNL     1       6.462  24.873  55.846  1.00  0.00    -0.353 N 
HETATM    8  C   UNL     1       5.616  25.820  55.302  1.00  0.00     0.249 C 
HETATM    9  O   UNL     1       5.193  26.742  55.987  1.00  0.00    -0.271 OA
HETATM   10  C   UNL     1       7.901  23.092  52.771  1.00  0.00     0.035 C 
HETATM   11  C   UNL     1       8.454  21.845  53.464  1.00  0.00     0.002 C 
HETATM   12  C   UNL     1       8.965  22.143  54.877  1.00  0.00     0.002 C 
HETATM   13  C   UNL     1       7.932  22.873  55.739  1.00  0.00     0.027 C 
HETATM   14  H   UNL     1       6.734  25.103  56.801  1.00  0.00     0.163 HD
ENDROOT
BRANCH   1  15
HETATM   15  C   UNL     1       4.602  26.839  53.191  1.00  0.00     0.146 C 
BRANCH  15  16
HETATM   16  C   UNL     1       5.669  27.508  52.363  1.00  0.00     0.224 C 
HETATM   17  N   UNL     1       5.552  27.692  51.025  1.00  0.00    -0.327 N 
HETATM   18  H   UNL     1       6.420  28.020  50.609  1.00  0.00     0.169 HD
HETATM   19  O   UNL     1       6.702  27.892  52.931  1.00  0.00    -0.273 OA
BRANCH  17  20
HETATM   20  C   UNL     1       4.505  27.476  50.108  1.00  0.00     0.035 A 
HETATM   21  C   UNL     1       4.350  26.336  49.321  1.00  0.00     0.036 A 
HETATM   22  C   UNL     1       3.268  26.219  48.431  1.00  0.00    -0.059 A 
HETATM   23  C   UNL     1       3.080  24.969  47.620  1.00  0.00     0.048 C 
HETATM   24  C   UNL     1       2.323  27.247  48.358  1.00  0.00     0.013 A 
HETATM   25  C   UNL     1       2.454  28.393  49.146  1.00  0.00    -0.059 A 
HETATM   26  C   UNL     1       3.535  28.486  50.032  1.00  0.00     0.036 A 
HETATM   27  C   UNL     1       1.419  29.478  49.083  1.00  0.00     0.048 C 
ENDBRANCH  17  20
ENDBRANCH  15  16
ENDBRANCH   1  15
TORSDOF 3
ENDMDL
MODEL 7
REMARK VINA RESULT:      -9.1      5.112      7.571
REMARK  3 active torsions:
REMARK  status: ('A' for Active; 'I' for Inactive)
REMARK    1  A    between atoms: C_4  and  N_5 
REMARK       I    between atoms: N_5  and  C_6 
REMARK    2  A    between atoms: C_6  and  C_7 
REMARK    3  A    between atoms: C_7  and  C_8 
ROOT
HETATM    1  C   UNL     1       5.277  25.206  53.818  1.00  0.00     0.286 C 
HETATM    2  N   UNL     1       6.400  24.579  52.992  1.00  0.00    -0.056 N 
HETATM    3  H   UNL     1       5.977  24.299  52.082  1.00  0.00     0.278 HD
HETATM    4  H   UNL     1       7.118  25.279  52.771  1.00  0.00     0.278 HD
HETATM    5  C   UNL     1       6.979  23.397  53.707  1.00  0.00     0.209 C 
HETATM    6  C   UNL     1       7.582  23.891  55.043  1.00  0.00     0.115 C 
HETATM    7  N   UNL     1       6.629  24.670  55.831  1.00  0.00    -0.353 N 
HETATM    8  C   UNL     1       5.748  25.559  55.246  1.00  0.00     0.249 C 
HETATM    9  O   UNL     1       5.320  26.517  55.877  1.00  0.00    -0.271 OA
HETATM   10  C   UNL     1       8.035  22.715  52.848  1.00  0.00     0.035 C 
HETATM   11  C   UNL     1       8.634  21.531  53.610  1.00  0.00     0.002 C 
HETATM   12  C   UNL     1       9.172  21.936  54.986  1.00  0.00     0.002 C 
HETATM   13  C   UNL     1       8.142  22.701  55.822  1.00  0.00     0.027 C 
HETATM   14  H   UNL     1       6.918  24.970  56.761  1.00  0.00     0.163 HD
ENDROOT
BRANCH   1  15
HETATM   15  C   UNL     1       4.660  26.409  53.097  1.00  0.00     0.146 C 
BRANCH  15  16
HETATM   16  C   UNL     1       5.722  27.117  52.295  1.00  0.00     0.224 C 
HETATM   17  N   UNL     1       5.538  27.498  51.007  1.00  0.00    -0.327 N 
HETATM   18  H   UNL     1       6.402  27.824  50.581  1.00  0.00     0.169 HD
HETATM   19  O   UNL     1       6.814  27.346  52.836  1.00  0.00    -0.273 OA
BRANCH  17  20
HETATM   20  C   UNL     1       4.424  27.485  50.147  1.00  0.00     0.035 A 
HETATM   21  C   UNL     1       3.475  28.502  50.047  1.00  0.00     0.036 A 
HETATM   22  C   UNL     1       2.394  28.391  49.157  1.00  0.00    -0.059 A 
HETATM   23  C   UNL     1       1.401  29.509  49.019  1.00  0.00     0.048 C 
HETATM   24  C   UNL     1       2.287  27.259  48.341  1.00  0.00     0.013 A 
HETATM   25  C   UNL     1       3.233  26.235  48.417  1.00  0.00    -0.059 A 
HETATM   26  C   UNL     1       4.308  26.369  49.306  1.00  0.00     0.036 A 
HETATM   27  C   UNL     1       3.128  25.038  47.518  1.00  0.00     0.048 C 
ENDBRANCH  17  20
ENDBRANCH  15  16
ENDBRANCH   1  15
TORSDOF 3
ENDMDL
MODEL 8
REMARK VINA RESULT:      -8.9      3.607      7.870
REMARK  3 active torsions:
REMARK  status: ('A' for Active; 'I' for Inactive)
REMARK    1  A    between atoms: C_4  and  N_5 
REMARK       I    between atoms: N_5  and  C_6 
REMARK    2  A    between atoms: C_6  and  C_7 
REMARK    3  A    between atoms: C_7  and  C_8 
ROOT
HETATM    1  C   UNL     1       5.142  26.931  54.303  1.00  0.00     0.286 C 
HETATM    2  N   UNL     1       4.149  28.012  53.878  1.00  0.00    -0.056 N 
HETATM    3  H   UNL     1       4.343  28.215  52.875  1.00  0.00     0.278 HD
HETATM    4  H   UNL     1       3.188  27.653  53.917  1.00  0.00     0.278 HD
HETATM    5  C   UNL     1       4.317  29.239  54.721  1.00  0.00     0.209 C 
HETATM    6  C   UNL     1       4.016  28.859  56.189  1.00  0.00     0.115 C 
HETATM    7  N   UNL     1       4.791  27.704  56.638  1.00  0.00    -0.353 N 
HETATM    8  C   UNL     1       5.038  26.623  55.813  1.00  0.00     0.249 C 
HETATM    9  O   UNL     1       5.240  25.512  56.288  1.00  0.00    -0.271 OA
HETATM   10  C   UNL     1       3.393  30.350  54.242  1.00  0.00     0.035 C 
HETATM   11  C   UNL     1       3.559  31.581  55.135  1.00  0.00     0.002 C 
HETATM   12  C   UNL     1       3.362  31.255  56.618  1.00  0.00     0.002 C 
HETATM   13  C   UNL     1       4.224  30.080  57.087  1.00  0.00     0.027 C 
HETATM   14  H   UNL     1       4.712  27.431  57.616  1.00  0.00     0.163 HD
ENDROOT
BRANCH   1  15
HETATM   15  C   UNL     1       4.997  25.671  53.443  1.00  0.00     0.146 C 
BRANCH  15  16
HETATM   16  C   UNL     1       6.020  25.695  52.336  1.00  0.00     0.224 C 
HETATM   17  N   UNL     1       7.179  24.994  52.392  1.00  0.00    -0.327 N 
HETATM   18  H   UNL     1       7.810  25.242  51.633  1.00  0.00     0.169 HD
HETATM   19  O   UNL     1       5.794  26.399  51.340  1.00  0.00    -0.273 OA
BRANCH  17  20
HETATM   20  C   UNL     1       7.691  24.046  53.298  1.00  0.00     0.035 A 
HETATM   21  C   UNL     1       7.972  24.291  54.641  1.00  0.00     0.036 A 
HETATM   22  C   UNL     1       8.487  23.275  55.464  1.00  0.00    -0.059 A 
HETATM   23  C   UNL     1       8.743  23.530  56.922  1.00  0.00     0.048 C 
HETATM   24  C   UNL     1       8.692  21.996  54.934  1.00  0.00     0.013 A 
HETATM   25  C   UNL     1       8.406  21.728  53.593  1.00  0.00    -0.059 A 
HETATM   26  C   UNL     1       7.886  22.753  52.792  1.00  0.00     0.036 A 
HETATM   27  C   UNL     1       8.601  20.347  53.039  1.00  0.00     0.048 C 
ENDBRANCH  17  20
ENDBRANCH  15  16
ENDBRANCH   1  15
TORSDOF 3
ENDMDL
MODEL 9
REMARK VINA RESULT:      -8.8      2.626      7.751
REMARK  3 active torsions:
REMARK  status: ('A' for Active; 'I' for Inactive)
REMARK    1  A    between atoms: C_4  and  N_5 
REMARK       I    between atoms: N_5  and  C_6 
REMARK    2  A    between atoms: C_6  and  C_7 
REMARK    3  A    between atoms: C_7  and  C_8 
ROOT
HETATM    1  C   UNL     1       7.276  30.729  57.800  1.00  0.00     0.286 C 
HETATM    2  N   UNL     1       6.394  31.126  58.984  1.00  0.00    -0.056 N 
HETATM    3  H   UNL     1       5.643  31.738  58.602  1.00  0.00     0.278 HD
HETATM    4  H   UNL     1       5.921  30.301  59.373  1.00  0.00     0.278 HD
HETATM    5  C   UNL     1       7.201  31.844  60.022  1.00  0.00     0.209 C 
HETATM    6  C   UNL     1       8.292  30.876  60.536  1.00  0.00     0.115 C 
HETATM    7  N   UNL     1       9.079  30.293  59.450  1.00  0.00    -0.353 N 
HETATM    8  C   UNL     1       8.505  29.912  58.253  1.00  0.00     0.249 C 
HETATM    9  O   UNL     1       9.013  29.030  57.573  1.00  0.00    -0.271 OA
HETATM   10  C   UNL     1       6.311  32.320  61.160  1.00  0.00     0.035 C 
HETATM   11  C   UNL     1       7.160  33.022  62.222  1.00  0.00     0.002 C 
HETATM   12  C   UNL     1       8.318  32.147  62.712  1.00  0.00     0.002 C 
HETATM   13  C   UNL     1       9.168  31.592  61.566  1.00  0.00     0.027 C 
HETATM   14  H   UNL     1       9.869  29.702  59.704  1.00  0.00     0.163 HD
ENDROOT
BRANCH   1  15
HETATM   15  C   UNL     1       6.465  30.007  56.719  1.00  0.00     0.146 C 
BRANCH  15  16
HETATM   16  C   UNL     1       5.285  29.313  57.351  1.00  0.00     0.224 C 
HETATM   17  N   UNL     1       5.091  27.974  57.271  1.00  0.00    -0.327 N 
HETATM   18  H   UNL     1       4.177  27.701  57.622  1.00  0.00     0.169 HD
HETATM   19  O   UNL     1       4.451  30.003  57.956  1.00  0.00    -0.273 OA
BRANCH  17  20
HETATM   20  C   UNL     1       5.868  26.915  56.764  1.00  0.00     0.035 A 
HETATM   21  C   UNL     1       6.964  26.343  57.409  1.00  0.00     0.036 A 
HETATM   22  C   UNL     1       7.678  25.288  56.815  1.00  0.00    -0.059 A 
HETATM   23  C   UNL     1       8.827  24.645  57.535  1.00  0.00     0.048 C 
HETATM   24  C   UNL     1       7.263  24.790  55.575  1.00  0.00     0.013 A 
HETATM   25  C   UNL     1       6.161  25.341  54.918  1.00  0.00    -0.059 A 
HETATM   26  C   UNL     1       5.459  26.386  55.531  1.00  0.00     0.036 A 
HETATM   27  C   UNL     1       5.706  24.780  53.602  1.00  0.00     0.048 C 
ENDBRANCH  17  20
ENDBRANCH  15  16
ENDBRANCH   1  15
TORSDOF 3
ENDMDL
MODEL 10
REMARK VINA RESULT:      -8.8      3.510      4.904
REMARK  3 active torsions:
REMARK  status: ('A' for Active; 'I' for Inactive)
REMARK    1  A    between atoms: C_4  and  N_5 
REMARK       I    between atoms: N_5  and  C_6 
REMARK    2  A    between atoms: C_6  and  C_7 
REMARK    3  A    between atoms: C_7  and  C_8 
ROOT
HETATM    1  C   UNL     1       7.075  24.749  55.756  1.00  0.00     0.286 C 
HETATM    2  N   UNL     1       7.394  24.166  54.379  1.00  0.00    -0.056 N 
HETATM    3  H   UNL     1       6.611  24.445  53.751  1.00  0.00     0.278 HD
HETATM    4  H   UNL     1       8.241  24.600  53.992  1.00  0.00     0.278 HD
HETATM    5  C   UNL     1       7.520  22.676  54.457  1.00  0.00     0.209 C 
HETATM    6  C   UNL     1       8.695  22.342  55.405  1.00  0.00     0.115 C 
HETATM    7  N   UNL     1       8.575  23.009  56.700  1.00  0.00    -0.353 N 
HETATM    8  C   UNL     1       8.106  24.303  56.816  1.00  0.00     0.249 C 
HETATM    9  O   UNL     1       8.443  25.005  57.761  1.00  0.00    -0.271 OA
HETATM   10  C   UNL     1       7.747  22.083  53.073  1.00  0.00     0.035 C 
HETATM   11  C   UNL     1       7.905  20.565  53.181  1.00  0.00     0.002 C 
HETATM   12  C   UNL     1       8.997  20.162  54.176  1.00  0.00     0.002 C 
HETATM   13  C   UNL     1       8.824  20.824  55.546  1.00  0.00     0.027 C 
HETATM   14  H   UNL     1       9.267  22.785  57.414  1.00  0.00     0.163 HD
ENDROOT
BRANCH   1  15
HETATM   15  C   UNL     1       6.926  26.273  55.695  1.00  0.00     0.146 C 
BRANCH  15  16
HETATM   16  C   UNL     1       5.526  26.660  56.096  1.00  0.00     0.224 C 
HETATM   17  N   UNL     1       4.662  27.272  55.248  1.00  0.00    -0.327 N 
HETATM   18  H   UNL     1       3.823  27.591  55.727  1.00  0.00     0.169 HD
HETATM   19  O   UNL     1       5.157  26.420  57.255  1.00  0.00    -0.273 OA
BRANCH  17  20
HETATM   20  C   UNL     1       4.717  27.590  53.878  1.00  0.00     0.035 A 
HETATM   21  C   UNL     1       4.883  26.667  52.846  1.00  0.00     0.036 A 
HETATM   22  C   UNL     1       4.929  27.089  51.506  1.00  0.00    -0.059 A 
HETATM   23  C   UNL     1       5.060  26.086  50.396  1.00  0.00     0.048 C 
HETATM   24  C   UNL     1       4.775  28.447  51.206  1.00  0.00     0.013 A 
HETATM   25  C   UNL     1       4.597  29.385  52.224  1.00  0.00    -0.059 A 
HETATM   26  C   UNL     1       4.546  28.944  53.552  1.00  0.00     0.036 A 
HETATM   27  C   UNL     1       4.403  30.836  51.891  1.00  0.00     0.048 C 
ENDBRANCH  17  20
ENDBRANCH  15  16
ENDBRANCH   1  15
TORSDOF 3
ENDMDL
