MODEL 1
REMARK VINA RESULT:      -8.2      0.000      0.000
REMARK  4 active torsions:
REMARK  status: ('A' for Active; 'I' for Inactive)
REMARK    1  A    between atoms: N_4  and  C_5 
REMARK    2  A    between atoms: C_13  and  C_14 
REMARK    3  A    between atoms: N_15  and  C_17 
REMARK    4  A    between atoms: C_17  and  C_18 
ROOT
HETATM    1  C   UNL     1       9.828  29.286  55.373  1.00  0.00     0.095 C 
HETATM    2  C   UNL     1       8.409  28.881  55.290  1.00  0.00     0.144 A 
HETATM    3  N   UNL     1       7.531  29.086  56.277  1.00  0.00    -0.156 NA
HETATM    4  N   UNL     1       6.375  28.657  55.740  1.00  0.00    -0.247 N 
HETATM    5  C   UNL     1       6.591  28.157  54.480  1.00  0.00     0.156 A 
HETATM    6  N   UNL     1       7.876  28.267  54.191  1.00  0.00    -0.215 NA
ENDROOT
BRANCH   5   7
HETATM    7  C   UNL     1       5.575  27.612  53.517  1.00  0.00     0.259 C 
HETATM    8  N   UNL     1       5.927  26.163  53.161  1.00  0.00    -0.056 N 
HETATM    9  H   UNL     1       6.931  26.226  52.927  1.00  0.00     0.281 HD
HETATM   10  C   UNL     1       5.256  25.580  51.947  1.00  0.00     0.236 C 
HETATM   11  C   UNL     1       5.417  26.499  50.752  1.00  0.00     0.028 C 
HETATM   12  C   UNL     1       4.867  27.878  51.068  1.00  0.00     0.004 C 
HETATM   13  C   UNL     1       5.616  28.482  52.244  1.00  0.00     0.041 C 
BRANCH   8  14
HETATM   14  C   UNL     1       5.916  25.194  54.341  1.00  0.00     0.274 C 
BRANCH  14  15
HETATM   15  C   UNL     1       6.981  24.121  54.385  1.00  0.00    -0.033 A 
HETATM   16  C   UNL     1       7.301  23.321  53.278  1.00  0.00     0.009 A 
HETATM   17  C   UNL     1       8.323  22.370  53.348  1.00  0.00     0.001 A 
HETATM   18  C   UNL     1       9.065  22.225  54.515  1.00  0.00     0.000 A 
HETATM   19  C   UNL     1       8.788  23.032  55.614  1.00  0.00     0.001 A 
HETATM   20  C   UNL     1       7.754  23.971  55.551  1.00  0.00     0.009 A 
ENDBRANCH  14  15
ENDBRANCH   8  14
ENDBRANCH   5   7
BRANCH   4  21
HETATM   21  C   UNL     1       5.154  28.760  56.532  1.00  0.00     0.115 C 
HETATM   22  C   UNL     1       3.895  28.991  55.677  1.00  0.00     0.055 C 
HETATM   23  C   UNL     1       3.735  30.421  55.166  1.00  0.00     0.236 C 
HETATM   24  N   UNL     1       3.865  31.405  56.304  1.00  0.00    -0.075 N 
HETATM   25  H   UNL     1       3.080  31.252  56.952  1.00  0.00     0.279 HD
HETATM   26  C   UNL     1       3.702  32.825  55.804  1.00  0.00     0.269 C 
HETATM   27  C   UNL     1       5.153  31.256  57.068  1.00  0.00     0.236 C 
HETATM   28  C   UNL     1       5.268  29.839  57.614  1.00  0.00     0.055 C 
ENDBRANCH   4  21
TORSDOF 4
ENDMDL
MODEL 2
REMARK VINA RESULT:      -8.1      3.308      7.917
REMARK  4 active torsions:
REMARK  status: ('A' for Active; 'I' for Inactive)
REMARK    1  A    between atoms: N_4  and  C_5 
REMARK    2  A    between atoms: C_13  and  C_14 
REMARK    3  A    between atoms: N_15  and  C_17 
REMARK    4  A    between atoms: C_17  and  C_18 
ROOT
HETATM    1  C   UNL     1       4.698  29.728  54.384  1.00  0.00     0.095 C 
HETATM    2  C   UNL     1       5.541  29.181  55.467  1.00  0.00     0.144 A 
HETATM    3  N   UNL     1       5.385  27.949  55.962  1.00  0.00    -0.156 NA
HETATM    4  N   UNL     1       6.403  27.850  56.836  1.00  0.00    -0.247 N 
HETATM    5  C   UNL     1       7.103  29.030  56.888  1.00  0.00     0.156 A 
HETATM    6  N   UNL     1       6.554  29.890  56.048  1.00  0.00    -0.215 NA
ENDROOT
BRANCH   5   7
HETATM    7  C   UNL     1       8.329  29.340  57.700  1.00  0.00     0.259 C 
HETATM    8  N   UNL     1       8.263  30.787  58.200  1.00  0.00    -0.056 N 
HETATM    9  H   UNL     1       8.022  31.310  57.343  1.00  0.00     0.281 HD
HETATM   10  C   UNL     1       9.546  31.389  58.704  1.00  0.00     0.236 C 
HETATM   11  C   UNL     1      10.660  31.203  57.693  1.00  0.00     0.028 C 
HETATM   12  C   UNL     1      10.841  29.730  57.371  1.00  0.00     0.004 C 
HETATM   13  C   UNL     1       9.558  29.164  56.785  1.00  0.00     0.041 C 
BRANCH   8  14
HETATM   14  C   UNL     1       7.087  31.091  59.125  1.00  0.00     0.274 C 
BRANCH  14  15
HETATM   15  C   UNL     1       7.395  31.520  60.542  1.00  0.00    -0.033 A 
HETATM   16  C   UNL     1       8.216  30.774  61.401  1.00  0.00     0.009 A 
HETATM   17  C   UNL     1       8.511  31.228  62.690  1.00  0.00     0.001 A 
HETATM   18  C   UNL     1       8.017  32.450  63.131  1.00  0.00     0.000 A 
HETATM   19  C   UNL     1       7.229  33.223  62.284  1.00  0.00     0.001 A 
HETATM   20  C   UNL     1       6.918  32.761  61.002  1.00  0.00     0.009 A 
ENDBRANCH  14  15
ENDBRANCH   8  14
ENDBRANCH   5   7
BRANCH   4  21
HETATM   21  C   UNL     1       6.583  26.598  57.563  1.00  0.00     0.115 C 
HETATM   22  C   UNL     1       7.956  25.948  57.320  1.00  0.00     0.055 C 
HETATM   23  C   UNL     1       8.085  25.235  55.976  1.00  0.00     0.236 C 
HETATM   24  N   UNL     1       6.935  24.278  55.774  1.00  0.00    -0.075 N 
HETATM   25  H   UNL     1       7.002  23.539  56.488  1.00  0.00     0.279 HD
HETATM   26  C   UNL     1       7.060  23.564  54.445  1.00  0.00     0.269 C 
HETATM   27  C   UNL     1       5.588  24.941  55.895  1.00  0.00     0.236 C 
HETATM   28  C   UNL     1       5.460  25.600  57.262  1.00  0.00     0.055 C 
ENDBRANCH   4  21
TORSDOF 4
ENDMDL
MODEL 3
REMARK VINA RESULT:      -7.8      8.331     11.248
REMARK  4 active torsions:
REMARK  status: ('A' for Active; 'I' for Inactive)
REMARK    1  A    between atoms: N_4  and  C_5 
REMARK    2  A    between atoms: C_13  and  C_14 
REMARK    3  A    between atoms: N_15  and  C_17 
REMARK    4  A    between atoms: C_17  and  C_18 
ROOT
HETATM    1  C   UNL     1       6.382  38.784  63.158  1.00  0.00     0.095 C 
HETATM    2  C   UNL     1       5.683  37.483  63.216  1.00  0.00     0.144 A 
HETATM    3  N   UNL     1       5.163  36.983  64.341  1.00  0.00    -0.156 NA
HETATM    4  N   UNL     1       4.558  35.860  63.913  1.00  0.00    -0.247 N 
HETATM    5  C   UNL     1       4.773  35.684  62.569  1.00  0.00     0.156 A 
HETATM    6  N   UNL     1       5.505  36.687  62.119  1.00  0.00    -0.215 NA
ENDROOT
BRANCH   5   7
HETATM    7  C   UNL     1       4.249  34.586  61.687  1.00  0.00     0.259 C 
HETATM    8  N   UNL     1       5.417  33.741  61.166  1.00  0.00    -0.056 N 
HETATM    9  H   UNL     1       6.077  34.458  60.823  1.00  0.00     0.281 HD
HETATM   10  C   UNL     1       5.135  32.844  59.992  1.00  0.00     0.236 C 
HETATM   11  C   UNL     1       4.469  33.619  58.872  1.00  0.00     0.028 C 
HETATM   12  C   UNL     1       3.196  34.279  59.370  1.00  0.00     0.004 C 
HETATM   13  C   UNL     1       3.516  35.244  60.500  1.00  0.00     0.041 C 
BRANCH   8  14
HETATM   14  C   UNL     1       6.224  33.029  62.249  1.00  0.00     0.274 C 
BRANCH  14  15
HETATM   15  C   UNL     1       7.471  32.285  61.826  1.00  0.00    -0.033 A 
HETATM   16  C   UNL     1       8.323  32.744  60.811  1.00  0.00     0.009 A 
HETATM   17  C   UNL     1       9.490  32.048  60.480  1.00  0.00     0.001 A 
HETATM   18  C   UNL     1       9.841  30.900  61.180  1.00  0.00     0.000 A 
HETATM   19  C   UNL     1       9.029  30.445  62.214  1.00  0.00     0.001 A 
HETATM   20  C   UNL     1       7.852  31.130  62.533  1.00  0.00     0.009 A 
ENDBRANCH  14  15
ENDBRANCH   8  14
ENDBRANCH   5   7
BRANCH   4  21
HETATM   21  C   UNL     1       3.832  35.043  64.881  1.00  0.00     0.115 C 
HETATM   22  C   UNL     1       3.570  35.769  66.212  1.00  0.00     0.055 C 
HETATM   23  C   UNL     1       4.786  35.855  67.132  1.00  0.00     0.236 C 
HETATM   24  N   UNL     1       5.404  34.490  67.316  1.00  0.00    -0.075 N 
HETATM   25  H   UNL     1       4.725  33.892  67.808  1.00  0.00     0.279 HD
HETATM   26  C   UNL     1       6.608  34.567  68.232  1.00  0.00     0.269 C 
HETATM   27  C   UNL     1       5.770  33.827  66.014  1.00  0.00     0.236 C 
HETATM   28  C   UNL     1       4.533  33.704  65.134  1.00  0.00     0.055 C 
ENDBRANCH   4  21
TORSDOF 4
ENDMDL
MODEL 4
REMARK VINA RESULT:      -7.6      1.886      4.977
REMARK  4 active torsions:
REMARK  status: ('A' for Active; 'I' for Inactive)
REMARK    1  A    between atoms: N_4  and  C_5 
REMARK    2  A    between atoms: C_13  and  C_14 
REMARK    3  A    between atoms: N_15  and  C_17 
REMARK    4  A    between atoms: C_17  and  C_18 
ROOT
HETATM    1  C   UNL     1      10.425  29.623  56.671  1.00  0.00     0.095 C 
HETATM    2  C   UNL     1       9.174  28.837  56.626  1.00  0.00     0.144 A 
HETATM    3  N   UNL     1       9.000  27.702  57.310  1.00  0.00    -0.156 NA
HETATM    4  N   UNL     1       7.716  27.394  57.051  1.00  0.00    -0.247 N 
HETATM    5  C   UNL     1       7.172  28.307  56.183  1.00  0.00     0.156 A 
HETATM    6  N   UNL     1       8.089  29.211  55.883  1.00  0.00    -0.215 NA
ENDROOT
BRANCH   5   7
HETATM    7  C   UNL     1       5.763  28.360  55.663  1.00  0.00     0.259 C 
HETATM    8  N   UNL     1       5.737  29.101  54.321  1.00  0.00    -0.056 N 
HETATM    9  H   UNL     1       6.283  29.953  54.524  1.00  0.00     0.281 HD
HETATM   10  C   UNL     1       4.395  29.576  53.835  1.00  0.00     0.236 C 
HETATM   11  C   UNL     1       3.680  30.363  54.916  1.00  0.00     0.028 C 
HETATM   12  C   UNL     1       3.537  29.524  56.173  1.00  0.00     0.004 C 
HETATM   13  C   UNL     1       4.909  29.126  56.693  1.00  0.00     0.041 C 
BRANCH   8  14
HETATM   14  C   UNL     1       6.546  28.437  53.208  1.00  0.00     0.274 C 
BRANCH  14  15
HETATM   15  C   UNL     1       6.303  26.969  52.939  1.00  0.00    -0.033 A 
HETATM   16  C   UNL     1       5.032  26.382  53.013  1.00  0.00     0.009 A 
HETATM   17  C   UNL     1       4.844  25.029  52.714  1.00  0.00     0.001 A 
HETATM   18  C   UNL     1       5.918  24.248  52.303  1.00  0.00     0.000 A 
HETATM   19  C   UNL     1       7.182  24.818  52.190  1.00  0.00     0.001 A 
HETATM   20  C   UNL     1       7.375  26.166  52.507  1.00  0.00     0.009 A 
ENDBRANCH  14  15
ENDBRANCH   8  14
ENDBRANCH   5   7
BRANCH   4  21
HETATM   21  C   UNL     1       7.142  26.205  57.672  1.00  0.00     0.115 C 
HETATM   22  C   UNL     1       8.196  25.286  58.314  1.00  0.00     0.055 C 
HETATM   23  C   UNL     1       8.983  24.438  57.316  1.00  0.00     0.236 C 
HETATM   24  N   UNL     1       8.042  23.701  56.394  1.00  0.00    -0.075 N 
HETATM   25  H   UNL     1       7.496  23.034  56.957  1.00  0.00     0.279 HD
HETATM   26  C   UNL     1       8.815  22.854  55.406  1.00  0.00     0.269 C 
HETATM   27  C   UNL     1       7.085  24.615  55.675  1.00  0.00     0.236 C 
HETATM   28  C   UNL     1       6.274  25.413  56.688  1.00  0.00     0.055 C 
ENDBRANCH   4  21
TORSDOF 4
ENDMDL
MODEL 5
REMARK VINA RESULT:      -7.6      1.653      5.425
REMARK  4 active torsions:
REMARK  status: ('A' for Active; 'I' for Inactive)
REMARK    1  A    between atoms: N_4  and  C_5 
REMARK    2  A    between atoms: C_13  and  C_14 
REMARK    3  A    between atoms: N_15  and  C_17 
REMARK    4  A    between atoms: C_17  and  C_18 
ROOT
HETATM    1  C   UNL     1      10.161  29.519  57.172  1.00  0.00     0.095 C 
HETATM    2  C   UNL     1       8.932  28.751  56.885  1.00  0.00     0.144 A 
HETATM    3  N   UNL     1       8.722  27.512  57.339  1.00  0.00    -0.156 NA
HETATM    4  N   UNL     1       7.468  27.253  56.925  1.00  0.00    -0.247 N 
HETATM    5  C   UNL     1       6.980  28.306  56.193  1.00  0.00     0.156 A 
HETATM    6  N   UNL     1       7.904  29.250  56.135  1.00  0.00    -0.215 NA
ENDROOT
BRANCH   5   7
HETATM    7  C   UNL     1       5.617  28.449  55.577  1.00  0.00     0.259 C 
HETATM    8  N   UNL     1       5.746  29.044  54.171  1.00  0.00    -0.056 N 
HETATM    9  H   UNL     1       6.370  29.853  54.325  1.00  0.00     0.281 HD
HETATM   10  C   UNL     1       4.493  29.601  53.553  1.00  0.00     0.236 C 
HETATM   11  C   UNL     1       3.809  30.566  54.502  1.00  0.00     0.028 C 
HETATM   12  C   UNL     1       3.506  29.882  55.822  1.00  0.00     0.004 C 
HETATM   13  C   UNL     1       4.795  29.401  56.469  1.00  0.00     0.041 C 
BRANCH   8  14
HETATM   14  C   UNL     1       6.539  28.189  53.185  1.00  0.00     0.274 C 
BRANCH  14  15
HETATM   15  C   UNL     1       5.820  27.678  51.957  1.00  0.00    -0.033 A 
HETATM   16  C   UNL     1       5.610  28.464  50.815  1.00  0.00     0.009 A 
HETATM   17  C   UNL     1       4.978  27.939  49.684  1.00  0.00     0.001 A 
HETATM   18  C   UNL     1       4.574  26.609  49.664  1.00  0.00     0.000 A 
HETATM   19  C   UNL     1       4.802  25.800  50.772  1.00  0.00     0.001 A 
HETATM   20  C   UNL     1       5.417  26.330  51.911  1.00  0.00     0.009 A 
ENDBRANCH  14  15
ENDBRANCH   8  14
ENDBRANCH   5   7
BRANCH   4  21
HETATM   21  C   UNL     1       6.866  25.970  57.275  1.00  0.00     0.115 C 
HETATM   22  C   UNL     1       7.900  24.900  57.664  1.00  0.00     0.055 C 
HETATM   23  C   UNL     1       8.638  24.279  56.479  1.00  0.00     0.236 C 
HETATM   24  N   UNL     1       7.655  23.799  55.439  1.00  0.00    -0.075 N 
HETATM   25  H   UNL     1       7.098  23.037  55.850  1.00  0.00     0.279 HD
HETATM   26  C   UNL     1       8.380  23.177  54.265  1.00  0.00     0.269 C 
HETATM   27  C   UNL     1       6.717  24.880  54.971  1.00  0.00     0.236 C 
HETATM   28  C   UNL     1       5.953  25.449  56.160  1.00  0.00     0.055 C 
ENDBRANCH   4  21
TORSDOF 4
ENDMDL
MODEL 6
REMARK VINA RESULT:      -7.5      2.079      4.518
REMARK  4 active torsions:
REMARK  status: ('A' for Active; 'I' for Inactive)
REMARK    1  A    between atoms: N_4  and  C_5 
REMARK    2  A    between atoms: C_13  and  C_14 
REMARK    3  A    between atoms: N_15  and  C_17 
REMARK    4  A    between atoms: C_17  and  C_18 
ROOT
HETATM    1  C   UNL     1       2.730  31.273  55.913  1.00  0.00     0.095 C 
HETATM    2  C   UNL     1       3.662  30.324  55.269  1.00  0.00     0.144 A 
HETATM    3  N   UNL     1       3.470  29.828  54.043  1.00  0.00    -0.156 NA
HETATM    4  N   UNL     1       4.585  29.105  53.838  1.00  0.00    -0.247 N 
HETATM    5  C   UNL     1       5.386  29.135  54.952  1.00  0.00     0.156 A 
HETATM    6  N   UNL     1       4.804  29.880  55.876  1.00  0.00    -0.215 NA
ENDROOT
BRANCH   5   7
HETATM    7  C   UNL     1       6.734  28.497  55.138  1.00  0.00     0.259 C 
HETATM    8  N   UNL     1       6.572  27.152  55.856  1.00  0.00    -0.056 N 
HETATM    9  H   UNL     1       5.961  27.394  56.653  1.00  0.00     0.281 HD
HETATM   10  C   UNL     1       7.813  26.550  56.455  1.00  0.00     0.236 C 
HETATM   11  C   UNL     1       8.533  27.560  57.326  1.00  0.00     0.028 C 
HETATM   12  C   UNL     1       8.866  28.807  56.526  1.00  0.00     0.004 C 
HETATM   13  C   UNL     1       7.590  29.445  56.001  1.00  0.00     0.041 C 
BRANCH   8  14
HETATM   14  C   UNL     1       5.743  26.117  55.097  1.00  0.00     0.274 C 
BRANCH  14  15
HETATM   15  C   UNL     1       6.477  25.142  54.205  1.00  0.00    -0.033 A 
HETATM   16  C   UNL     1       6.985  25.495  52.946  1.00  0.00     0.009 A 
HETATM   17  C   UNL     1       7.696  24.574  52.171  1.00  0.00     0.001 A 
HETATM   18  C   UNL     1       7.939  23.294  52.655  1.00  0.00     0.000 A 
HETATM   19  C   UNL     1       7.475  22.932  53.915  1.00  0.00     0.001 A 
HETATM   20  C   UNL     1       6.748  23.846  54.683  1.00  0.00     0.009 A 
ENDBRANCH  14  15
ENDBRANCH   8  14
ENDBRANCH   5   7
BRANCH   4  21
HETATM   21  C   UNL     1       4.753  28.425  52.557  1.00  0.00     0.115 C 
HETATM   22  C   UNL     1       5.782  29.108  51.640  1.00  0.00     0.055 C 
HETATM   23  C   UNL     1       5.271  30.371  50.951  1.00  0.00     0.236 C 
HETATM   24  N   UNL     1       3.955  30.100  50.262  1.00  0.00    -0.075 N 
HETATM   25  H   UNL     1       4.121  29.419  49.508  1.00  0.00     0.279 HD
HETATM   26  C   UNL     1       3.445  31.347  49.572  1.00  0.00     0.269 C 
HETATM   27  C   UNL     1       2.908  29.541  51.189  1.00  0.00     0.236 C 
HETATM   28  C   UNL     1       3.418  28.254  51.825  1.00  0.00     0.055 C 
ENDBRANCH   4  21
TORSDOF 4
ENDMDL
MODEL 7
REMARK VINA RESULT:      -7.3      2.880      7.143
REMARK  4 active torsions:
REMARK  status: ('A' for Active; 'I' for Inactive)
REMARK    1  A    between atoms: N_4  and  C_5 
REMARK    2  A    between atoms: C_13  and  C_14 
REMARK    3  A    between atoms: N_15  and  C_17 
REMARK    4  A    between atoms: C_17  and  C_18 
ROOT
HETATM    1  C   UNL     1       7.961  25.622  58.074  1.00  0.00     0.095 C 
HETATM    2  C   UNL     1       7.476  26.735  57.231  1.00  0.00     0.144 A 
HETATM    3  N   UNL     1       7.629  26.767  55.904  1.00  0.00    -0.156 NA
HETATM    4  N   UNL     1       6.968  27.886  55.556  1.00  0.00    -0.247 N 
HETATM    5  C   UNL     1       6.488  28.523  56.673  1.00  0.00     0.156 A 
HETATM    6  N   UNL     1       6.824  27.822  57.742  1.00  0.00    -0.215 NA
ENDROOT
BRANCH   5   7
HETATM    7  C   UNL     1       5.665  29.779  56.737  1.00  0.00     0.259 C 
HETATM    8  N   UNL     1       5.949  30.514  58.052  1.00  0.00    -0.056 N 
HETATM    9  H   UNL     1       5.861  29.761  58.754  1.00  0.00     0.281 HD
HETATM   10  C   UNL     1       4.964  31.575  58.461  1.00  0.00     0.236 C 
HETATM   11  C   UNL     1       3.547  31.037  58.421  1.00  0.00     0.028 C 
HETATM   12  C   UNL     1       3.224  30.501  57.038  1.00  0.00     0.004 C 
HETATM   13  C   UNL     1       4.179  29.373  56.680  1.00  0.00     0.041 C 
BRANCH   8  14
HETATM   14  C   UNL     1       7.393  30.976  58.229  1.00  0.00     0.274 C 
BRANCH  14  15
HETATM   15  C   UNL     1       7.865  31.296  59.630  1.00  0.00    -0.033 A 
HETATM   16  C   UNL     1       7.376  32.384  60.367  1.00  0.00     0.009 A 
HETATM   17  C   UNL     1       7.808  32.620  61.676  1.00  0.00     0.001 A 
HETATM   18  C   UNL     1       8.711  31.754  62.281  1.00  0.00     0.000 A 
HETATM   19  C   UNL     1       9.185  30.649  61.580  1.00  0.00     0.001 A 
HETATM   20  C   UNL     1       8.768  30.423  60.265  1.00  0.00     0.009 A 
ENDBRANCH  14  15
ENDBRANCH   8  14
ENDBRANCH   5   7
BRANCH   4  21
HETATM   21  C   UNL     1       6.886  28.241  54.143  1.00  0.00     0.115 C 
HETATM   22  C   UNL     1       5.440  28.374  53.634  1.00  0.00     0.055 C 
HETATM   23  C   UNL     1       4.736  27.042  53.385  1.00  0.00     0.236 C 
HETATM   24  N   UNL     1       5.588  26.150  52.514  1.00  0.00    -0.075 N 
HETATM   25  H   UNL     1       5.679  26.595  51.589  1.00  0.00     0.279 HD
HETATM   26  C   UNL     1       4.893  24.830  52.258  1.00  0.00     0.269 C 
HETATM   27  C   UNL     1       6.968  25.924  53.073  1.00  0.00     0.236 C 
HETATM   28  C   UNL     1       7.672  27.261  53.265  1.00  0.00     0.055 C 
ENDBRANCH   4  21
TORSDOF 4
ENDMDL
MODEL 8
REMARK VINA RESULT:      -7.3      4.318      9.219
REMARK  4 active torsions:
REMARK  status: ('A' for Active; 'I' for Inactive)
REMARK    1  A    between atoms: N_4  and  C_5 
REMARK    2  A    between atoms: C_13  and  C_14 
REMARK    3  A    between atoms: N_15  and  C_17 
REMARK    4  A    between atoms: C_17  and  C_18 
ROOT
HETATM    1  C   UNL     1       4.564  34.072  56.096  1.00  0.00     0.095 C 
HETATM    2  C   UNL     1       4.985  32.871  56.848  1.00  0.00     0.144 A 
HETATM    3  N   UNL     1       4.523  31.645  56.585  1.00  0.00    -0.156 NA
HETATM    4  N   UNL     1       5.232  30.873  57.428  1.00  0.00    -0.247 N 
HETATM    5  C   UNL     1       6.052  31.649  58.209  1.00  0.00     0.156 A 
HETATM    6  N   UNL     1       5.888  32.916  57.873  1.00  0.00    -0.215 NA
ENDROOT
BRANCH   5   7
HETATM    7  C   UNL     1       7.035  31.193  59.251  1.00  0.00     0.259 C 
HETATM    8  N   UNL     1       7.057  32.196  60.411  1.00  0.00    -0.056 N 
HETATM    9  H   UNL     1       7.150  33.101  59.923  1.00  0.00     0.281 HD
HETATM   10  C   UNL     1       8.226  32.114  61.354  1.00  0.00     0.236 C 
HETATM   11  C   UNL     1       9.535  32.121  60.590  1.00  0.00     0.028 C 
HETATM   12  C   UNL     1       9.568  30.984  59.586  1.00  0.00     0.004 C 
HETATM   13  C   UNL     1       8.427  31.133  58.591  1.00  0.00     0.041 C 
BRANCH   8  14
HETATM   14  C   UNL     1       5.732  32.344  61.154  1.00  0.00     0.274 C 
BRANCH  14  15
HETATM   15  C   UNL     1       5.702  33.238  62.373  1.00  0.00    -0.033 A 
HETATM   16  C   UNL     1       5.880  34.627  62.303  1.00  0.00     0.009 A 
HETATM   17  C   UNL     1       5.802  35.423  63.450  1.00  0.00     0.001 A 
HETATM   18  C   UNL     1       5.514  34.847  64.682  1.00  0.00     0.000 A 
HETATM   19  C   UNL     1       5.300  33.475  64.770  1.00  0.00     0.001 A 
HETATM   20  C   UNL     1       5.396  32.676  63.627  1.00  0.00     0.009 A 
ENDBRANCH  14  15
ENDBRANCH   8  14
ENDBRANCH   5   7
BRANCH   4  21
HETATM   21  C   UNL     1       5.021  29.429  57.403  1.00  0.00     0.115 C 
HETATM   22  C   UNL     1       6.332  28.625  57.375  1.00  0.00     0.055 C 
HETATM   23  C   UNL     1       7.021  28.592  56.013  1.00  0.00     0.236 C 
HETATM   24  N   UNL     1       6.047  28.168  54.940  1.00  0.00    -0.075 N 
HETATM   25  H   UNL     1       5.760  27.198  55.130  1.00  0.00     0.279 HD
HETATM   26  C   UNL     1       6.726  28.127  53.587  1.00  0.00     0.269 C 
HETATM   27  C   UNL     1       4.814  29.031  54.889  1.00  0.00     0.236 C 
HETATM   28  C   UNL     1       4.113  29.008  56.241  1.00  0.00     0.055 C 
ENDBRANCH   4  21
TORSDOF 4
ENDMDL
MODEL 9
REMARK VINA RESULT:      -7.2      8.228     12.973
REMARK  4 active torsions:
REMARK  status: ('A' for Active; 'I' for Inactive)
REMARK    1  A    between atoms: N_4  and  C_5 
REMARK    2  A    between atoms: C_13  and  C_14 
REMARK    3  A    between atoms: N_15  and  C_17 
REMARK    4  A    between atoms: C_17  and  C_18 
ROOT
HETATM    1  C   UNL     1       8.397  32.284  62.293  1.00  0.00     0.095 C 
HETATM    2  C   UNL     1       7.030  32.809  62.494  1.00  0.00     0.144 A 
HETATM    3  N   UNL     1       6.038  32.619  61.618  1.00  0.00    -0.156 NA
HETATM    4  N   UNL     1       4.982  33.173  62.241  1.00  0.00    -0.247 N 
HETATM    5  C   UNL     1       5.370  33.727  63.436  1.00  0.00     0.156 A 
HETATM    6  N   UNL     1       6.666  33.529  63.598  1.00  0.00    -0.215 NA
ENDROOT
BRANCH   5   7
HETATM    7  C   UNL     1       4.507  34.409  64.459  1.00  0.00     0.259 C 
HETATM    8  N   UNL     1       4.907  35.885  64.569  1.00  0.00    -0.056 N 
HETATM    9  H   UNL     1       5.934  35.833  64.659  1.00  0.00     0.281 HD
HETATM   10  C   UNL     1       4.423  36.630  65.782  1.00  0.00     0.236 C 
HETATM   11  C   UNL     1       4.760  35.869  67.050  1.00  0.00     0.028 C 
HETATM   12  C   UNL     1       4.170  34.472  67.000  1.00  0.00     0.004 C 
HETATM   13  C   UNL     1       4.737  33.709  65.813  1.00  0.00     0.041 C 
BRANCH   8  14
HETATM   14  C   UNL     1       4.720  36.695  63.288  1.00  0.00     0.274 C 
BRANCH  14  15
HETATM   15  C   UNL     1       5.660  37.854  63.042  1.00  0.00    -0.033 A 
HETATM   16  C   UNL     1       6.053  38.743  64.053  1.00  0.00     0.009 A 
HETATM   17  C   UNL     1       6.959  39.776  63.792  1.00  0.00     0.001 A 
HETATM   18  C   UNL     1       7.512  39.917  62.525  1.00  0.00     0.000 A 
HETATM   19  C   UNL     1       7.163  39.026  61.516  1.00  0.00     0.001 A 
HETATM   20  C   UNL     1       6.244  38.004  61.770  1.00  0.00     0.009 A 
ENDBRANCH  14  15
ENDBRANCH   8  14
ENDBRANCH   5   7
BRANCH   4  21
HETATM   21  C   UNL     1       3.678  33.124  61.588  1.00  0.00     0.115 C 
HETATM   22  C   UNL     1       3.616  32.108  60.434  1.00  0.00     0.055 C 
HETATM   23  C   UNL     1       4.291  32.576  59.146  1.00  0.00     0.236 C 
HETATM   24  N   UNL     1       3.788  33.945  58.755  1.00  0.00    -0.075 N 
HETATM   25  H   UNL     1       2.786  33.868  58.532  1.00  0.00     0.279 HD
HETATM   26  C   UNL     1       4.450  34.413  57.476  1.00  0.00     0.269 C 
HETATM   27  C   UNL     1       3.958  34.970  59.846  1.00  0.00     0.236 C 
HETATM   28  C   UNL     1       3.233  34.508  61.103  1.00  0.00     0.055 C 
ENDBRANCH   4  21
TORSDOF 4
ENDMDL
MODEL 10
REMARK VINA RESULT:      -7.2      2.119      6.317
REMARK  4 active torsions:
REMARK  status: ('A' for Active; 'I' for Inactive)
REMARK    1  A    between atoms: N_4  and  C_5 
REMARK    2  A    between atoms: C_13  and  C_14 
REMARK    3  A    between atoms: N_15  and  C_17 
REMARK    4  A    between atoms: C_17  and  C_18 
ROOT
HETATM    1  C   UNL     1       4.568  24.953  57.277  1.00  0.00     0.095 C 
HETATM    2  C   UNL     1       5.309  26.040  56.603  1.00  0.00     0.144 A 
HETATM    3  N   UNL     1       6.115  25.836  55.557  1.00  0.00    -0.156 NA
HETATM    4  N   UNL     1       6.488  27.084  55.223  1.00  0.00    -0.247 N 
HETATM    5  C   UNL     1       5.951  27.994  56.099  1.00  0.00     0.156 A 
HETATM    6  N   UNL     1       5.225  27.347  56.994  1.00  0.00    -0.215 NA
ENDROOT
BRANCH   5   7
HETATM    7  C   UNL     1       6.082  29.491  56.071  1.00  0.00     0.259 C 
HETATM    8  N   UNL     1       6.054  30.037  57.503  1.00  0.00    -0.056 N 
HETATM    9  H   UNL     1       5.231  29.563  57.908  1.00  0.00     0.281 HD
HETATM   10  C   UNL     1       5.800  31.511  57.660  1.00  0.00     0.236 C 
HETATM   11  C   UNL     1       4.567  31.930  56.884  1.00  0.00     0.028 C 
HETATM   12  C   UNL     1       4.714  31.558  55.419  1.00  0.00     0.004 C 
HETATM   13  C   UNL     1       4.885  30.054  55.278  1.00  0.00     0.041 C 
BRANCH   8  14
HETATM   14  C   UNL     1       7.197  29.555  58.394  1.00  0.00     0.274 C 
BRANCH  14  15
HETATM   15  C   UNL     1       8.610  29.890  57.972  1.00  0.00    -0.033 A 
HETATM   16  C   UNL     1       9.285  31.036  58.417  1.00  0.00     0.009 A 
HETATM   17  C   UNL     1      10.608  31.286  58.037  1.00  0.00     0.001 A 
HETATM   18  C   UNL     1      11.287  30.379  57.233  1.00  0.00     0.000 A 
HETATM   19  C   UNL     1      10.648  29.219  56.808  1.00  0.00     0.001 A 
HETATM   20  C   UNL     1       9.320  28.977  57.171  1.00  0.00     0.009 A 
ENDBRANCH  14  15
ENDBRANCH   8  14
ENDBRANCH   5   7
BRANCH   4  21
HETATM   21  C   UNL     1       7.366  27.268  54.071  1.00  0.00     0.115 C 
HETATM   22  C   UNL     1       6.820  28.279  53.048  1.00  0.00     0.055 C 
HETATM   23  C   UNL     1       5.700  27.737  52.162  1.00  0.00     0.236 C 
HETATM   24  N   UNL     1       6.113  26.427  51.535  1.00  0.00    -0.075 N 
HETATM   25  H   UNL     1       6.905  26.609  50.902  1.00  0.00     0.279 HD
HETATM   26  C   UNL     1       5.010  25.886  50.651  1.00  0.00     0.269 C 
HETATM   27  C   UNL     1       6.536  25.395  52.546  1.00  0.00     0.236 C 
HETATM   28  C   UNL     1       7.688  25.937  53.384  1.00  0.00     0.055 C 
ENDBRANCH   4  21
TORSDOF 4
ENDMDL
