MODEL 1
REMARK VINA RESULT:     -11.1      0.000      0.000
REMARK  8 active torsions:
REMARK  status: ('A' for Active; 'I' for Inactive)
REMARK    1  A    between atoms: C_4  and  N_5 
REMARK       I    between atoms: N_5  and  C_6 
REMARK    2  A    between atoms: C_6  and  C_7 
REMARK    3  A    between atoms: C_10  and  N_11 
REMARK       I    between atoms: N_11  and  C_12 
REMARK       I    between atoms: C_12  and  N_21 
REMARK    4  A    between atoms: N_21  and  CA_22 
REMARK    5  A    between atoms: CA_22  and  C_23 
REMARK    6  A    between atoms: CA_22  and  CB_25 
REMARK    7  A    between atoms: C_23  and  O_24 
REMARK    8  A    between atoms: CB_25  and  CG_26 
ROOT
HETATM    1  N   UNK A   0       6.001  28.059  56.067  1.00  0.00    -0.309 N 
HETATM    2  C   UNK A   0       6.282  27.743  54.757  1.00  0.00     0.321 C 
HETATM    3  O   UNK A   0       6.812  28.465  53.923  1.00  0.00    -0.247 OA
HETATM    4  H   UNK A   0       5.296  27.483  56.502  1.00  0.00     0.170 HD
ATOM      5  N   TRP A   1       5.889  26.448  54.492  1.00  0.00    -0.336 N 
ATOM      6  H   TRP A   1       5.952  25.825  55.288  1.00  0.00     0.164 HD
ENDROOT
BRANCH   1   7
HETATM    7  C   UNK A   0       6.632  29.024  56.869  1.00  0.00     0.036 A 
HETATM    8  C   UNK A   0       7.816  28.787  57.565  1.00  0.00     0.030 A 
HETATM    9  C   UNK A   0       8.278  29.701  58.522  1.00  0.00     0.019 A 
HETATM   10  C   UNK A   0       7.571  30.884  58.772  1.00  0.00     0.032 A 
HETATM   11  C   UNK A   0       6.426  31.155  58.009  1.00  0.00     0.019 A 
HETATM   12  C   UNK A   0       5.959  30.232  57.067  1.00  0.00     0.030 A 
BRANCH  10  13
HETATM   13  C   UNK A   0       7.892  31.816  59.903  1.00  0.00     0.256 C 
HETATM   14  N   UNK A   0       7.173  31.644  61.073  1.00  0.00    -0.323 N 
HETATM   15  H   UNK A   0       6.678  30.774  61.199  1.00  0.00     0.169 HD
HETATM   16  O   UNK A   0       8.746  32.678  59.716  1.00  0.00    -0.267 OA
BRANCH  14  17
HETATM   17  C   UNK A   0       7.043  32.571  62.130  1.00  0.00     0.035 A 
HETATM   18  C   UNK A   0       6.197  33.682  62.089  1.00  0.00     0.029 A 
HETATM   19  C   UNK A   0       6.070  34.520  63.202  1.00  0.00     0.002 A 
HETATM   20  C   UNK A   0       6.787  34.255  64.364  1.00  0.00     0.000 A 
HETATM   21  C   UNK A   0       7.637  33.152  64.415  1.00  0.00     0.002 A 
HETATM   22  C   UNK A   0       7.762  32.314  63.304  1.00  0.00     0.029 A 
ENDBRANCH  14  17
ENDBRANCH  10  13
ENDBRANCH   1   7
BRANCH   5  23
ATOM     23  CA  TRP A   1       6.257  25.780  53.245  1.00  0.00     0.114 C 
BRANCH  23  24
ATOM     24  C   TRP A   1       5.159  24.767  52.865  1.00  0.00     0.189 C 
BRANCH  24  25
ATOM     25  O   TRP A   1       3.871  25.190  53.313  1.00  0.00    -0.399 OA
ATOM     26  H   TRP A   1       3.523  25.795  52.634  1.00  0.00     0.209 HD
ENDBRANCH  24  25
ENDBRANCH  23  24
BRANCH  23  27
ATOM     27  CB  TRP A   1       7.677  25.158  53.260  1.00  0.00     0.068 C 
BRANCH  27  28
ATOM     28  CG  TRP A   1       7.976  24.164  54.348  1.00  0.00    -0.028 A 
ATOM     29  CD2 TRP A   1       8.146  22.747  54.183  1.00  0.00    -0.002 A 
ATOM     30  CE2 TRP A   1       8.402  22.202  55.441  1.00  0.00     0.042 A 
ATOM     31  CE3 TRP A   1       8.103  21.874  53.075  1.00  0.00     0.014 A 
ATOM     32  CZ2 TRP A   1       8.632  20.836  55.645  1.00  0.00     0.030 A 
ATOM     33  NE1 TRP A   1       8.369  23.239  56.342  1.00  0.00    -0.365 N 
ATOM     34  CH2 TRP A   1       8.591  19.995  54.530  1.00  0.00     0.002 A 
ATOM     35  CZ3 TRP A   1       8.324  20.504  53.262  1.00  0.00     0.001 A 
ATOM     36  HE1 TRP A   1       8.514  23.137  57.336  1.00  0.00     0.165 HD
ATOM     37  CD1 TRP A   1       8.094  24.416  55.701  1.00  0.00     0.096 A 
ENDBRANCH  27  28
ENDBRANCH  23  27
ENDBRANCH   5  23
TORSDOF 8
ENDMDL
MODEL 2
REMARK VINA RESULT:     -10.9      0.935      1.805
REMARK  8 active torsions:
REMARK  status: ('A' for Active; 'I' for Inactive)
REMARK    1  A    between atoms: C_4  and  N_5 
REMARK       I    between atoms: N_5  and  C_6 
REMARK    2  A    between atoms: C_6  and  C_7 
REMARK    3  A    between atoms: C_10  and  N_11 
REMARK       I    between atoms: N_11  and  C_12 
REMARK       I    between atoms: C_12  and  N_21 
REMARK    4  A    between atoms: N_21  and  CA_22 
REMARK    5  A    between atoms: CA_22  and  C_23 
REMARK    6  A    between atoms: CA_22  and  CB_25 
REMARK    7  A    between atoms: C_23  and  O_24 
REMARK    8  A    between atoms: CB_25  and  CG_26 
ROOT
HETATM    1  N   UNK A   0       6.292  27.612  55.862  1.00  0.00    -0.309 N 
HETATM    2  C   UNK A   0       6.402  27.444  54.500  1.00  0.00     0.321 C 
HETATM    3  O   UNK A   0       6.635  28.310  53.669  1.00  0.00    -0.247 OA
HETATM    4  H   UNK A   0       5.794  26.877  56.343  1.00  0.00     0.170 HD
ATOM      5  N   TRP A   1       6.224  26.116  54.175  1.00  0.00    -0.336 N 
ATOM      6  H   TRP A   1       6.539  25.469  54.889  1.00  0.00     0.164 HD
ENDROOT
BRANCH   1   7
HETATM    7  C   UNK A   0       6.854  28.632  56.647  1.00  0.00     0.036 A 
HETATM    8  C   UNK A   0       8.123  28.549  57.218  1.00  0.00     0.030 A 
HETATM    9  C   UNK A   0       8.541  29.489  58.170  1.00  0.00     0.019 A 
HETATM   10  C   UNK A   0       7.699  30.546  58.540  1.00  0.00     0.032 A 
HETATM   11  C   UNK A   0       6.459  30.671  57.900  1.00  0.00     0.019 A 
HETATM   12  C   UNK A   0       6.038  29.721  56.963  1.00  0.00     0.030 A 
BRANCH  10  13
HETATM   13  C   UNK A   0       7.994  31.477  59.679  1.00  0.00     0.256 C 
HETATM   14  N   UNK A   0       7.348  31.218  60.875  1.00  0.00    -0.323 N 
HETATM   15  H   UNK A   0       6.935  30.307  61.001  1.00  0.00     0.169 HD
HETATM   16  O   UNK A   0       8.762  32.413  59.476  1.00  0.00    -0.267 OA
BRANCH  14  17
HETATM   17  C   UNK A   0       7.190  32.108  61.960  1.00  0.00     0.035 A 
HETATM   18  C   UNK A   0       8.006  32.105  63.094  1.00  0.00     0.029 A 
HETATM   19  C   UNK A   0       7.830  33.061  64.099  1.00  0.00     0.002 A 
HETATM   20  C   UNK A   0       6.837  34.029  63.980  1.00  0.00     0.000 A 
HETATM   21  C   UNK A   0       6.014  34.039  62.856  1.00  0.00     0.002 A 
HETATM   22  C   UNK A   0       6.191  33.084  61.851  1.00  0.00     0.029 A 
ENDBRANCH  14  17
ENDBRANCH  10  13
ENDBRANCH   1   7
BRANCH   5  23
ATOM     23  CA  TRP A   1       6.496  25.617  52.828  1.00  0.00     0.114 C 
BRANCH  23  24
ATOM     24  C   TRP A   1       5.264  24.850  52.309  1.00  0.00     0.189 C 
BRANCH  24  25
ATOM     25  O   TRP A   1       4.155  24.964  53.201  1.00  0.00    -0.399 OA
ATOM     26  H   TRP A   1       4.153  25.881  53.529  1.00  0.00     0.209 HD
ENDBRANCH  24  25
ENDBRANCH  23  24
BRANCH  23  27
ATOM     27  CB  TRP A   1       7.811  24.803  52.712  1.00  0.00     0.068 C 
BRANCH  27  28
ATOM     28  CG  TRP A   1       7.834  23.447  53.361  1.00  0.00    -0.028 A 
ATOM     29  CD2 TRP A   1       8.043  23.174  54.755  1.00  0.00    -0.002 A 
ATOM     30  CE2 TRP A   1       7.995  21.790  54.927  1.00  0.00     0.042 A 
ATOM     31  CE3 TRP A   1       8.273  23.978  55.891  1.00  0.00     0.014 A 
ATOM     32  CZ2 TRP A   1       8.148  21.174  56.176  1.00  0.00     0.030 A 
ATOM     33  NE1 TRP A   1       7.787  21.239  53.686  1.00  0.00    -0.365 N 
ATOM     34  CH2 TRP A   1       8.368  21.995  57.285  1.00  0.00     0.002 A 
ATOM     35  CZ3 TRP A   1       8.435  23.378  57.146  1.00  0.00     0.001 A 
ATOM     36  HE1 TRP A   1       7.715  20.248  53.507  1.00  0.00     0.165 HD
ATOM     37  CD1 TRP A   1       7.709  22.221  52.737  1.00  0.00     0.096 A 
ENDBRANCH  27  28
ENDBRANCH  23  27
ENDBRANCH   5  23
TORSDOF 8
ENDMDL
MODEL 3
REMARK VINA RESULT:     -10.0      1.876      2.560
REMARK  8 active torsions:
REMARK  status: ('A' for Active; 'I' for Inactive)
REMARK    1  A    between atoms: C_4  and  N_5 
REMARK       I    between atoms: N_5  and  C_6 
REMARK    2  A    between atoms: C_6  and  C_7 
REMARK    3  A    between atoms: C_10  and  N_11 
REMARK       I    between atoms: N_11  and  C_12 
REMARK       I    between atoms: C_12  and  N_21 
REMARK    4  A    between atoms: N_21  and  CA_22 
REMARK    5  A    between atoms: CA_22  and  C_23 
REMARK    6  A    between atoms: CA_22  and  CB_25 
REMARK    7  A    between atoms: C_23  and  O_24 
REMARK    8  A    between atoms: CB_25  and  CG_26 
ROOT
HETATM    1  N   UNK A   0       4.060  28.736  54.045  1.00  0.00    -0.309 N 
HETATM    2  C   UNK A   0       4.986  28.136  53.221  1.00  0.00     0.321 C 
HETATM    3  O   UNK A   0       6.142  28.490  53.032  1.00  0.00    -0.247 OA
HETATM    4  H   UNK A   0       3.099  28.512  53.839  1.00  0.00     0.170 HD
ATOM      5  N   TRP A   1       4.429  27.028  52.619  1.00  0.00    -0.336 N 
ATOM      6  H   TRP A   1       3.731  26.558  53.183  1.00  0.00     0.164 HD
ENDROOT
BRANCH   1   7
HETATM    7  C   UNK A   0       4.310  29.544  55.166  1.00  0.00     0.036 A 
HETATM    8  C   UNK A   0       4.039  30.912  55.202  1.00  0.00     0.030 A 
HETATM    9  C   UNK A   0       4.514  31.707  56.254  1.00  0.00     0.019 A 
HETATM   10  C   UNK A   0       5.243  31.133  57.303  1.00  0.00     0.032 A 
HETATM   11  C   UNK A   0       5.440  29.746  57.304  1.00  0.00     0.019 A 
HETATM   12  C   UNK A   0       4.980  28.958  56.243  1.00  0.00     0.030 A 
BRANCH  10  13
HETATM   13  C   UNK A   0       5.942  31.937  58.360  1.00  0.00     0.256 C 
HETATM   14  N   UNK A   0       6.653  31.227  59.312  1.00  0.00    -0.323 N 
HETATM   15  H   UNK A   0       6.878  30.264  59.112  1.00  0.00     0.169 HD
HETATM   16  O   UNK A   0       5.825  33.158  58.328  1.00  0.00    -0.267 OA
BRANCH  14  17
HETATM   17  C   UNK A   0       7.098  31.703  60.565  1.00  0.00     0.035 A 
HETATM   18  C   UNK A   0       6.258  32.276  61.523  1.00  0.00     0.029 A 
HETATM   19  C   UNK A   0       6.760  32.664  62.768  1.00  0.00     0.002 A 
HETATM   20  C   UNK A   0       8.107  32.482  63.068  1.00  0.00     0.000 A 
HETATM   21  C   UNK A   0       8.955  31.916  62.120  1.00  0.00     0.002 A 
HETATM   22  C   UNK A   0       8.452  31.527  60.875  1.00  0.00     0.029 A 
ENDBRANCH  14  17
ENDBRANCH  10  13
ENDBRANCH   1   7
BRANCH   5  23
ATOM     23  CA  TRP A   1       5.244  26.081  51.860  1.00  0.00     0.114 C 
BRANCH  23  24
ATOM     24  C   TRP A   1       4.819  26.114  50.378  1.00  0.00     0.189 C 
BRANCH  24  25
ATOM     25  O   TRP A   1       5.610  27.031  49.621  1.00  0.00    -0.399 OA
ATOM     26  H   TRP A   1       6.530  26.719  49.678  1.00  0.00     0.209 HD
ENDBRANCH  24  25
ENDBRANCH  23  24
BRANCH  23  27
ATOM     27  CB  TRP A   1       5.265  24.650  52.454  1.00  0.00     0.068 C 
BRANCH  27  28
ATOM     28  CG  TRP A   1       6.093  24.435  53.691  1.00  0.00    -0.028 A 
ATOM     29  CD2 TRP A   1       7.173  23.500  53.840  1.00  0.00    -0.002 A 
ATOM     30  CE2 TRP A   1       7.660  23.621  55.142  1.00  0.00     0.042 A 
ATOM     31  CE3 TRP A   1       7.782  22.557  52.986  1.00  0.00     0.014 A 
ATOM     32  CZ2 TRP A   1       8.732  22.860  55.626  1.00  0.00     0.030 A 
ATOM     33  NE1 TRP A   1       6.896  24.575  55.769  1.00  0.00    -0.365 N 
ATOM     34  CH2 TRP A   1       9.321  21.938  54.756  1.00  0.00     0.002 A 
ATOM     35  CZ3 TRP A   1       8.850  21.782  53.456  1.00  0.00     0.001 A 
ATOM     36  HE1 TRP A   1       7.020  24.866  56.728  1.00  0.00     0.165 HD
ATOM     37  CD1 TRP A   1       5.940  25.055  54.916  1.00  0.00     0.096 A 
ENDBRANCH  27  28
ENDBRANCH  23  27
ENDBRANCH   5  23
TORSDOF 8
ENDMDL
MODEL 4
REMARK VINA RESULT:     -10.0      1.322      1.872
REMARK  8 active torsions:
REMARK  status: ('A' for Active; 'I' for Inactive)
REMARK    1  A    between atoms: C_4  and  N_5 
REMARK       I    between atoms: N_5  and  C_6 
REMARK    2  A    between atoms: C_6  and  C_7 
REMARK    3  A    between atoms: C_10  and  N_11 
REMARK       I    between atoms: N_11  and  C_12 
REMARK       I    between atoms: C_12  and  N_21 
REMARK    4  A    between atoms: N_21  and  CA_22 
REMARK    5  A    between atoms: CA_22  and  C_23 
REMARK    6  A    between atoms: CA_22  and  CB_25 
REMARK    7  A    between atoms: C_23  and  O_24 
REMARK    8  A    between atoms: CB_25  and  CG_26 
ROOT
HETATM    1  N   UNK A   0       8.036  28.665  55.543  1.00  0.00    -0.309 N 
HETATM    2  C   UNK A   0       7.660  27.373  55.254  1.00  0.00     0.321 C 
HETATM    3  O   UNK A   0       7.596  26.432  56.034  1.00  0.00    -0.247 OA
HETATM    4  H   UNK A   0       8.333  29.210  54.748  1.00  0.00     0.170 HD
ATOM      5  N   TRP A   1       7.333  27.267  53.918  1.00  0.00    -0.336 N 
ATOM      6  H   TRP A   1       6.941  28.112  53.520  1.00  0.00     0.164 HD
ENDROOT
BRANCH   1   7
HETATM    7  C   UNK A   0       7.977  29.315  56.786  1.00  0.00     0.036 A 
HETATM    8  C   UNK A   0       6.806  29.856  57.315  1.00  0.00     0.030 A 
HETATM    9  C   UNK A   0       6.847  30.685  58.444  1.00  0.00     0.019 A 
HETATM   10  C   UNK A   0       8.065  30.959  59.078  1.00  0.00     0.032 A 
HETATM   11  C   UNK A   0       9.228  30.345  58.592  1.00  0.00     0.019 A 
HETATM   12  C   UNK A   0       9.185  29.532  57.455  1.00  0.00     0.030 A 
BRANCH  10  13
HETATM   13  C   UNK A   0       8.219  31.979  60.168  1.00  0.00     0.256 C 
HETATM   14  N   UNK A   0       7.474  31.777  61.317  1.00  0.00    -0.323 N 
HETATM   15  H   UNK A   0       7.083  30.860  61.471  1.00  0.00     0.169 HD
HETATM   16  O   UNK A   0       8.970  32.929  59.967  1.00  0.00    -0.267 OA
BRANCH  14  17
HETATM   17  C   UNK A   0       7.184  32.733  62.315  1.00  0.00     0.035 A 
HETATM   18  C   UNK A   0       6.258  33.767  62.156  1.00  0.00     0.029 A 
HETATM   19  C   UNK A   0       5.974  34.635  63.214  1.00  0.00     0.002 A 
HETATM   20  C   UNK A   0       6.613  34.479  64.440  1.00  0.00     0.000 A 
HETATM   21  C   UNK A   0       7.541  33.454  64.610  1.00  0.00     0.002 A 
HETATM   22  C   UNK A   0       7.823  32.585  63.552  1.00  0.00     0.029 A 
ENDBRANCH  14  17
ENDBRANCH  10  13
ENDBRANCH   1   7
BRANCH   5  23
ATOM     23  CA  TRP A   1       6.698  26.065  53.381  1.00  0.00     0.114 C 
BRANCH  23  24
ATOM     24  C   TRP A   1       5.353  26.444  52.732  1.00  0.00     0.189 C 
BRANCH  24  25
ATOM     25  O   TRP A   1       4.251  25.829  53.401  1.00  0.00    -0.399 OA
ATOM     26  H   TRP A   1       3.538  25.741  52.743  1.00  0.00     0.209 HD
ENDBRANCH  24  25
ENDBRANCH  23  24
BRANCH  23  27
ATOM     27  CB  TRP A   1       6.574  24.907  54.405  1.00  0.00     0.068 C 
BRANCH  27  28
ATOM     28  CG  TRP A   1       7.187  23.589  54.022  1.00  0.00    -0.028 A 
ATOM     29  CD2 TRP A   1       7.707  22.598  54.924  1.00  0.00    -0.002 A 
ATOM     30  CE2 TRP A   1       8.185  21.537  54.156  1.00  0.00     0.042 A 
ATOM     31  CE3 TRP A   1       7.818  22.508  56.327  1.00  0.00     0.014 A 
ATOM     32  CZ2 TRP A   1       8.752  20.386  54.719  1.00  0.00     0.030 A 
ATOM     33  NE1 TRP A   1       7.985  21.872  52.838  1.00  0.00    -0.365 N 
ATOM     34  CH2 TRP A   1       8.843  20.320  56.112  1.00  0.00     0.002 A 
ATOM     35  CZ3 TRP A   1       8.388  21.368  56.907  1.00  0.00     0.001 A 
ATOM     36  HE1 TRP A   1       8.244  21.290  52.055  1.00  0.00     0.165 HD
ATOM     37  CD1 TRP A   1       7.407  23.109  52.746  1.00  0.00     0.096 A 
ENDBRANCH  27  28
ENDBRANCH  23  27
ENDBRANCH   5  23
TORSDOF 8
ENDMDL
MODEL 5
REMARK VINA RESULT:     -10.0      1.902      2.675
REMARK  8 active torsions:
REMARK  status: ('A' for Active; 'I' for Inactive)
REMARK    1  A    between atoms: C_4  and  N_5 
REMARK       I    between atoms: N_5  and  C_6 
REMARK    2  A    between atoms: C_6  and  C_7 
REMARK    3  A    between atoms: C_10  and  N_11 
REMARK       I    between atoms: N_11  and  C_12 
REMARK       I    between atoms: C_12  and  N_21 
REMARK    4  A    between atoms: N_21  and  CA_22 
REMARK    5  A    between atoms: CA_22  and  C_23 
REMARK    6  A    between atoms: CA_22  and  CB_25 
REMARK    7  A    between atoms: C_23  and  O_24 
REMARK    8  A    between atoms: CB_25  and  CG_26 
ROOT
HETATM    1  N   UNK A   0       8.355  29.549  57.313  1.00  0.00    -0.309 N 
HETATM    2  C   UNK A   0       7.836  28.280  57.189  1.00  0.00     0.321 C 
HETATM    3  O   UNK A   0       7.607  27.487  58.093  1.00  0.00    -0.247 OA
HETATM    4  H   UNK A   0       8.766  29.924  56.472  1.00  0.00     0.170 HD
ATOM      5  N   TRP A   1       7.580  28.004  55.863  1.00  0.00    -0.336 N 
ATOM      6  H   TRP A   1       7.323  28.816  55.314  1.00  0.00     0.164 HD
ENDROOT
BRANCH   1   7
HETATM    7  C   UNK A   0       8.304  30.388  58.437  1.00  0.00     0.036 A 
HETATM    8  C   UNK A   0       9.312  30.445  59.399  1.00  0.00     0.030 A 
HETATM    9  C   UNK A   0       9.109  31.125  60.608  1.00  0.00     0.019 A 
HETATM   10  C   UNK A   0       7.899  31.786  60.855  1.00  0.00     0.032 A 
HETATM   11  C   UNK A   0       6.922  31.795  59.850  1.00  0.00     0.019 A 
HETATM   12  C   UNK A   0       7.122  31.101  58.652  1.00  0.00     0.030 A 
BRANCH  10  13
HETATM   13  C   UNK A   0       7.534  32.371  62.187  1.00  0.00     0.256 C 
HETATM   14  N   UNK A   0       6.267  32.916  62.301  1.00  0.00    -0.323 N 
HETATM   15  H   UNK A   0       5.583  32.671  61.600  1.00  0.00     0.169 HD
HETATM   16  O   UNK A   0       8.379  32.351  63.078  1.00  0.00    -0.267 OA
BRANCH  14  17
HETATM   17  C   UNK A   0       5.814  33.804  63.301  1.00  0.00     0.035 A 
HETATM   18  C   UNK A   0       5.796  35.193  63.157  1.00  0.00     0.029 A 
HETATM   19  C   UNK A   0       5.270  36.006  64.166  1.00  0.00     0.002 A 
HETATM   20  C   UNK A   0       4.758  35.437  65.328  1.00  0.00     0.000 A 
HETATM   21  C   UNK A   0       4.774  34.053  65.484  1.00  0.00     0.002 A 
HETATM   22  C   UNK A   0       5.298  33.241  64.475  1.00  0.00     0.029 A 
ENDBRANCH  14  17
ENDBRANCH  10  13
ENDBRANCH   1   7
BRANCH   5  23
ATOM     23  CA  TRP A   1       6.832  26.815  55.461  1.00  0.00     0.114 C 
BRANCH  23  24
ATOM     24  C   TRP A   1       5.426  26.858  56.092  1.00  0.00     0.189 C 
BRANCH  24  25
ATOM     25  O   TRP A   1       5.255  25.834  57.073  1.00  0.00    -0.399 OA
ATOM     26  H   TRP A   1       4.314  25.838  57.320  1.00  0.00     0.209 HD
ENDBRANCH  24  25
ENDBRANCH  23  24
BRANCH  23  27
ATOM     27  CB  TRP A   1       7.577  25.482  55.729  1.00  0.00     0.068 C 
BRANCH  27  28
ATOM     28  CG  TRP A   1       7.723  24.536  54.569  1.00  0.00    -0.028 A 
ATOM     29  CD2 TRP A   1       7.815  23.104  54.645  1.00  0.00    -0.002 A 
ATOM     30  CE2 TRP A   1       7.946  22.619  53.344  1.00  0.00     0.042 A 
ATOM     31  CE3 TRP A   1       7.802  22.173  55.705  1.00  0.00     0.014 A 
ATOM     32  CZ2 TRP A   1       8.048  21.253  53.049  1.00  0.00     0.030 A 
ATOM     33  NE1 TRP A   1       7.955  23.710  52.508  1.00  0.00    -0.365 N 
ATOM     34  CH2 TRP A   1       8.026  20.353  54.117  1.00  0.00     0.002 A 
ATOM     35  CZ3 TRP A   1       7.910  20.805  55.429  1.00  0.00     0.001 A 
ATOM     36  HE1 TRP A   1       8.045  23.658  51.504  1.00  0.00     0.165 HD
ATOM     37  CD1 TRP A   1       7.843  24.864  53.233  1.00  0.00     0.096 A 
ENDBRANCH  27  28
ENDBRANCH  23  27
ENDBRANCH   5  23
TORSDOF 8
ENDMDL
MODEL 6
REMARK VINA RESULT:      -9.9      2.503     10.351
REMARK  8 active torsions:
REMARK  status: ('A' for Active; 'I' for Inactive)
REMARK    1  A    between atoms: C_4  and  N_5 
REMARK       I    between atoms: N_5  and  C_6 
REMARK    2  A    between atoms: C_6  and  C_7 
REMARK    3  A    between atoms: C_10  and  N_11 
REMARK       I    between atoms: N_11  and  C_12 
REMARK       I    between atoms: C_12  and  N_21 
REMARK    4  A    between atoms: N_21  and  CA_22 
REMARK    5  A    between atoms: CA_22  and  C_23 
REMARK    6  A    between atoms: CA_22  and  CB_25 
REMARK    7  A    between atoms: C_23  and  O_24 
REMARK    8  A    between atoms: CB_25  and  CG_26 
ROOT
HETATM    1  N   UNK A   0       6.154  30.221  57.031  1.00  0.00    -0.309 N 
HETATM    2  C   UNK A   0       5.023  30.758  57.605  1.00  0.00     0.321 C 
HETATM    3  O   UNK A   0       3.971  30.179  57.840  1.00  0.00    -0.247 OA
HETATM    4  H   UNK A   0       6.788  30.895  56.630  1.00  0.00     0.170 HD
ATOM      5  N   TRP A   1       5.237  32.085  57.912  1.00  0.00    -0.336 N 
ATOM      6  H   TRP A   1       6.196  32.305  58.152  1.00  0.00     0.164 HD
ENDROOT
BRANCH   1   7
HETATM    7  C   UNK A   0       6.547  28.873  57.015  1.00  0.00     0.036 A 
HETATM    8  C   UNK A   0       7.605  28.373  57.773  1.00  0.00     0.030 A 
HETATM    9  C   UNK A   0       8.096  27.080  57.550  1.00  0.00     0.019 A 
HETATM   10  C   UNK A   0       7.510  26.257  56.579  1.00  0.00     0.032 A 
HETATM   11  C   UNK A   0       6.394  26.735  55.879  1.00  0.00     0.019 A 
HETATM   12  C   UNK A   0       5.918  28.033  56.093  1.00  0.00     0.030 A 
BRANCH  10  13
HETATM   13  C   UNK A   0       8.091  24.941  56.151  1.00  0.00     0.256 C 
HETATM   14  N   UNK A   0       7.581  24.385  54.991  1.00  0.00    -0.323 N 
HETATM   15  H   UNK A   0       7.055  24.984  54.372  1.00  0.00     0.169 HD
HETATM   16  O   UNK A   0       8.958  24.435  56.859  1.00  0.00    -0.267 OA
BRANCH  14  17
HETATM   17  C   UNK A   0       7.705  23.043  54.572  1.00  0.00     0.035 A 
HETATM   18  C   UNK A   0       7.991  22.661  53.259  1.00  0.00     0.029 A 
HETATM   19  C   UNK A   0       8.165  21.313  52.932  1.00  0.00     0.002 A 
HETATM   20  C   UNK A   0       8.055  20.334  53.914  1.00  0.00     0.000 A 
HETATM   21  C   UNK A   0       7.766  20.701  55.226  1.00  0.00     0.002 A 
HETATM   22  C   UNK A   0       7.593  22.049  55.553  1.00  0.00     0.029 A 
ENDBRANCH  14  17
ENDBRANCH  10  13
ENDBRANCH   1   7
BRANCH   5  23
ATOM     23  CA  TRP A   1       4.285  32.845  58.720  1.00  0.00     0.114 C 
BRANCH  23  24
ATOM     24  C   TRP A   1       3.472  33.782  57.805  1.00  0.00     0.189 C 
BRANCH  24  25
ATOM     25  O   TRP A   1       2.648  33.051  56.896  1.00  0.00    -0.399 OA
ATOM     26  H   TRP A   1       1.918  33.642  56.642  1.00  0.00     0.209 HD
ENDBRANCH  24  25
ENDBRANCH  23  24
BRANCH  23  27
ATOM     27  CB  TRP A   1       4.927  33.579  59.925  1.00  0.00     0.068 C 
BRANCH  27  28
ATOM     28  CG  TRP A   1       5.572  32.724  60.980  1.00  0.00    -0.028 A 
ATOM     29  CD2 TRP A   1       6.955  32.340  61.036  1.00  0.00    -0.002 A 
ATOM     30  CE2 TRP A   1       7.128  31.544  62.169  1.00  0.00     0.042 A 
ATOM     31  CE3 TRP A   1       8.080  32.594  60.223  1.00  0.00     0.014 A 
ATOM     32  CZ2 TRP A   1       8.367  31.005  62.537  1.00  0.00     0.030 A 
ATOM     33  NE1 TRP A   1       5.897  31.428  62.769  1.00  0.00    -0.365 N 
ATOM     34  CH2 TRP A   1       9.466  31.279  61.718  1.00  0.00     0.002 A 
ATOM     35  CZ3 TRP A   1       9.325  32.057  60.573  1.00  0.00     0.001 A 
ATOM     36  HE1 TRP A   1       5.720  30.899  63.611  1.00  0.00     0.165 HD
ATOM     37  CD1 TRP A   1       4.954  32.114  62.054  1.00  0.00     0.096 A 
ENDBRANCH  27  28
ENDBRANCH  23  27
ENDBRANCH   5  23
TORSDOF 8
ENDMDL
MODEL 7
REMARK VINA RESULT:      -9.7      2.274     11.533
REMARK  8 active torsions:
REMARK  status: ('A' for Active; 'I' for Inactive)
REMARK    1  A    between atoms: C_4  and  N_5 
REMARK       I    between atoms: N_5  and  C_6 
REMARK    2  A    between atoms: C_6  and  C_7 
REMARK    3  A    between atoms: C_10  and  N_11 
REMARK       I    between atoms: N_11  and  C_12 
REMARK       I    between atoms: C_12  and  N_21 
REMARK    4  A    between atoms: N_21  and  CA_22 
REMARK    5  A    between atoms: CA_22  and  C_23 
REMARK    6  A    between atoms: CA_22  and  CB_25 
REMARK    7  A    between atoms: C_23  and  O_24 
REMARK    8  A    between atoms: CB_25  and  CG_26 
ROOT
HETATM    1  N   UNK A   0       6.871  30.263  56.924  1.00  0.00    -0.309 N 
HETATM    2  C   UNK A   0       5.839  30.696  57.726  1.00  0.00     0.321 C 
HETATM    3  O   UNK A   0       4.770  30.132  57.917  1.00  0.00    -0.247 OA
HETATM    4  H   UNK A   0       7.519  30.983  56.639  1.00  0.00     0.170 HD
ATOM      5  N   TRP A   1       6.180  31.889  58.327  1.00  0.00    -0.336 N 
ATOM      6  H   TRP A   1       7.171  31.989  58.514  1.00  0.00     0.164 HD
ENDROOT
BRANCH   1   7
HETATM    7  C   UNK A   0       7.157  28.945  56.534  1.00  0.00     0.036 A 
HETATM    8  C   UNK A   0       6.747  28.398  55.319  1.00  0.00     0.030 A 
HETATM    9  C   UNK A   0       6.862  27.022  55.080  1.00  0.00     0.019 A 
HETATM   10  C   UNK A   0       7.420  26.178  56.048  1.00  0.00     0.032 A 
HETATM   11  C   UNK A   0       7.907  26.746  57.233  1.00  0.00     0.019 A 
HETATM   12  C   UNK A   0       7.775  28.118  57.475  1.00  0.00     0.030 A 
BRANCH  10  13
HETATM   13  C   UNK A   0       7.406  24.681  55.948  1.00  0.00     0.256 C 
HETATM   14  N   UNK A   0       8.373  24.103  55.144  1.00  0.00    -0.323 N 
HETATM   15  H   UNK A   0       9.169  24.666  54.885  1.00  0.00     0.169 HD
HETATM   16  O   UNK A   0       6.535  24.069  56.560  1.00  0.00    -0.267 OA
BRANCH  14  17
HETATM   17  C   UNK A   0       8.367  22.790  54.624  1.00  0.00     0.035 A 
HETATM   18  C   UNK A   0       7.974  22.471  53.322  1.00  0.00     0.029 A 
HETATM   19  C   UNK A   0       8.058  21.155  52.856  1.00  0.00     0.002 A 
HETATM   20  C   UNK A   0       8.536  20.147  53.687  1.00  0.00     0.000 A 
HETATM   21  C   UNK A   0       8.928  20.452  54.988  1.00  0.00     0.002 A 
HETATM   22  C   UNK A   0       8.845  21.768  55.453  1.00  0.00     0.029 A 
ENDBRANCH  14  17
ENDBRANCH  10  13
ENDBRANCH   1   7
BRANCH   5  23
ATOM     23  CA  TRP A   1       5.362  32.468  59.392  1.00  0.00     0.114 C 
BRANCH  23  24
ATOM     24  C   TRP A   1       4.580  33.674  58.836  1.00  0.00     0.189 C 
BRANCH  24  25
ATOM     25  O   TRP A   1       3.201  33.364  58.636  1.00  0.00    -0.399 OA
ATOM     26  H   TRP A   1       2.856  33.055  59.493  1.00  0.00     0.209 HD
ENDBRANCH  24  25
ENDBRANCH  23  24
BRANCH  23  27
ATOM     27  CB  TRP A   1       6.153  32.799  60.683  1.00  0.00     0.068 C 
BRANCH  27  28
ATOM     28  CG  TRP A   1       5.355  32.978  61.945  1.00  0.00    -0.028 A 
ATOM     29  CD2 TRP A   1       5.877  33.302  63.244  1.00  0.00    -0.002 A 
ATOM     30  CE2 TRP A   1       4.801  33.366  64.129  1.00  0.00     0.042 A 
ATOM     31  CE3 TRP A   1       7.171  33.546  63.750  1.00  0.00     0.014 A 
ATOM     32  CZ2 TRP A   1       4.951  33.676  65.487  1.00  0.00     0.030 A 
ATOM     33  NE1 TRP A   1       3.670  33.071  63.407  1.00  0.00    -0.365 N 
ATOM     34  CH2 TRP A   1       6.243  33.920  65.960  1.00  0.00     0.002 A 
ATOM     35  CZ3 TRP A   1       7.340  33.851  65.107  1.00  0.00     0.001 A 
ATOM     36  HE1 TRP A   1       2.738  33.037  63.794  1.00  0.00     0.165 HD
ATOM     37  CD1 TRP A   1       3.992  32.816  62.102  1.00  0.00     0.096 A 
ENDBRANCH  27  28
ENDBRANCH  23  27
ENDBRANCH   5  23
TORSDOF 8
ENDMDL
MODEL 8
REMARK VINA RESULT:      -9.7      1.643     11.495
REMARK  8 active torsions:
REMARK  status: ('A' for Active; 'I' for Inactive)
REMARK    1  A    between atoms: C_4  and  N_5 
REMARK       I    between atoms: N_5  and  C_6 
REMARK    2  A    between atoms: C_6  and  C_7 
REMARK    3  A    between atoms: C_10  and  N_11 
REMARK       I    between atoms: N_11  and  C_12 
REMARK       I    between atoms: C_12  and  N_21 
REMARK    4  A    between atoms: N_21  and  CA_22 
REMARK    5  A    between atoms: CA_22  and  C_23 
REMARK    6  A    between atoms: CA_22  and  CB_25 
REMARK    7  A    between atoms: C_23  and  O_24 
REMARK    8  A    between atoms: CB_25  and  CG_26 
ROOT
HETATM    1  N   UNK A   0       6.589  29.862  58.158  1.00  0.00    -0.309 N 
HETATM    2  C   UNK A   0       7.619  30.244  58.987  1.00  0.00     0.321 C 
HETATM    3  O   UNK A   0       8.546  29.548  59.378  1.00  0.00    -0.247 OA
HETATM    4  H   UNK A   0       5.769  30.448  58.199  1.00  0.00     0.170 HD
ATOM      5  N   TRP A   1       7.481  31.574  59.325  1.00  0.00    -0.336 N 
ATOM      6  H   TRP A   1       7.043  32.140  58.608  1.00  0.00     0.164 HD
ENDROOT
BRANCH   1   7
HETATM    7  C   UNK A   0       6.587  28.813  57.224  1.00  0.00     0.036 A 
HETATM    8  C   UNK A   0       5.566  28.615  56.295  1.00  0.00     0.030 A 
HETATM    9  C   UNK A   0       5.502  27.432  55.545  1.00  0.00     0.019 A 
HETATM   10  C   UNK A   0       6.483  26.444  55.695  1.00  0.00     0.032 A 
HETATM   11  C   UNK A   0       7.552  26.686  56.569  1.00  0.00     0.019 A 
HETATM   12  C   UNK A   0       7.602  27.859  57.328  1.00  0.00     0.030 A 
BRANCH  10  13
HETATM   13  C   UNK A   0       6.385  25.081  55.074  1.00  0.00     0.256 C 
HETATM   14  N   UNK A   0       7.245  24.113  55.562  1.00  0.00    -0.323 N 
HETATM   15  H   UNK A   0       7.694  24.283  56.449  1.00  0.00     0.169 HD
HETATM   16  O   UNK A   0       5.572  24.917  54.168  1.00  0.00    -0.267 OA
BRANCH  14  17
HETATM   17  C   UNK A   0       7.583  22.891  54.940  1.00  0.00     0.035 A 
HETATM   18  C   UNK A   0       7.695  21.677  55.621  1.00  0.00     0.029 A 
HETATM   19  C   UNK A   0       7.968  20.494  54.926  1.00  0.00     0.002 A 
HETATM   20  C   UNK A   0       8.130  20.515  53.544  1.00  0.00     0.000 A 
HETATM   21  C   UNK A   0       8.024  21.720  52.855  1.00  0.00     0.002 A 
HETATM   22  C   UNK A   0       7.750  22.902  53.549  1.00  0.00     0.029 A 
ENDBRANCH  14  17
ENDBRANCH  10  13
ENDBRANCH   1   7
BRANCH   5  23
ATOM     23  CA  TRP A   1       8.542  32.299  60.021  1.00  0.00     0.114 C 
BRANCH  23  24
ATOM     24  C   TRP A   1       9.913  31.803  59.519  1.00  0.00     0.189 C 
BRANCH  24  25
ATOM     25  O   TRP A   1      10.157  32.199  58.169  1.00  0.00    -0.399 OA
ATOM     26  H   TRP A   1      10.938  32.780  58.185  1.00  0.00     0.209 HD
ENDBRANCH  24  25
ENDBRANCH  23  24
BRANCH  23  27
ATOM     27  CB  TRP A   1       8.415  32.273  61.565  1.00  0.00     0.068 C 
BRANCH  27  28
ATOM     28  CG  TRP A   1       7.057  32.559  62.143  1.00  0.00    -0.028 A 
ATOM     29  CD2 TRP A   1       6.779  33.036  63.470  1.00  0.00    -0.002 A 
ATOM     30  CE2 TRP A   1       5.396  33.158  63.595  1.00  0.00     0.042 A 
ATOM     31  CE3 TRP A   1       7.581  33.372  64.581  1.00  0.00     0.014 A 
ATOM     32  CZ2 TRP A   1       4.776  33.615  64.765  1.00  0.00     0.030 A 
ATOM     33  NE1 TRP A   1       4.847  32.753  62.402  1.00  0.00    -0.365 N 
ATOM     34  CH2 TRP A   1       5.594  33.949  65.847  1.00  0.00     0.002 A 
ATOM     35  CZ3 TRP A   1       6.977  33.824  65.761  1.00  0.00     0.001 A 
ATOM     36  HE1 TRP A   1       3.857  32.730  62.207  1.00  0.00     0.165 HD
ATOM     37  CD1 TRP A   1       5.832  32.372  61.532  1.00  0.00     0.096 A 
ENDBRANCH  27  28
ENDBRANCH  23  27
ENDBRANCH   5  23
TORSDOF 8
ENDMDL
MODEL 9
REMARK VINA RESULT:      -9.6      3.288      5.440
REMARK  8 active torsions:
REMARK  status: ('A' for Active; 'I' for Inactive)
REMARK    1  A    between atoms: C_4  and  N_5 
REMARK       I    between atoms: N_5  and  C_6 
REMARK    2  A    between atoms: C_6  and  C_7 
REMARK    3  A    between atoms: C_10  and  N_11 
REMARK       I    between atoms: N_11  and  C_12 
REMARK       I    between atoms: C_12  and  N_21 
REMARK    4  A    between atoms: N_21  and  CA_22 
REMARK    5  A    between atoms: CA_22  and  C_23 
REMARK    6  A    between atoms: CA_22  and  CB_25 
REMARK    7  A    between atoms: C_23  and  O_24 
REMARK    8  A    between atoms: CB_25  and  CG_26 
ROOT
HETATM    1  N   UNK A   0       7.512  28.989  54.987  1.00  0.00    -0.309 N 
HETATM    2  C   UNK A   0       6.624  28.141  54.365  1.00  0.00     0.321 C 
HETATM    3  O   UNK A   0       5.875  27.337  54.903  1.00  0.00    -0.247 OA
HETATM    4  H   UNK A   0       8.252  29.338  54.397  1.00  0.00     0.170 HD
ATOM      5  N   TRP A   1       6.672  28.330  53.000  1.00  0.00    -0.336 N 
ATOM      6  H   TRP A   1       6.895  29.278  52.721  1.00  0.00     0.164 HD
ENDROOT
BRANCH   1   7
HETATM    7  C   UNK A   0       7.454  29.472  56.304  1.00  0.00     0.036 A 
HETATM    8  C   UNK A   0       6.340  30.121  56.836  1.00  0.00     0.030 A 
HETATM    9  C   UNK A   0       6.418  30.779  58.071  1.00  0.00     0.019 A 
HETATM   10  C   UNK A   0       7.609  30.768  58.807  1.00  0.00     0.032 A 
HETATM   11  C   UNK A   0       8.700  30.043  58.307  1.00  0.00     0.019 A 
HETATM   12  C   UNK A   0       8.624  29.403  57.065  1.00  0.00     0.030 A 
BRANCH  10  13
HETATM   13  C   UNK A   0       7.829  31.598  60.037  1.00  0.00     0.256 C 
HETATM   14  N   UNK A   0       7.285  31.119  61.216  1.00  0.00    -0.323 N 
HETATM   15  H   UNK A   0       7.007  30.149  61.248  1.00  0.00     0.169 HD
HETATM   16  O   UNK A   0       8.452  32.650  59.919  1.00  0.00    -0.267 OA
BRANCH  14  17
HETATM   17  C   UNK A   0       7.060  31.850  62.402  1.00  0.00     0.035 A 
HETATM   18  C   UNK A   0       8.080  32.405  63.179  1.00  0.00     0.029 A 
HETATM   19  C   UNK A   0       7.776  33.175  64.306  1.00  0.00     0.002 A 
HETATM   20  C   UNK A   0       6.451  33.397  64.667  1.00  0.00     0.000 A 
HETATM   21  C   UNK A   0       5.426  32.845  63.903  1.00  0.00     0.002 A 
HETATM   22  C   UNK A   0       5.729  32.077  62.775  1.00  0.00     0.029 A 
ENDBRANCH  14  17
ENDBRANCH  10  13
ENDBRANCH   1   7
BRANCH   5  23
ATOM     23  CA  TRP A   1       5.688  27.717  52.110  1.00  0.00     0.114 C 
BRANCH  23  24
ATOM     24  C   TRP A   1       6.153  26.295  51.736  1.00  0.00     0.189 C 
BRANCH  24  25
ATOM     25  O   TRP A   1       5.527  25.302  52.549  1.00  0.00    -0.399 OA
ATOM     26  H   TRP A   1       6.055  25.235  53.364  1.00  0.00     0.209 HD
ENDBRANCH  24  25
ENDBRANCH  23  24
BRANCH  23  27
ATOM     27  CB  TRP A   1       5.330  28.583  50.876  1.00  0.00     0.068 C 
BRANCH  27  28
ATOM     28  CG  TRP A   1       3.956  28.405  50.292  1.00  0.00    -0.028 A 
ATOM     29  CD2 TRP A   1       3.609  27.579  49.168  1.00  0.00    -0.002 A 
ATOM     30  CE2 TRP A   1       2.236  27.707  48.957  1.00  0.00     0.042 A 
ATOM     31  CE3 TRP A   1       4.339  26.734  48.307  1.00  0.00     0.014 A 
ATOM     32  CZ2 TRP A   1       1.556  27.023  47.941  1.00  0.00     0.030 A 
ATOM     33  NE1 TRP A   1       1.766  28.591  49.898  1.00  0.00    -0.365 N 
ATOM     34  CH2 TRP A   1       2.303  26.186  47.107  1.00  0.00     0.002 A 
ATOM     35  CZ3 TRP A   1       3.677  26.047  47.282  1.00  0.00     0.001 A 
ATOM     36  HE1 TRP A   1       0.802  28.880  49.979  1.00  0.00     0.165 HD
ATOM     37  CD1 TRP A   1       2.791  29.031  50.690  1.00  0.00     0.096 A 
ENDBRANCH  27  28
ENDBRANCH  23  27
ENDBRANCH   5  23
TORSDOF 8
ENDMDL
MODEL 10
REMARK VINA RESULT:      -9.6      3.613     11.454
REMARK  8 active torsions:
REMARK  status: ('A' for Active; 'I' for Inactive)
REMARK    1  A    between atoms: C_4  and  N_5 
REMARK       I    between atoms: N_5  and  C_6 
REMARK    2  A    between atoms: C_6  and  C_7 
REMARK    3  A    between atoms: C_10  and  N_11 
REMARK       I    between atoms: N_11  and  C_12 
REMARK       I    between atoms: C_12  and  N_21 
REMARK    4  A    between atoms: N_21  and  CA_22 
REMARK    5  A    between atoms: CA_22  and  C_23 
REMARK    6  A    between atoms: CA_22  and  CB_25 
REMARK    7  A    between atoms: C_23  and  O_24 
REMARK    8  A    between atoms: CB_25  and  CG_26 
ROOT
HETATM    1  N   UNK A   0       7.449  29.109  58.271  1.00  0.00    -0.309 N 
HETATM    2  C   UNK A   0       8.401  29.983  58.746  1.00  0.00     0.321 C 
HETATM    3  O   UNK A   0       9.277  30.541  58.099  1.00  0.00    -0.247 OA
HETATM    4  H   UNK A   0       7.029  28.517  58.971  1.00  0.00     0.170 HD
ATOM      5  N   TRP A   1       8.230  30.173  60.101  1.00  0.00    -0.336 N 
ATOM      6  H   TRP A   1       7.267  30.106  60.410  1.00  0.00     0.164 HD
ENDROOT
BRANCH   1   7
HETATM    7  C   UNK A   0       6.955  29.012  56.961  1.00  0.00     0.036 A 
HETATM    8  C   UNK A   0       5.933  29.821  56.464  1.00  0.00     0.030 A 
HETATM    9  C   UNK A   0       5.329  29.532  55.233  1.00  0.00     0.019 A 
HETATM   10  C   UNK A   0       5.763  28.443  54.467  1.00  0.00     0.032 A 
HETATM   11  C   UNK A   0       6.846  27.685  54.933  1.00  0.00     0.019 A 
HETATM   12  C   UNK A   0       7.436  27.966  56.170  1.00  0.00     0.030 A 
BRANCH  10  13
HETATM   13  C   UNK A   0       5.049  27.959  53.240  1.00  0.00     0.256 C 
HETATM   14  N   UNK A   0       5.835  27.663  52.140  1.00  0.00    -0.323 N 
HETATM   15  H   UNK A   0       6.826  27.538  52.287  1.00  0.00     0.169 HD
HETATM   16  O   UNK A   0       3.825  27.876  53.279  1.00  0.00    -0.267 OA
BRANCH  14  17
HETATM   17  C   UNK A   0       5.402  27.523  50.803  1.00  0.00     0.035 A 
HETATM   18  C   UNK A   0       4.881  26.340  50.274  1.00  0.00     0.029 A 
HETATM   19  C   UNK A   0       4.410  26.297  48.958  1.00  0.00     0.002 A 
HETATM   20  C   UNK A   0       4.455  27.436  48.160  1.00  0.00     0.000 A 
HETATM   21  C   UNK A   0       4.975  28.620  48.675  1.00  0.00     0.002 A 
HETATM   22  C   UNK A   0       5.445  28.664  49.991  1.00  0.00     0.029 A 
ENDBRANCH  14  17
ENDBRANCH  10  13
ENDBRANCH   1   7
BRANCH   5  23
ATOM     23  CA  TRP A   1       8.964  31.209  60.825  1.00  0.00     0.114 C 
BRANCH  23  24
ATOM     24  C   TRP A   1       9.297  30.704  62.243  1.00  0.00     0.189 C 
BRANCH  24  25
ATOM     25  O   TRP A   1       9.027  29.308  62.384  1.00  0.00    -0.399 OA
ATOM     26  H   TRP A   1       8.824  29.156  63.323  1.00  0.00     0.209 HD
ENDBRANCH  24  25
ENDBRANCH  23  24
BRANCH  23  27
ATOM     27  CB  TRP A   1       8.266  32.593  60.823  1.00  0.00     0.068 C 
BRANCH  27  28
ATOM     28  CG  TRP A   1       6.961  32.702  61.563  1.00  0.00    -0.028 A 
ATOM     29  CD2 TRP A   1       6.794  33.055  62.946  1.00  0.00    -0.002 A 
ATOM     30  CE2 TRP A   1       5.428  33.031  63.226  1.00  0.00     0.042 A 
ATOM     31  CE3 TRP A   1       7.683  33.391  63.989  1.00  0.00     0.014 A 
ATOM     32  CZ2 TRP A   1       4.906  33.341  64.489  1.00  0.00     0.030 A 
ATOM     33  NE1 TRP A   1       4.787  32.658  62.070  1.00  0.00    -0.365 N 
ATOM     34  CH2 TRP A   1       5.808  33.678  65.501  1.00  0.00     0.002 A 
ATOM     35  CZ3 TRP A   1       7.179  33.698  65.259  1.00  0.00     0.001 A 
ATOM     36  HE1 TRP A   1       3.788  32.550  61.980  1.00  0.00     0.165 HD
ATOM     37  CD1 TRP A   1       5.698  32.438  61.072  1.00  0.00     0.096 A 
ENDBRANCH  27  28
ENDBRANCH  23  27
ENDBRANCH   5  23
TORSDOF 8
ENDMDL
