MODEL 1
REMARK VINA RESULT:      -8.9      0.000      0.000
REMARK  6 active torsions:
REMARK  status: ('A' for Active; 'I' for Inactive)
REMARK    1  A    between atoms: C_7  and  C_8 
REMARK    2  A    between atoms: N_9  and  N_10 
REMARK       I    between atoms: N_10  and  C_11 
REMARK    3  A    between atoms: C_11  and  C_12 
REMARK    4  A    between atoms: C_12  and  N_13 
REMARK    5  A    between atoms: N_13  and  C_14 
REMARK    6  A    between atoms: C_15  and  O_16 
ROOT
HETATM    1  N   UNL     1       6.813  26.826  56.647  1.00  0.00    -0.246 N 
HETATM    2  C   UNL     1       5.811  27.791  56.585  1.00  0.00     0.250 C 
HETATM    3  O   UNL     1       4.782  27.713  55.915  1.00  0.00    -0.270 OA
HETATM    4  H   UNL     1       7.446  26.882  57.444  1.00  0.00     0.192 HD
ENDROOT
BRANCH   1   5
HETATM    5  N   UNL     1       6.803  25.624  55.985  1.00  0.00    -0.184 NA
HETATM    6  C   UNL     1       7.814  25.364  55.215  1.00  0.00     0.153 C 
BRANCH   6   7
HETATM    7  C   UNL     1       7.879  24.122  54.466  1.00  0.00     0.018 A 
HETATM    8  C   UNL     1       7.778  23.953  53.091  1.00  0.00     0.018 A 
HETATM    9  C   UNL     1       7.595  24.939  51.993  1.00  0.00     0.069 C 
HETATM   10  N   UNL     1       7.886  22.610  52.827  1.00  0.00    -0.358 N 
HETATM   11  H   UNL     1       7.850  22.194  51.908  1.00  0.00     0.166 HD
HETATM   12  C   UNL     1       8.055  21.896  53.989  1.00  0.00     0.043 A 
HETATM   13  C   UNL     1       8.062  22.817  55.036  1.00  0.00     0.004 A 
HETATM   14  C   UNL     1       8.202  20.517  54.189  1.00  0.00     0.030 A 
HETATM   15  C   UNL     1       8.224  22.331  56.352  1.00  0.00     0.014 A 
HETATM   16  C   UNL     1       8.369  20.957  56.571  1.00  0.00     0.001 A 
HETATM   17  C   UNL     1       8.358  20.065  55.503  1.00  0.00     0.002 A 
ENDBRANCH   6   7
ENDBRANCH   1   5
BRANCH   2  18
HETATM   18  C   UNL     1       6.096  29.000  57.483  1.00  0.00     0.197 C 
BRANCH  18  19
HETATM   19  N   UNL     1       7.219  28.730  58.400  1.00  0.00    -0.282 NA
HETATM   20  H   UNL     1       7.772  27.925  58.082  1.00  0.00     0.128 HD
BRANCH  19  21
HETATM   21  C   UNL     1       8.146  29.795  58.539  1.00  0.00     0.042 A 
HETATM   22  C   UNL     1       9.319  29.778  57.752  1.00  0.00     0.089 A 
HETATM   23  C   UNL     1      10.264  30.800  57.860  1.00  0.00     0.038 A 
HETATM   24  C   UNL     1      10.081  31.816  58.798  1.00  0.00     0.003 A 
HETATM   25  C   UNL     1       8.961  31.807  59.627  1.00  0.00     0.002 A 
HETATM   26  C   UNL     1       8.004  30.796  59.506  1.00  0.00     0.026 A 
BRANCH  22  27
HETATM   27  O   UNL     1       9.413  28.756  56.833  1.00  0.00    -0.354 OA
HETATM   28  C   UNL     1       9.328  29.185  55.478  1.00  0.00     0.210 C 
ENDBRANCH  22  27
ENDBRANCH  19  21
ENDBRANCH  18  19
ENDBRANCH   2  18
TORSDOF 6
ENDMDL
MODEL 2
REMARK VINA RESULT:      -8.9      1.091      1.881
REMARK  6 active torsions:
REMARK  status: ('A' for Active; 'I' for Inactive)
REMARK    1  A    between atoms: C_7  and  C_8 
REMARK    2  A    between atoms: N_9  and  N_10 
REMARK       I    between atoms: N_10  and  C_11 
REMARK    3  A    between atoms: C_11  and  C_12 
REMARK    4  A    between atoms: C_12  and  N_13 
REMARK    5  A    between atoms: N_13  and  C_14 
REMARK    6  A    between atoms: C_15  and  O_16 
ROOT
HETATM    1  N   UNL     1       6.363  26.828  56.310  1.00  0.00    -0.246 N 
HETATM    2  C   UNL     1       6.157  28.127  55.851  1.00  0.00     0.250 C 
HETATM    3  O   UNL     1       6.030  28.458  54.673  1.00  0.00    -0.270 OA
HETATM    4  H   UNL     1       6.159  26.659  57.295  1.00  0.00     0.192 HD
ENDROOT
BRANCH   1   5
HETATM    5  N   UNL     1       6.435  25.707  55.521  1.00  0.00    -0.184 NA
HETATM    6  C   UNL     1       7.615  25.218  55.295  1.00  0.00     0.153 C 
BRANCH   6   7
HETATM    7  C   UNL     1       7.786  24.042  54.460  1.00  0.00     0.018 A 
HETATM    8  C   UNL     1       7.782  23.977  53.073  1.00  0.00     0.018 A 
HETATM    9  C   UNL     1       7.625  25.037  52.043  1.00  0.00     0.069 C 
HETATM   10  N   UNL     1       7.969  22.664  52.716  1.00  0.00    -0.358 N 
HETATM   11  H   UNL     1       8.011  22.321  51.768  1.00  0.00     0.166 HD
HETATM   12  C   UNL     1       8.095  21.870  53.831  1.00  0.00     0.043 A 
HETATM   13  C   UNL     1       7.992  22.705  54.942  1.00  0.00     0.004 A 
HETATM   14  C   UNL     1       8.292  20.487  53.935  1.00  0.00     0.030 A 
HETATM   15  C   UNL     1       8.091  22.125  56.225  1.00  0.00     0.014 A 
HETATM   16  C   UNL     1       8.285  20.745  56.349  1.00  0.00     0.001 A 
HETATM   17  C   UNL     1       8.384  19.940  55.219  1.00  0.00     0.002 A 
ENDBRANCH   6   7
ENDBRANCH   1   5
BRANCH   2  18
HETATM   18  C   UNL     1       6.072  29.151  56.988  1.00  0.00     0.197 C 
BRANCH  18  19
HETATM   19  N   UNL     1       7.032  28.836  58.063  1.00  0.00    -0.282 NA
HETATM   20  H   UNL     1       7.233  27.829  58.097  1.00  0.00     0.128 HD
BRANCH  19  21
HETATM   21  C   UNL     1       8.295  29.469  57.939  1.00  0.00     0.042 A 
HETATM   22  C   UNL     1       8.534  30.653  58.671  1.00  0.00     0.089 A 
HETATM   23  C   UNL     1       9.760  31.316  58.575  1.00  0.00     0.038 A 
HETATM   24  C   UNL     1      10.738  30.840  57.702  1.00  0.00     0.003 A 
HETATM   25  C   UNL     1      10.488  29.710  56.925  1.00  0.00     0.002 A 
HETATM   26  C   UNL     1       9.270  29.034  57.035  1.00  0.00     0.026 A 
BRANCH  22  27
HETATM   27  O   UNL     1       7.529  31.043  59.529  1.00  0.00    -0.354 OA
HETATM   28  C   UNL     1       7.963  31.267  60.867  1.00  0.00     0.210 C 
ENDBRANCH  22  27
ENDBRANCH  19  21
ENDBRANCH  18  19
ENDBRANCH   2  18
TORSDOF 6
ENDMDL
MODEL 3
REMARK VINA RESULT:      -8.6      1.703      2.612
REMARK  6 active torsions:
REMARK  status: ('A' for Active; 'I' for Inactive)
REMARK    1  A    between atoms: C_7  and  C_8 
REMARK    2  A    between atoms: N_9  and  N_10 
REMARK       I    between atoms: N_10  and  C_11 
REMARK    3  A    between atoms: C_11  and  C_12 
REMARK    4  A    between atoms: C_12  and  N_13 
REMARK    5  A    between atoms: N_13  and  C_14 
REMARK    6  A    between atoms: C_15  and  O_16 
ROOT
HETATM    1  N   UNL     1       7.571  27.105  56.826  1.00  0.00    -0.246 N 
HETATM    2  C   UNL     1       8.337  28.181  57.266  1.00  0.00     0.250 C 
HETATM    3  O   UNL     1       9.517  28.382  56.983  1.00  0.00    -0.270 OA
HETATM    4  H   UNL     1       6.559  27.214  56.889  1.00  0.00     0.192 HD
ENDROOT
BRANCH   1   5
HETATM    5  N   UNL     1       8.005  26.107  55.989  1.00  0.00    -0.184 NA
HETATM    6  C   UNL     1       7.101  25.334  55.471  1.00  0.00     0.153 C 
BRANCH   6   7
HETATM    7  C   UNL     1       7.471  24.244  54.586  1.00  0.00     0.018 A 
HETATM    8  C   UNL     1       7.609  24.282  53.205  1.00  0.00     0.018 A 
HETATM    9  C   UNL     1       7.448  25.395  52.233  1.00  0.00     0.069 C 
HETATM   10  N   UNL     1       7.962  23.022  52.787  1.00  0.00    -0.358 N 
HETATM   11  H   UNL     1       8.131  22.755  51.828  1.00  0.00     0.166 HD
HETATM   12  C   UNL     1       8.059  22.163  53.855  1.00  0.00     0.043 A 
HETATM   13  C   UNL     1       7.763  22.900  55.000  1.00  0.00     0.004 A 
HETATM   14  C   UNL     1       8.383  20.801  53.891  1.00  0.00     0.030 A 
HETATM   15  C   UNL     1       7.794  22.240  56.247  1.00  0.00     0.014 A 
HETATM   16  C   UNL     1       8.114  20.878  56.303  1.00  0.00     0.001 A 
HETATM   17  C   UNL     1       8.404  20.171  55.140  1.00  0.00     0.002 A 
ENDBRANCH   6   7
ENDBRANCH   1   5
BRANCH   2  18
HETATM   18  C   UNL     1       7.545  29.151  58.149  1.00  0.00     0.197 C 
BRANCH  18  19
HETATM   19  N   UNL     1       8.233  30.451  58.264  1.00  0.00    -0.282 NA
HETATM   20  H   UNL     1       7.773  31.167  57.689  1.00  0.00     0.128 HD
BRANCH  19  21
HETATM   21  C   UNL     1       8.277  30.990  59.576  1.00  0.00     0.042 A 
HETATM   22  C   UNL     1       7.466  32.106  59.876  1.00  0.00     0.089 A 
HETATM   23  C   UNL     1       7.482  32.676  61.151  1.00  0.00     0.038 A 
HETATM   24  C   UNL     1       8.351  32.178  62.122  1.00  0.00     0.003 A 
HETATM   25  C   UNL     1       9.204  31.119  61.816  1.00  0.00     0.002 A 
HETATM   26  C   UNL     1       9.175  30.535  60.547  1.00  0.00     0.026 A 
BRANCH  22  27
HETATM   27  O   UNL     1       6.618  32.522  58.873  1.00  0.00    -0.354 OA
HETATM   28  C   UNL     1       5.245  32.553  59.250  1.00  0.00     0.210 C 
ENDBRANCH  22  27
ENDBRANCH  19  21
ENDBRANCH  18  19
ENDBRANCH   2  18
TORSDOF 6
ENDMDL
MODEL 4
REMARK VINA RESULT:      -8.6      1.723      8.086
REMARK  6 active torsions:
REMARK  status: ('A' for Active; 'I' for Inactive)
REMARK    1  A    between atoms: C_7  and  C_8 
REMARK    2  A    between atoms: N_9  and  N_10 
REMARK       I    between atoms: N_10  and  C_11 
REMARK    3  A    between atoms: C_11  and  C_12 
REMARK    4  A    between atoms: C_12  and  N_13 
REMARK    5  A    between atoms: N_13  and  C_14 
REMARK    6  A    between atoms: C_15  and  O_16 
ROOT
HETATM    1  N   UNL     1       7.295  26.303  53.984  1.00  0.00    -0.246 N 
HETATM    2  C   UNL     1       6.215  25.640  53.408  1.00  0.00     0.250 C 
HETATM    3  O   UNL     1       5.034  25.973  53.509  1.00  0.00    -0.270 OA
HETATM    4  H   UNL     1       8.213  26.101  53.588  1.00  0.00     0.192 HD
ENDROOT
BRANCH   1   5
HETATM    5  N   UNL     1       7.218  27.446  54.740  1.00  0.00    -0.184 NA
HETATM    6  C   UNL     1       7.630  27.372  55.968  1.00  0.00     0.153 C 
BRANCH   6   7
HETATM    7  C   UNL     1       7.571  28.529  56.844  1.00  0.00     0.018 A 
HETATM    8  C   UNL     1       6.451  29.073  57.458  1.00  0.00     0.018 A 
HETATM    9  C   UNL     1       5.023  28.661  57.434  1.00  0.00     0.069 C 
HETATM   10  N   UNL     1       6.863  30.163  58.185  1.00  0.00    -0.358 N 
HETATM   11  H   UNL     1       6.259  30.754  58.737  1.00  0.00     0.166 HD
HETATM   12  C   UNL     1       8.219  30.347  58.063  1.00  0.00     0.043 A 
HETATM   13  C   UNL     1       8.696  29.333  57.232  1.00  0.00     0.004 A 
HETATM   14  C   UNL     1       9.051  31.326  58.621  1.00  0.00     0.030 A 
HETATM   15  C   UNL     1      10.077  29.298  56.947  1.00  0.00     0.014 A 
HETATM   16  C   UNL     1      10.924  30.269  57.493  1.00  0.00     0.001 A 
HETATM   17  C   UNL     1      10.415  31.268  58.318  1.00  0.00     0.002 A 
ENDBRANCH   6   7
ENDBRANCH   1   5
BRANCH   2  18
HETATM   18  C   UNL     1       6.639  24.423  52.578  1.00  0.00     0.197 C 
BRANCH  18  19
HETATM   19  N   UNL     1       8.017  24.010  52.903  1.00  0.00    -0.282 NA
HETATM   20  H   UNL     1       8.470  24.690  53.526  1.00  0.00     0.128 HD
BRANCH  19  21
HETATM   21  C   UNL     1       8.125  22.761  53.566  1.00  0.00     0.042 A 
HETATM   22  C   UNL     1       8.440  22.749  54.942  1.00  0.00     0.089 A 
HETATM   23  C   UNL     1       8.566  21.542  55.635  1.00  0.00     0.038 A 
HETATM   24  C   UNL     1       8.440  20.334  54.949  1.00  0.00     0.003 A 
HETATM   25  C   UNL     1       8.196  20.333  53.577  1.00  0.00     0.002 A 
HETATM   26  C   UNL     1       8.050  21.540  52.887  1.00  0.00     0.026 A 
BRANCH  22  27
HETATM   27  O   UNL     1       8.523  23.982  55.552  1.00  0.00    -0.354 OA
HETATM   28  C   UNL     1       8.673  23.921  56.966  1.00  0.00     0.210 C 
ENDBRANCH  22  27
ENDBRANCH  19  21
ENDBRANCH  18  19
ENDBRANCH   2  18
TORSDOF 6
ENDMDL
MODEL 5
REMARK VINA RESULT:      -8.5      4.311      7.704
REMARK  6 active torsions:
REMARK  status: ('A' for Active; 'I' for Inactive)
REMARK    1  A    between atoms: C_7  and  C_8 
REMARK    2  A    between atoms: N_9  and  N_10 
REMARK       I    between atoms: N_10  and  C_11 
REMARK    3  A    between atoms: C_11  and  C_12 
REMARK    4  A    between atoms: C_12  and  N_13 
REMARK    5  A    between atoms: N_13  and  C_14 
REMARK    6  A    between atoms: C_15  and  O_16 
ROOT
HETATM    1  N   UNL     1       5.812  26.419  53.330  1.00  0.00    -0.246 N 
HETATM    2  C   UNL     1       5.181  26.057  52.143  1.00  0.00     0.250 C 
HETATM    3  O   UNL     1       4.822  24.920  51.842  1.00  0.00    -0.270 OA
HETATM    4  H   UNL     1       5.787  27.410  53.572  1.00  0.00     0.192 HD
ENDROOT
BRANCH   1   5
HETATM    5  N   UNL     1       6.117  25.568  54.363  1.00  0.00    -0.184 NA
HETATM    6  C   UNL     1       7.326  25.103  54.410  1.00  0.00     0.153 C 
BRANCH   6   7
HETATM    7  C   UNL     1       7.731  24.185  55.460  1.00  0.00     0.018 A 
HETATM    8  C   UNL     1       8.014  24.483  56.786  1.00  0.00     0.018 A 
HETATM    9  C   UNL     1       7.982  25.770  57.530  1.00  0.00     0.069 C 
HETATM   10  N   UNL     1       8.364  23.311  57.411  1.00  0.00    -0.358 N 
HETATM   11  H   UNL     1       8.620  23.227  58.384  1.00  0.00     0.166 HD
HETATM   12  C   UNL     1       8.317  22.256  56.532  1.00  0.00     0.043 A 
HETATM   13  C   UNL     1       7.917  22.770  55.299  1.00  0.00     0.004 A 
HETATM   14  C   UNL     1       8.596  20.899  56.735  1.00  0.00     0.030 A 
HETATM   15  C   UNL     1       7.789  21.877  54.213  1.00  0.00     0.014 A 
HETATM   16  C   UNL     1       8.067  20.518  54.397  1.00  0.00     0.001 A 
HETATM   17  C   UNL     1       8.464  20.039  55.641  1.00  0.00     0.002 A 
ENDBRANCH   6   7
ENDBRANCH   1   5
BRANCH   2  18
HETATM   18  C   UNL     1       4.935  27.251  51.214  1.00  0.00     0.197 C 
BRANCH  18  19
HETATM   19  N   UNL     1       5.407  26.968  49.846  1.00  0.00    -0.282 NA
HETATM   20  H   UNL     1       5.931  26.085  49.810  1.00  0.00     0.128 HD
BRANCH  19  21
HETATM   21  C   UNL     1       4.381  26.838  48.875  1.00  0.00     0.042 A 
HETATM   22  C   UNL     1       3.924  27.999  48.213  1.00  0.00     0.089 A 
HETATM   23  C   UNL     1       2.910  27.921  47.255  1.00  0.00     0.038 A 
HETATM   24  C   UNL     1       2.299  26.695  46.993  1.00  0.00     0.003 A 
HETATM   25  C   UNL     1       2.695  25.554  47.689  1.00  0.00     0.002 A 
HETATM   26  C   UNL     1       3.724  25.627  48.632  1.00  0.00     0.026 A 
BRANCH  22  27
HETATM   27  O   UNL     1       4.595  29.164  48.509  1.00  0.00    -0.354 OA
HETATM   28  C   UNL     1       4.615  30.109  47.443  1.00  0.00     0.210 C 
ENDBRANCH  22  27
ENDBRANCH  19  21
ENDBRANCH  18  19
ENDBRANCH   2  18
TORSDOF 6
ENDMDL
MODEL 6
REMARK VINA RESULT:      -8.4      3.545      5.357
REMARK  6 active torsions:
REMARK  status: ('A' for Active; 'I' for Inactive)
REMARK    1  A    between atoms: C_7  and  C_8 
REMARK    2  A    between atoms: N_9  and  N_10 
REMARK       I    between atoms: N_10  and  C_11 
REMARK    3  A    between atoms: C_11  and  C_12 
REMARK    4  A    between atoms: C_12  and  N_13 
REMARK    5  A    between atoms: N_13  and  C_14 
REMARK    6  A    between atoms: C_15  and  O_16 
ROOT
HETATM    1  N   UNL     1       6.998  30.278  58.640  1.00  0.00    -0.246 N 
HETATM    2  C   UNL     1       7.901  30.590  59.653  1.00  0.00     0.250 C 
HETATM    3  O   UNL     1       9.031  30.117  59.775  1.00  0.00    -0.270 OA
HETATM    4  H   UNL     1       6.238  30.941  58.492  1.00  0.00     0.192 HD
ENDROOT
BRANCH   1   5
HETATM    5  N   UNL     1       7.231  29.407  57.604  1.00  0.00    -0.184 NA
HETATM    6  C   UNL     1       6.425  28.399  57.486  1.00  0.00     0.153 C 
BRANCH   6   7
HETATM    7  C   UNL     1       6.606  27.421  56.428  1.00  0.00     0.018 A 
HETATM    8  C   UNL     1       6.069  27.445  55.148  1.00  0.00     0.018 A 
HETATM    9  C   UNL     1       5.191  28.437  54.472  1.00  0.00     0.069 C 
HETATM   10  N   UNL     1       6.497  26.316  54.494  1.00  0.00    -0.358 N 
HETATM   11  H   UNL     1       6.261  26.071  53.543  1.00  0.00     0.166 HD
HETATM   12  C   UNL     1       7.298  25.554  55.310  1.00  0.00     0.043 A 
HETATM   13  C   UNL     1       7.393  26.223  56.530  1.00  0.00     0.004 A 
HETATM   14  C   UNL     1       7.941  24.335  55.061  1.00  0.00     0.030 A 
HETATM   15  C   UNL     1       8.172  25.641  57.553  1.00  0.00     0.014 A 
HETATM   16  C   UNL     1       8.818  24.422  57.323  1.00  0.00     0.001 A 
HETATM   17  C   UNL     1       8.703  23.780  56.093  1.00  0.00     0.002 A 
ENDBRANCH   6   7
ENDBRANCH   1   5
BRANCH   2  18
HETATM   18  C   UNL     1       7.358  31.638  60.630  1.00  0.00     0.197 C 
BRANCH  18  19
HETATM   19  N   UNL     1       7.066  31.040  61.946  1.00  0.00    -0.282 NA
HETATM   20  H   UNL     1       7.842  30.447  62.264  1.00  0.00     0.128 HD
BRANCH  19  21
HETATM   21  C   UNL     1       6.850  31.973  62.992  1.00  0.00     0.042 A 
HETATM   22  C   UNL     1       5.523  32.298  63.347  1.00  0.00     0.089 A 
HETATM   23  C   UNL     1       5.262  33.218  64.365  1.00  0.00     0.038 A 
HETATM   24  C   UNL     1       6.321  33.870  64.998  1.00  0.00     0.003 A 
HETATM   25  C   UNL     1       7.633  33.607  64.609  1.00  0.00     0.002 A 
HETATM   26  C   UNL     1       7.896  32.671  63.605  1.00  0.00     0.026 A 
BRANCH  22  27
HETATM   27  O   UNL     1       4.535  31.594  62.695  1.00  0.00    -0.354 OA
HETATM   28  C   UNL     1       3.671  32.403  61.904  1.00  0.00     0.210 C 
ENDBRANCH  22  27
ENDBRANCH  19  21
ENDBRANCH  18  19
ENDBRANCH   2  18
TORSDOF 6
ENDMDL
MODEL 7
REMARK VINA RESULT:      -8.3      2.278      3.649
REMARK  6 active torsions:
REMARK  status: ('A' for Active; 'I' for Inactive)
REMARK    1  A    between atoms: C_7  and  C_8 
REMARK    2  A    between atoms: N_9  and  N_10 
REMARK       I    between atoms: N_10  and  C_11 
REMARK    3  A    between atoms: C_11  and  C_12 
REMARK    4  A    between atoms: C_12  and  N_13 
REMARK    5  A    between atoms: N_13  and  C_14 
REMARK    6  A    between atoms: C_15  and  O_16 
ROOT
HETATM    1  N   UNL     1       7.282  29.074  57.696  1.00  0.00    -0.246 N 
HETATM    2  C   UNL     1       6.481  30.099  57.198  1.00  0.00     0.250 C 
HETATM    3  O   UNL     1       6.150  30.241  56.021  1.00  0.00    -0.270 OA
HETATM    4  H   UNL     1       7.234  28.911  58.701  1.00  0.00     0.192 HD
ENDROOT
BRANCH   1   5
HETATM    5  N   UNL     1       7.814  28.048  56.956  1.00  0.00    -0.184 NA
HETATM    6  C   UNL     1       7.069  27.002  56.775  1.00  0.00     0.153 C 
BRANCH   6   7
HETATM    7  C   UNL     1       7.557  25.863  56.017  1.00  0.00     0.018 A 
HETATM    8  C   UNL     1       8.261  24.765  56.494  1.00  0.00     0.018 A 
HETATM    9  C   UNL     1       8.708  24.408  57.865  1.00  0.00     0.069 C 
HETATM   10  N   UNL     1       8.524  23.942  55.425  1.00  0.00    -0.358 N 
HETATM   11  H   UNL     1       9.023  23.066  55.477  1.00  0.00     0.166 HD
HETATM   12  C   UNL     1       8.011  24.471  54.265  1.00  0.00     0.043 A 
HETATM   13  C   UNL     1       7.392  25.674  54.603  1.00  0.00     0.004 A 
HETATM   14  C   UNL     1       8.049  23.978  52.954  1.00  0.00     0.030 A 
HETATM   15  C   UNL     1       6.779  26.422  53.575  1.00  0.00     0.014 A 
HETATM   16  C   UNL     1       6.810  25.947  52.259  1.00  0.00     0.001 A 
HETATM   17  C   UNL     1       7.437  24.742  51.956  1.00  0.00     0.002 A 
ENDBRANCH   6   7
ENDBRANCH   1   5
BRANCH   2  18
HETATM   18  C   UNL     1       6.001  31.061  58.290  1.00  0.00     0.197 C 
BRANCH  18  19
HETATM   19  N   UNL     1       7.002  32.112  58.552  1.00  0.00    -0.282 NA
HETATM   20  H   UNL     1       6.576  33.046  58.519  1.00  0.00     0.128 HD
BRANCH  19  21
HETATM   21  C   UNL     1       7.637  32.031  59.817  1.00  0.00     0.042 A 
HETATM   22  C   UNL     1       9.048  32.058  59.871  1.00  0.00     0.089 A 
HETATM   23  C   UNL     1       9.717  31.972  61.094  1.00  0.00     0.038 A 
HETATM   24  C   UNL     1       8.989  31.795  62.270  1.00  0.00     0.003 A 
HETATM   25  C   UNL     1       7.600  31.699  62.223  1.00  0.00     0.002 A 
HETATM   26  C   UNL     1       6.928  31.806  61.002  1.00  0.00     0.026 A 
BRANCH  22  27
HETATM   27  O   UNL     1       9.692  32.261  58.670  1.00  0.00    -0.354 OA
HETATM   28  C   UNL     1      10.299  31.090  58.133  1.00  0.00     0.210 C 
ENDBRANCH  22  27
ENDBRANCH  19  21
ENDBRANCH  18  19
ENDBRANCH   2  18
TORSDOF 6
ENDMDL
MODEL 8
REMARK VINA RESULT:      -8.2      4.015      6.869
REMARK  6 active torsions:
REMARK  status: ('A' for Active; 'I' for Inactive)
REMARK    1  A    between atoms: C_7  and  C_8 
REMARK    2  A    between atoms: N_9  and  N_10 
REMARK       I    between atoms: N_10  and  C_11 
REMARK    3  A    between atoms: C_11  and  C_12 
REMARK    4  A    between atoms: C_12  and  N_13 
REMARK    5  A    between atoms: N_13  and  C_14 
REMARK    6  A    between atoms: C_15  and  O_16 
ROOT
HETATM    1  N   UNL     1       4.861  26.177  53.299  1.00  0.00    -0.246 N 
HETATM    2  C   UNL     1       4.581  27.505  53.611  1.00  0.00     0.250 C 
HETATM    3  O   UNL     1       4.727  28.027  54.716  1.00  0.00    -0.270 OA
HETATM    4  H   UNL     1       4.975  25.960  52.309  1.00  0.00     0.192 HD
ENDROOT
BRANCH   1   5
HETATM    5  N   UNL     1       5.364  25.243  54.170  1.00  0.00    -0.184 NA
HETATM    6  C   UNL     1       6.632  24.983  54.091  1.00  0.00     0.153 C 
BRANCH   6   7
HETATM    7  C   UNL     1       7.246  23.998  54.964  1.00  0.00     0.018 A 
HETATM    8  C   UNL     1       7.535  24.124  56.316  1.00  0.00     0.018 A 
HETATM    9  C   UNL     1       7.308  25.244  57.266  1.00  0.00     0.069 C 
HETATM   10  N   UNL     1       8.120  22.952  56.729  1.00  0.00    -0.358 N 
HETATM   11  H   UNL     1       8.434  22.759  57.669  1.00  0.00     0.166 HD
HETATM   12  C   UNL     1       8.220  22.063  55.685  1.00  0.00     0.043 A 
HETATM   13  C   UNL     1       7.675  22.686  54.564  1.00  0.00     0.004 A 
HETATM   14  C   UNL     1       8.748  20.766  55.652  1.00  0.00     0.030 A 
HETATM   15  C   UNL     1       7.657  21.974  53.346  1.00  0.00     0.014 A 
HETATM   16  C   UNL     1       8.183  20.678  53.293  1.00  0.00     0.001 A 
HETATM   17  C   UNL     1       8.720  20.085  54.431  1.00  0.00     0.002 A 
ENDBRANCH   6   7
ENDBRANCH   1   5
BRANCH   2  18
HETATM   18  C   UNL     1       4.081  28.305  52.404  1.00  0.00     0.197 C 
BRANCH  18  19
HETATM   19  N   UNL     1       3.886  27.433  51.230  1.00  0.00    -0.282 NA
HETATM   20  H   UNL     1       2.905  27.143  51.143  1.00  0.00     0.128 HD
BRANCH  19  21
HETATM   21  C   UNL     1       4.217  28.026  49.984  1.00  0.00     0.042 A 
HETATM   22  C   UNL     1       4.297  27.200  48.842  1.00  0.00     0.089 A 
HETATM   23  C   UNL     1       4.628  27.737  47.595  1.00  0.00     0.038 A 
HETATM   24  C   UNL     1       4.942  29.091  47.487  1.00  0.00     0.003 A 
HETATM   25  C   UNL     1       4.932  29.903  48.620  1.00  0.00     0.002 A 
HETATM   26  C   UNL     1       4.582  29.371  49.864  1.00  0.00     0.026 A 
BRANCH  22  27
HETATM   27  O   UNL     1       3.947  25.880  49.027  1.00  0.00    -0.354 OA
HETATM   28  C   UNL     1       3.073  25.366  48.027  1.00  0.00     0.210 C 
ENDBRANCH  22  27
ENDBRANCH  19  21
ENDBRANCH  18  19
ENDBRANCH   2  18
TORSDOF 6
ENDMDL
MODEL 9
REMARK VINA RESULT:      -8.1      9.017     12.913
REMARK  6 active torsions:
REMARK  status: ('A' for Active; 'I' for Inactive)
REMARK    1  A    between atoms: C_7  and  C_8 
REMARK    2  A    between atoms: N_9  and  N_10 
REMARK       I    between atoms: N_10  and  C_11 
REMARK    3  A    between atoms: C_11  and  C_12 
REMARK    4  A    between atoms: C_12  and  N_13 
REMARK    5  A    between atoms: N_13  and  C_14 
REMARK    6  A    between atoms: C_15  and  O_16 
ROOT
HETATM    1  N   UNL     1       5.864  33.558  66.127  1.00  0.00    -0.246 N 
HETATM    2  C   UNL     1       4.735  34.121  66.716  1.00  0.00     0.250 C 
HETATM    3  O   UNL     1       3.878  34.782  66.132  1.00  0.00    -0.270 OA
HETATM    4  H   UNL     1       6.320  32.808  66.648  1.00  0.00     0.192 HD
ENDROOT
BRANCH   1   5
HETATM    5  N   UNL     1       6.190  33.633  64.796  1.00  0.00    -0.184 NA
HETATM    6  C   UNL     1       5.691  32.728  64.013  1.00  0.00     0.153 C 
BRANCH   6   7
HETATM    7  C   UNL     1       5.994  32.722  62.593  1.00  0.00     0.018 A 
HETATM    8  C   UNL     1       5.134  33.004  61.539  1.00  0.00     0.018 A 
HETATM    9  C   UNL     1       3.701  33.399  61.524  1.00  0.00     0.069 C 
HETATM   10  N   UNL     1       5.845  32.868  60.372  1.00  0.00    -0.358 N 
HETATM   11  H   UNL     1       5.472  33.014  59.445  1.00  0.00     0.166 HD
HETATM   12  C   UNL     1       7.145  32.505  60.633  1.00  0.00     0.043 A 
HETATM   13  C   UNL     1       7.273  32.412  62.018  1.00  0.00     0.004 A 
HETATM   14  C   UNL     1       8.206  32.255  59.753  1.00  0.00     0.030 A 
HETATM   15  C   UNL     1       8.530  32.050  62.549  1.00  0.00     0.014 A 
HETATM   16  C   UNL     1       9.600  31.794  61.685  1.00  0.00     0.001 A 
HETATM   17  C   UNL     1       9.438  31.896  60.307  1.00  0.00     0.002 A 
ENDBRANCH   6   7
ENDBRANCH   1   5
BRANCH   2  18
HETATM   18  C   UNL     1       4.631  33.811  68.214  1.00  0.00     0.197 C 
BRANCH  18  19
HETATM   19  N   UNL     1       5.052  34.967  69.028  1.00  0.00    -0.282 NA
HETATM   20  H   UNL     1       4.361  35.177  69.759  1.00  0.00     0.128 HD
BRANCH  19  21
HETATM   21  C   UNL     1       6.284  34.801  69.710  1.00  0.00     0.042 A 
HETATM   22  C   UNL     1       6.267  34.653  71.114  1.00  0.00     0.089 A 
HETATM   23  C   UNL     1       7.456  34.495  71.829  1.00  0.00     0.038 A 
HETATM   24  C   UNL     1       8.679  34.544  71.159  1.00  0.00     0.003 A 
HETATM   25  C   UNL     1       8.711  34.757  69.782  1.00  0.00     0.002 A 
HETATM   26  C   UNL     1       7.521  34.895  69.063  1.00  0.00     0.026 A 
BRANCH  22  27
HETATM   27  O   UNL     1       5.021  34.589  71.697  1.00  0.00    -0.354 OA
HETATM   28  C   UNL     1       4.966  35.136  73.011  1.00  0.00     0.210 C 
ENDBRANCH  22  27
ENDBRANCH  19  21
ENDBRANCH  18  19
ENDBRANCH   2  18
TORSDOF 6
ENDMDL
MODEL 10
REMARK VINA RESULT:      -8.0      2.194      3.186
REMARK  6 active torsions:
REMARK  status: ('A' for Active; 'I' for Inactive)
REMARK    1  A    between atoms: C_7  and  C_8 
REMARK    2  A    between atoms: N_9  and  N_10 
REMARK       I    between atoms: N_10  and  C_11 
REMARK    3  A    between atoms: C_11  and  C_12 
REMARK    4  A    between atoms: C_12  and  N_13 
REMARK    5  A    between atoms: N_13  and  C_14 
REMARK    6  A    between atoms: C_15  and  O_16 
ROOT
HETATM    1  N   UNL     1       6.005  29.448  57.801  1.00  0.00    -0.246 N 
HETATM    2  C   UNL     1       5.528  30.702  57.428  1.00  0.00     0.250 C 
HETATM    3  O   UNL     1       5.103  31.004  56.314  1.00  0.00    -0.270 OA
HETATM    4  H   UNL     1       6.046  29.260  58.803  1.00  0.00     0.192 HD
ENDROOT
BRANCH   1   5
HETATM    5  N   UNL     1       6.058  28.342  56.990  1.00  0.00    -0.184 NA
HETATM    6  C   UNL     1       7.186  28.095  56.401  1.00  0.00     0.153 C 
BRANCH   6   7
HETATM    7  C   UNL     1       7.329  26.954  55.514  1.00  0.00     0.018 A 
HETATM    8  C   UNL     1       7.060  26.898  54.153  1.00  0.00     0.018 A 
HETATM    9  C   UNL     1       6.580  27.937  53.205  1.00  0.00     0.069 C 
HETATM   10  N   UNL     1       7.328  25.619  53.727  1.00  0.00    -0.358 N 
HETATM   11  H   UNL     1       7.223  25.290  52.779  1.00  0.00     0.166 HD
HETATM   12  C   UNL     1       7.763  24.839  54.772  1.00  0.00     0.043 A 
HETATM   13  C   UNL     1       7.781  25.648  55.907  1.00  0.00     0.004 A 
HETATM   14  C   UNL     1       8.139  23.490  54.794  1.00  0.00     0.030 A 
HETATM   15  C   UNL     1       8.198  25.077  57.128  1.00  0.00     0.014 A 
HETATM   16  C   UNL     1       8.573  23.729  57.171  1.00  0.00     0.001 A 
HETATM   17  C   UNL     1       8.544  22.949  56.019  1.00  0.00     0.002 A 
ENDBRANCH   6   7
ENDBRANCH   1   5
BRANCH   2  18
HETATM   18  C   UNL     1       5.551  31.713  58.580  1.00  0.00     0.197 C 
BRANCH  18  19
HETATM   19  N   UNL     1       6.871  32.361  58.694  1.00  0.00    -0.282 NA
HETATM   20  H   UNL     1       6.800  33.376  58.549  1.00  0.00     0.128 HD
BRANCH  19  21
HETATM   21  C   UNL     1       7.508  32.204  59.952  1.00  0.00     0.042 A 
HETATM   22  C   UNL     1       8.918  32.133  59.994  1.00  0.00     0.089 A 
HETATM   23  C   UNL     1       9.588  31.970  61.208  1.00  0.00     0.038 A 
HETATM   24  C   UNL     1       8.857  31.813  62.386  1.00  0.00     0.003 A 
HETATM   25  C   UNL     1       7.464  31.814  62.349  1.00  0.00     0.002 A 
HETATM   26  C   UNL     1       6.793  31.998  61.136  1.00  0.00     0.026 A 
BRANCH  22  27
HETATM   27  O   UNL     1       9.566  32.321  58.793  1.00  0.00    -0.354 OA
HETATM   28  C   UNL     1      10.149  31.138  58.256  1.00  0.00     0.210 C 
ENDBRANCH  22  27
ENDBRANCH  19  21
ENDBRANCH  18  19
ENDBRANCH   2  18
TORSDOF 6
ENDMDL
