MODEL 1
REMARK VINA RESULT:      -8.4      0.000      0.000
REMARK  7 active torsions:
REMARK  status: ('A' for Active; 'I' for Inactive)
REMARK    1  A    between atoms: O_2  and  C_3 
REMARK    2  A    between atoms: C_4  and  C_5 
REMARK    3  A    between atoms: C_5  and  N_6 
REMARK    4  A    between atoms: N_6  and  C_7 
REMARK    5  A    between atoms: C_9  and  N_10 
REMARK    6  A    between atoms: N_10  and  C_11 
REMARK    7  A    between atoms: C_11  and  C_12 
ROOT
HETATM    1  C   UNL     1       7.665  26.206  56.765  1.00  0.00     0.181 A 
HETATM    2  N   UNL     1       8.193  27.037  57.669  1.00  0.00    -0.207 NA
HETATM    3  C   UNL     1       7.560  28.211  57.854  1.00  0.00     0.119 A 
HETATM    4  C   UNL     1       6.354  28.539  57.196  1.00  0.00     0.031 A 
HETATM    5  C   UNL     1       5.869  27.593  56.271  1.00  0.00     0.048 A 
HETATM    6  N   UNL     1       6.554  26.461  56.088  1.00  0.00    -0.330 N 
HETATM    7  H   UNL     1       6.253  25.740  55.446  1.00  0.00     0.168 HD
HETATM    8  C   UNL     1       5.583  29.705  57.405  1.00  0.00     0.017 A 
HETATM    9  C   UNL     1       4.404  29.928  56.690  1.00  0.00     0.001 A 
HETATM   10  C   UNL     1       3.959  28.992  55.761  1.00  0.00     0.002 A 
HETATM   11  C   UNL     1       4.686  27.821  55.554  1.00  0.00     0.030 A 
ENDROOT
BRANCH   1  12
HETATM   12  N   UNL     1       8.270  24.985  56.474  1.00  0.00    -0.258 NA
HETATM   13  H   UNL     1       8.617  25.084  55.514  1.00  0.00     0.130 HD
BRANCH  12  14
HETATM   14  C   UNL     1       7.226  23.942  56.354  1.00  0.00     0.136 C 
BRANCH  14  15
HETATM   15  C   UNL     1       7.589  22.934  55.285  1.00  0.00    -0.012 A 
HETATM   16  C   UNL     1       7.695  23.336  53.937  1.00  0.00     0.075 A 
HETATM   17  C   UNL     1       7.925  22.378  52.944  1.00  0.00     0.037 A 
HETATM   18  C   UNL     1       8.049  21.028  53.274  1.00  0.00     0.003 A 
HETATM   19  C   UNL     1       7.943  20.622  54.599  1.00  0.00     0.001 A 
HETATM   20  C   UNL     1       7.708  21.566  55.596  1.00  0.00     0.011 A 
BRANCH  16  21
HETATM   21  O   UNL     1       7.535  24.676  53.699  1.00  0.00    -0.355 OA
HETATM   22  C   UNL     1       7.905  25.157  52.409  1.00  0.00     0.210 C 
ENDBRANCH  16  21
ENDBRANCH  14  15
ENDBRANCH  12  14
ENDBRANCH   1  12
BRANCH   3  23
HETATM   23  N   UNL     1       8.203  29.070  58.747  1.00  0.00    -0.273 NA
HETATM   24  H   UNL     1       8.959  28.521  59.160  1.00  0.00     0.129 HD
BRANCH  23  25
HETATM   25  C   UNL     1       8.764  30.271  58.125  1.00  0.00     0.120 C 
BRANCH  25  26
HETATM   26  C   UNL     1      10.186  29.975  57.755  1.00  0.00    -0.022 C 
HETATM   27  C   UNL     1      10.613  29.703  56.515  1.00  0.00     0.008 C 
ENDBRANCH  25  26
ENDBRANCH  23  25
ENDBRANCH   3  23
TORSDOF 7
ENDMDL
MODEL 2
REMARK VINA RESULT:      -8.3      2.340      7.011
REMARK  7 active torsions:
REMARK  status: ('A' for Active; 'I' for Inactive)
REMARK    1  A    between atoms: O_2  and  C_3 
REMARK    2  A    between atoms: C_4  and  C_5 
REMARK    3  A    between atoms: C_5  and  N_6 
REMARK    4  A    between atoms: N_6  and  C_7 
REMARK    5  A    between atoms: C_9  and  N_10 
REMARK    6  A    between atoms: N_10  and  C_11 
REMARK    7  A    between atoms: C_11  and  C_12 
ROOT
HETATM    1  C   UNL     1       7.629  26.022  56.990  1.00  0.00     0.181 A 
HETATM    2  N   UNL     1       8.389  24.939  56.804  1.00  0.00    -0.207 NA
HETATM    3  C   UNL     1       8.126  24.194  55.714  1.00  0.00     0.119 A 
HETATM    4  C   UNL     1       7.153  24.560  54.758  1.00  0.00     0.031 A 
HETATM    5  C   UNL     1       6.412  25.725  55.034  1.00  0.00     0.048 A 
HETATM    6  N   UNL     1       6.678  26.409  56.150  1.00  0.00    -0.330 N 
HETATM    7  H   UNL     1       6.186  27.256  56.400  1.00  0.00     0.168 HD
HETATM    8  C   UNL     1       6.884  23.884  53.545  1.00  0.00     0.017 A 
HETATM    9  C   UNL     1       5.890  24.335  52.673  1.00  0.00     0.001 A 
HETATM   10  C   UNL     1       5.151  25.473  52.982  1.00  0.00     0.002 A 
HETATM   11  C   UNL     1       5.414  26.174  54.158  1.00  0.00     0.030 A 
ENDROOT
BRANCH   1  12
HETATM   12  N   UNL     1       7.798  26.834  58.109  1.00  0.00    -0.258 NA
HETATM   13  H   UNL     1       7.056  26.547  58.758  1.00  0.00     0.130 HD
BRANCH  12  14
HETATM   14  C   UNL     1       7.427  28.224  57.762  1.00  0.00     0.136 C 
BRANCH  14  15
HETATM   15  C   UNL     1       8.642  29.127  57.772  1.00  0.00    -0.012 A 
HETATM   16  C   UNL     1       8.644  30.305  58.549  1.00  0.00     0.075 A 
HETATM   17  C   UNL     1       9.728  31.186  58.470  1.00  0.00     0.037 A 
HETATM   18  C   UNL     1      10.806  30.912  57.628  1.00  0.00     0.003 A 
HETATM   19  C   UNL     1      10.812  29.756  56.857  1.00  0.00     0.001 A 
HETATM   20  C   UNL     1       9.736  28.873  56.923  1.00  0.00     0.011 A 
BRANCH  16  21
HETATM   21  O   UNL     1       7.535  30.509  59.328  1.00  0.00    -0.355 OA
HETATM   22  C   UNL     1       6.950  31.808  59.301  1.00  0.00     0.210 C 
ENDBRANCH  16  21
ENDBRANCH  14  15
ENDBRANCH  12  14
ENDBRANCH   1  12
BRANCH   3  23
HETATM   23  N   UNL     1       8.896  23.033  55.618  1.00  0.00    -0.273 NA
HETATM   24  H   UNL     1       9.848  23.315  55.855  1.00  0.00     0.129 HD
BRANCH  23  25
HETATM   25  C   UNL     1       8.474  21.958  56.518  1.00  0.00     0.120 C 
BRANCH  25  26
HETATM   26  C   UNL     1       7.702  20.960  55.710  1.00  0.00    -0.022 C 
HETATM   27  C   UNL     1       8.100  20.458  54.533  1.00  0.00     0.008 C 
ENDBRANCH  25  26
ENDBRANCH  23  25
ENDBRANCH   3  23
TORSDOF 7
ENDMDL
MODEL 3
REMARK VINA RESULT:      -8.2      1.922      7.047
REMARK  7 active torsions:
REMARK  status: ('A' for Active; 'I' for Inactive)
REMARK    1  A    between atoms: O_2  and  C_3 
REMARK    2  A    between atoms: C_4  and  C_5 
REMARK    3  A    between atoms: C_5  and  N_6 
REMARK    4  A    between atoms: N_6  and  C_7 
REMARK    5  A    between atoms: C_9  and  N_10 
REMARK    6  A    between atoms: N_10  and  C_11 
REMARK    7  A    between atoms: C_11  and  C_12 
ROOT
HETATM    1  C   UNL     1       8.153  24.774  55.845  1.00  0.00     0.181 A 
HETATM    2  N   UNL     1       7.916  25.196  54.600  1.00  0.00    -0.207 NA
HETATM    3  C   UNL     1       7.892  24.256  53.636  1.00  0.00     0.119 A 
HETATM    4  C   UNL     1       8.029  22.877  53.913  1.00  0.00     0.031 A 
HETATM    5  C   UNL     1       8.262  22.530  55.258  1.00  0.00     0.048 A 
HETATM    6  N   UNL     1       8.322  23.500  56.174  1.00  0.00    -0.330 N 
HETATM    7  H   UNL     1       8.478  23.314  57.155  1.00  0.00     0.168 HD
HETATM    8  C   UNL     1       7.922  21.826  52.973  1.00  0.00     0.017 A 
HETATM    9  C   UNL     1       8.082  20.493  53.361  1.00  0.00     0.001 A 
HETATM   10  C   UNL     1       8.340  20.176  54.691  1.00  0.00     0.002 A 
HETATM   11  C   UNL     1       8.424  21.191  55.643  1.00  0.00     0.030 A 
ENDROOT
BRANCH   1  12
HETATM   12  N   UNL     1       8.237  25.675  56.904  1.00  0.00    -0.258 NA
HETATM   13  H   UNL     1       8.785  25.188  57.622  1.00  0.00     0.130 HD
BRANCH  12  14
HETATM   14  C   UNL     1       6.903  25.816  57.530  1.00  0.00     0.136 C 
BRANCH  14  15
HETATM   15  C   UNL     1       6.210  27.072  57.049  1.00  0.00    -0.012 A 
HETATM   16  C   UNL     1       6.680  28.340  57.450  1.00  0.00     0.075 A 
HETATM   17  C   UNL     1       5.970  29.490  57.088  1.00  0.00     0.037 A 
HETATM   18  C   UNL     1       4.799  29.394  56.336  1.00  0.00     0.003 A 
HETATM   19  C   UNL     1       4.326  28.149  55.939  1.00  0.00     0.001 A 
HETATM   20  C   UNL     1       5.021  26.996  56.298  1.00  0.00     0.011 A 
BRANCH  16  21
HETATM   21  O   UNL     1       7.823  28.342  58.208  1.00  0.00    -0.355 OA
HETATM   22  C   UNL     1       8.322  29.608  58.631  1.00  0.00     0.210 C 
ENDBRANCH  16  21
ENDBRANCH  14  15
ENDBRANCH  12  14
ENDBRANCH   1  12
BRANCH   3  23
HETATM   23  N   UNL     1       7.724  24.765  52.347  1.00  0.00    -0.273 NA
HETATM   24  H   UNL     1       7.373  23.986  51.788  1.00  0.00     0.129 HD
BRANCH  23  25
HETATM   25  C   UNL     1       6.782  25.882  52.262  1.00  0.00     0.120 C 
BRANCH  25  26
HETATM   26  C   UNL     1       5.417  25.313  52.019  1.00  0.00    -0.022 C 
HETATM   27  C   UNL     1       4.568  24.925  52.980  1.00  0.00     0.008 C 
ENDBRANCH  25  26
ENDBRANCH  23  25
ENDBRANCH   3  23
TORSDOF 7
ENDMDL
MODEL 4
REMARK VINA RESULT:      -8.2      2.375      7.249
REMARK  7 active torsions:
REMARK  status: ('A' for Active; 'I' for Inactive)
REMARK    1  A    between atoms: O_2  and  C_3 
REMARK    2  A    between atoms: C_4  and  C_5 
REMARK    3  A    between atoms: C_5  and  N_6 
REMARK    4  A    between atoms: N_6  and  C_7 
REMARK    5  A    between atoms: C_9  and  N_10 
REMARK    6  A    between atoms: N_10  and  C_11 
REMARK    7  A    between atoms: C_11  and  C_12 
ROOT
HETATM    1  C   UNL     1       7.816  25.919  56.992  1.00  0.00     0.181 A 
HETATM    2  N   UNL     1       7.533  26.363  55.764  1.00  0.00    -0.207 NA
HETATM    3  C   UNL     1       7.537  25.450  54.774  1.00  0.00     0.119 A 
HETATM    4  C   UNL     1       7.748  24.073  55.008  1.00  0.00     0.031 A 
HETATM    5  C   UNL     1       8.026  23.701  56.338  1.00  0.00     0.048 A 
HETATM    6  N   UNL     1       8.055  24.647  57.280  1.00  0.00    -0.330 N 
HETATM    7  H   UNL     1       8.240  24.442  58.253  1.00  0.00     0.168 HD
HETATM    8  C   UNL     1       7.675  23.045  54.041  1.00  0.00     0.017 A 
HETATM    9  C   UNL     1       7.910  21.712  54.387  1.00  0.00     0.001 A 
HETATM   10  C   UNL     1       8.210  21.371  55.702  1.00  0.00     0.002 A 
HETATM   11  C   UNL     1       8.262  22.362  56.681  1.00  0.00     0.030 A 
ENDROOT
BRANCH   1  12
HETATM   12  N   UNL     1       7.876  26.794  58.075  1.00  0.00    -0.258 NA
HETATM   13  H   UNL     1       7.102  26.510  58.686  1.00  0.00     0.130 HD
BRANCH  12  14
HETATM   14  C   UNL     1       7.479  28.148  57.629  1.00  0.00     0.136 C 
BRANCH  14  15
HETATM   15  C   UNL     1       8.644  29.110  57.718  1.00  0.00    -0.012 A 
HETATM   16  C   UNL     1       8.527  30.298  58.469  1.00  0.00     0.075 A 
HETATM   17  C   UNL     1       9.569  31.232  58.459  1.00  0.00     0.037 A 
HETATM   18  C   UNL     1      10.722  30.999  57.709  1.00  0.00     0.003 A 
HETATM   19  C   UNL     1      10.846  29.833  56.963  1.00  0.00     0.001 A 
HETATM   20  C   UNL     1       9.812  28.899  56.962  1.00  0.00     0.011 A 
BRANCH  16  21
HETATM   21  O   UNL     1       7.350  30.459  59.155  1.00  0.00    -0.355 OA
HETATM   22  C   UNL     1       7.014  31.779  59.572  1.00  0.00     0.210 C 
ENDBRANCH  16  21
ENDBRANCH  14  15
ENDBRANCH  12  14
ENDBRANCH   1  12
BRANCH   3  23
HETATM   23  N   UNL     1       7.317  25.986  53.504  1.00  0.00    -0.273 NA
HETATM   24  H   UNL     1       7.363  25.194  52.860  1.00  0.00     0.129 HD
BRANCH  23  25
HETATM   25  C   UNL     1       6.024  26.656  53.351  1.00  0.00     0.120 C 
BRANCH  25  26
HETATM   26  C   UNL     1       4.987  25.601  53.109  1.00  0.00    -0.022 C 
HETATM   27  C   UNL     1       4.989  24.750  52.075  1.00  0.00     0.008 C 
ENDBRANCH  25  26
ENDBRANCH  23  25
ENDBRANCH   3  23
TORSDOF 7
ENDMDL
MODEL 5
REMARK VINA RESULT:      -8.0      1.697      7.128
REMARK  7 active torsions:
REMARK  status: ('A' for Active; 'I' for Inactive)
REMARK    1  A    between atoms: O_2  and  C_3 
REMARK    2  A    between atoms: C_4  and  C_5 
REMARK    3  A    between atoms: C_5  and  N_6 
REMARK    4  A    between atoms: N_6  and  C_7 
REMARK    5  A    between atoms: C_9  and  N_10 
REMARK    6  A    between atoms: N_10  and  C_11 
REMARK    7  A    between atoms: C_11  and  C_12 
ROOT
HETATM    1  C   UNL     1       7.935  25.012  56.778  1.00  0.00     0.181 A 
HETATM    2  N   UNL     1       7.832  25.263  55.469  1.00  0.00    -0.207 NA
HETATM    3  C   UNL     1       7.934  24.207  54.641  1.00  0.00     0.119 A 
HETATM    4  C   UNL     1       8.063  22.880  55.109  1.00  0.00     0.031 A 
HETATM    5  C   UNL     1       8.150  22.716  56.506  1.00  0.00     0.048 A 
HETATM    6  N   UNL     1       8.089  23.797  57.287  1.00  0.00    -0.330 N 
HETATM    7  H   UNL     1       8.137  23.744  58.295  1.00  0.00     0.168 HD
HETATM    8  C   UNL     1       8.081  21.714  54.310  1.00  0.00     0.017 A 
HETATM    9  C   UNL     1       8.221  20.448  54.884  1.00  0.00     0.001 A 
HETATM   10  C   UNL     1       8.333  20.313  56.264  1.00  0.00     0.002 A 
HETATM   11  C   UNL     1       8.291  21.444  57.078  1.00  0.00     0.030 A 
ENDROOT
BRANCH   1  12
HETATM   12  N   UNL     1       7.883  26.044  57.712  1.00  0.00    -0.258 NA
HETATM   13  H   UNL     1       6.884  26.248  57.825  1.00  0.00     0.130 HD
BRANCH  12  14
HETATM   14  C   UNL     1       8.416  27.282  57.100  1.00  0.00     0.136 C 
BRANCH  14  15
HETATM   15  C   UNL     1       7.650  28.496  57.579  1.00  0.00    -0.012 A 
HETATM   16  C   UNL     1       6.308  28.688  57.190  1.00  0.00     0.075 A 
HETATM   17  C   UNL     1       5.642  29.865  57.549  1.00  0.00     0.037 A 
HETATM   18  C   UNL     1       6.295  30.852  58.288  1.00  0.00     0.003 A 
HETATM   19  C   UNL     1       7.619  30.674  58.674  1.00  0.00     0.001 A 
HETATM   20  C   UNL     1       8.293  29.508  58.317  1.00  0.00     0.011 A 
BRANCH  16  21
HETATM   21  O   UNL     1       5.752  27.681  56.444  1.00  0.00    -0.355 OA
HETATM   22  C   UNL     1       5.219  28.031  55.170  1.00  0.00     0.210 C 
ENDBRANCH  16  21
ENDBRANCH  14  15
ENDBRANCH  12  14
ENDBRANCH   1  12
BRANCH   3  23
HETATM   23  N   UNL     1       7.902  24.540  53.285  1.00  0.00    -0.273 NA
HETATM   24  H   UNL     1       7.301  23.842  52.845  1.00  0.00     0.129 HD
BRANCH  23  25
HETATM   25  C   UNL     1       7.372  25.877  53.009  1.00  0.00     0.120 C 
BRANCH  25  26
HETATM   26  C   UNL     1       6.154  25.718  52.150  1.00  0.00    -0.022 C 
HETATM   27  C   UNL     1       5.156  24.858  52.390  1.00  0.00     0.008 C 
ENDBRANCH  25  26
ENDBRANCH  23  25
ENDBRANCH   3  23
TORSDOF 7
ENDMDL
MODEL 6
REMARK VINA RESULT:      -7.8      3.205      6.989
REMARK  7 active torsions:
REMARK  status: ('A' for Active; 'I' for Inactive)
REMARK    1  A    between atoms: O_2  and  C_3 
REMARK    2  A    between atoms: C_4  and  C_5 
REMARK    3  A    between atoms: C_5  and  N_6 
REMARK    4  A    between atoms: N_6  and  C_7 
REMARK    5  A    between atoms: C_9  and  N_10 
REMARK    6  A    between atoms: N_10  and  C_11 
REMARK    7  A    between atoms: C_11  and  C_12 
ROOT
HETATM    1  C   UNL     1       6.212  24.590  53.226  1.00  0.00     0.181 A 
HETATM    2  N   UNL     1       7.010  23.537  53.028  1.00  0.00    -0.207 NA
HETATM    3  C   UNL     1       7.921  23.279  53.985  1.00  0.00     0.119 A 
HETATM    4  C   UNL     1       7.997  24.022  55.184  1.00  0.00     0.031 A 
HETATM    5  C   UNL     1       7.105  25.105  55.307  1.00  0.00     0.048 A 
HETATM    6  N   UNL     1       6.248  25.349  54.313  1.00  0.00    -0.330 N 
HETATM    7  H   UNL     1       5.577  26.106  54.345  1.00  0.00     0.168 HD
HETATM    8  C   UNL     1       8.860  23.757  56.273  1.00  0.00     0.017 A 
HETATM    9  C   UNL     1       8.853  24.565  57.412  1.00  0.00     0.001 A 
HETATM   10  C   UNL     1       7.982  25.647  57.499  1.00  0.00     0.002 A 
HETATM   11  C   UNL     1       7.102  25.915  56.451  1.00  0.00     0.030 A 
ENDROOT
BRANCH   1  12
HETATM   12  N   UNL     1       5.264  24.961  52.275  1.00  0.00    -0.258 NA
HETATM   13  H   UNL     1       5.063  24.100  51.753  1.00  0.00     0.130 HD
BRANCH  12  14
HETATM   14  C   UNL     1       5.904  25.832  51.264  1.00  0.00     0.136 C 
BRANCH  14  15
HETATM   15  C   UNL     1       4.939  26.887  50.769  1.00  0.00    -0.012 A 
HETATM   16  C   UNL     1       4.457  27.877  51.651  1.00  0.00     0.075 A 
HETATM   17  C   UNL     1       3.484  28.783  51.213  1.00  0.00     0.037 A 
HETATM   18  C   UNL     1       2.984  28.713  49.912  1.00  0.00     0.003 A 
HETATM   19  C   UNL     1       3.450  27.739  49.037  1.00  0.00     0.001 A 
HETATM   20  C   UNL     1       4.415  26.829  49.464  1.00  0.00     0.011 A 
BRANCH  16  21
HETATM   21  O   UNL     1       4.983  27.858  52.917  1.00  0.00    -0.355 OA
HETATM   22  C   UNL     1       4.137  28.288  53.980  1.00  0.00     0.210 C 
ENDBRANCH  16  21
ENDBRANCH  14  15
ENDBRANCH  12  14
ENDBRANCH   1  12
BRANCH   3  23
HETATM   23  N   UNL     1       8.780  22.220  53.684  1.00  0.00    -0.273 NA
HETATM   24  H   UNL     1       9.495  22.232  54.413  1.00  0.00     0.129 HD
BRANCH  23  25
HETATM   25  C   UNL     1       8.131  20.909  53.667  1.00  0.00     0.120 C 
BRANCH  25  26
HETATM   26  C   UNL     1       8.520  20.188  54.922  1.00  0.00    -0.022 C 
HETATM   27  C   UNL     1       7.856  20.260  56.082  1.00  0.00     0.008 C 
ENDBRANCH  25  26
ENDBRANCH  23  25
ENDBRANCH   3  23
TORSDOF 7
ENDMDL
MODEL 7
REMARK VINA RESULT:      -7.8      3.613      5.719
REMARK  7 active torsions:
REMARK  status: ('A' for Active; 'I' for Inactive)
REMARK    1  A    between atoms: O_2  and  C_3 
REMARK    2  A    between atoms: C_4  and  C_5 
REMARK    3  A    between atoms: C_5  and  N_6 
REMARK    4  A    between atoms: N_6  and  C_7 
REMARK    5  A    between atoms: C_9  and  N_10 
REMARK    6  A    between atoms: N_10  and  C_11 
REMARK    7  A    between atoms: C_11  and  C_12 
ROOT
HETATM    1  C   UNL     1       5.531  25.566  53.128  1.00  0.00     0.181 A 
HETATM    2  N   UNL     1       5.753  25.624  51.812  1.00  0.00    -0.207 NA
HETATM    3  C   UNL     1       5.297  26.715  51.169  1.00  0.00     0.119 A 
HETATM    4  C   UNL     1       4.682  27.795  51.841  1.00  0.00     0.031 A 
HETATM    5  C   UNL     1       4.505  27.647  53.231  1.00  0.00     0.048 A 
HETATM    6  N   UNL     1       4.934  26.527  53.819  1.00  0.00    -0.330 N 
HETATM    7  H   UNL     1       4.844  26.365  54.814  1.00  0.00     0.168 HD
HETATM    8  C   UNL     1       4.263  29.011  51.254  1.00  0.00     0.017 A 
HETATM    9  C   UNL     1       3.658  30.011  52.019  1.00  0.00     0.001 A 
HETATM   10  C   UNL     1       3.468  29.830  53.385  1.00  0.00     0.002 A 
HETATM   11  C   UNL     1       3.896  28.652  53.995  1.00  0.00     0.030 A 
ENDROOT
BRANCH   1  12
HETATM   12  N   UNL     1       5.930  24.459  53.874  1.00  0.00    -0.258 NA
HETATM   13  H   UNL     1       6.031  24.810  54.833  1.00  0.00     0.130 HD
BRANCH  12  14
HETATM   14  C   UNL     1       7.314  24.092  53.498  1.00  0.00     0.136 C 
BRANCH  14  15
HETATM   15  C   UNL     1       7.630  22.672  53.918  1.00  0.00    -0.012 A 
HETATM   16  C   UNL     1       7.687  22.333  55.286  1.00  0.00     0.075 A 
HETATM   17  C   UNL     1       8.084  21.047  55.667  1.00  0.00     0.037 A 
HETATM   18  C   UNL     1       8.427  20.096  54.704  1.00  0.00     0.003 A 
HETATM   19  C   UNL     1       8.377  20.422  53.354  1.00  0.00     0.001 A 
HETATM   20  C   UNL     1       7.988  21.702  52.964  1.00  0.00     0.011 A 
BRANCH  16  21
HETATM   21  O   UNL     1       7.359  23.334  56.164  1.00  0.00    -0.355 OA
HETATM   22  C   UNL     1       8.386  23.797  57.037  1.00  0.00     0.210 C 
ENDBRANCH  16  21
ENDBRANCH  14  15
ENDBRANCH  12  14
ENDBRANCH   1  12
BRANCH   3  23
HETATM   23  N   UNL     1       5.483  26.681  49.785  1.00  0.00    -0.273 NA
HETATM   24  H   UNL     1       6.198  25.970  49.622  1.00  0.00     0.129 HD
BRANCH  23  25
HETATM   25  C   UNL     1       4.279  26.337  49.027  1.00  0.00     0.120 C 
BRANCH  25  26
HETATM   26  C   UNL     1       4.357  27.033  47.702  1.00  0.00    -0.022 C 
HETATM   27  C   UNL     1       5.340  27.865  47.332  1.00  0.00     0.008 C 
ENDBRANCH  25  26
ENDBRANCH  23  25
ENDBRANCH   3  23
TORSDOF 7
ENDMDL
MODEL 8
REMARK VINA RESULT:      -7.7      1.976      3.964
REMARK  7 active torsions:
REMARK  status: ('A' for Active; 'I' for Inactive)
REMARK    1  A    between atoms: O_2  and  C_3 
REMARK    2  A    between atoms: C_4  and  C_5 
REMARK    3  A    between atoms: C_5  and  N_6 
REMARK    4  A    between atoms: N_6  and  C_7 
REMARK    5  A    between atoms: C_9  and  N_10 
REMARK    6  A    between atoms: N_10  and  C_11 
REMARK    7  A    between atoms: C_11  and  C_12 
ROOT
HETATM    1  C   UNL     1       6.498  25.984  54.155  1.00  0.00     0.181 A 
HETATM    2  N   UNL     1       5.968  27.028  53.510  1.00  0.00    -0.207 NA
HETATM    3  C   UNL     1       5.998  28.213  54.149  1.00  0.00     0.119 A 
HETATM    4  C   UNL     1       6.624  28.387  55.404  1.00  0.00     0.031 A 
HETATM    5  C   UNL     1       7.165  27.230  55.998  1.00  0.00     0.048 A 
HETATM    6  N   UNL     1       7.073  26.068  55.347  1.00  0.00    -0.330 N 
HETATM    7  H   UNL     1       7.449  25.205  55.717  1.00  0.00     0.168 HD
HETATM    8  C   UNL     1       6.779  29.612  56.093  1.00  0.00     0.017 A 
HETATM    9  C   UNL     1       7.413  29.664  57.337  1.00  0.00     0.001 A 
HETATM   10  C   UNL     1       7.915  28.503  57.917  1.00  0.00     0.002 A 
HETATM   11  C   UNL     1       7.799  27.286  57.247  1.00  0.00     0.030 A 
ENDROOT
BRANCH   1  12
HETATM   12  N   UNL     1       6.478  24.709  53.594  1.00  0.00    -0.258 NA
HETATM   13  H   UNL     1       6.192  24.089  54.360  1.00  0.00     0.130 HD
BRANCH  12  14
HETATM   14  C   UNL     1       7.866  24.282  53.308  1.00  0.00     0.136 C 
BRANCH  14  15
HETATM   15  C   UNL     1       8.102  22.862  53.774  1.00  0.00    -0.012 A 
HETATM   16  C   UNL     1       8.652  22.616  55.050  1.00  0.00     0.075 A 
HETATM   17  C   UNL     1       8.965  21.306  55.430  1.00  0.00     0.037 A 
HETATM   18  C   UNL     1       8.742  20.241  54.557  1.00  0.00     0.003 A 
HETATM   19  C   UNL     1       8.204  20.474  53.297  1.00  0.00     0.001 A 
HETATM   20  C   UNL     1       7.892  21.774  52.905  1.00  0.00     0.011 A 
BRANCH  16  21
HETATM   21  O   UNL     1       8.862  23.721  55.834  1.00  0.00    -0.355 OA
HETATM   22  C   UNL     1       8.577  23.598  57.225  1.00  0.00     0.210 C 
ENDBRANCH  16  21
ENDBRANCH  14  15
ENDBRANCH  12  14
ENDBRANCH   1  12
BRANCH   3  23
HETATM   23  N   UNL     1       5.357  29.246  53.463  1.00  0.00    -0.273 NA
HETATM   24  H   UNL     1       5.583  29.103  52.477  1.00  0.00     0.129 HD
BRANCH  23  25
HETATM   25  C   UNL     1       3.903  29.263  53.627  1.00  0.00     0.120 C 
BRANCH  25  26
HETATM   26  C   UNL     1       3.503  30.647  54.039  1.00  0.00    -0.022 C 
HETATM   27  C   UNL     1       3.192  31.013  55.289  1.00  0.00     0.008 C 
ENDBRANCH  25  26
ENDBRANCH  23  25
ENDBRANCH   3  23
TORSDOF 7
ENDMDL
MODEL 9
REMARK VINA RESULT:      -7.7      1.177      3.308
REMARK  7 active torsions:
REMARK  status: ('A' for Active; 'I' for Inactive)
REMARK    1  A    between atoms: O_2  and  C_3 
REMARK    2  A    between atoms: C_4  and  C_5 
REMARK    3  A    between atoms: C_5  and  N_6 
REMARK    4  A    between atoms: N_6  and  C_7 
REMARK    5  A    between atoms: C_9  and  N_10 
REMARK    6  A    between atoms: N_10  and  C_11 
REMARK    7  A    between atoms: C_11  and  C_12 
ROOT
HETATM    1  C   UNL     1       7.276  26.250  56.343  1.00  0.00     0.181 A 
HETATM    2  N   UNL     1       6.098  26.500  55.763  1.00  0.00    -0.207 NA
HETATM    3  C   UNL     1       5.508  27.671  56.071  1.00  0.00     0.119 A 
HETATM    4  C   UNL     1       6.119  28.637  56.901  1.00  0.00     0.031 A 
HETATM    5  C   UNL     1       7.367  28.287  57.454  1.00  0.00     0.048 A 
HETATM    6  N   UNL     1       7.893  27.097  57.155  1.00  0.00    -0.330 N 
HETATM    7  H   UNL     1       8.788  26.792  57.514  1.00  0.00     0.168 HD
HETATM    8  C   UNL     1       5.609  29.923  57.195  1.00  0.00     0.017 A 
HETATM    9  C   UNL     1       6.300  30.798  58.037  1.00  0.00     0.001 A 
HETATM   10  C   UNL     1       7.517  30.419  58.595  1.00  0.00     0.002 A 
HETATM   11  C   UNL     1       8.056  29.167  58.300  1.00  0.00     0.030 A 
ENDROOT
BRANCH   1  12
HETATM   12  N   UNL     1       7.945  25.050  56.118  1.00  0.00    -0.258 NA
HETATM   13  H   UNL     1       8.288  25.115  55.153  1.00  0.00     0.130 HD
BRANCH  12  14
HETATM   14  C   UNL     1       6.959  23.947  56.056  1.00  0.00     0.136 C 
BRANCH  14  15
HETATM   15  C   UNL     1       7.448  22.833  55.155  1.00  0.00    -0.012 A 
HETATM   16  C   UNL     1       7.453  23.004  53.755  1.00  0.00     0.075 A 
HETATM   17  C   UNL     1       7.805  21.933  52.927  1.00  0.00     0.037 A 
HETATM   18  C   UNL     1       8.149  20.696  53.474  1.00  0.00     0.003 A 
HETATM   19  C   UNL     1       8.145  20.518  54.852  1.00  0.00     0.001 A 
HETATM   20  C   UNL     1       7.791  21.576  55.686  1.00  0.00     0.011 A 
BRANCH  16  21
HETATM   21  O   UNL     1       7.076  24.242  53.302  1.00  0.00    -0.355 OA
HETATM   22  C   UNL     1       8.003  24.943  52.477  1.00  0.00     0.210 C 
ENDBRANCH  16  21
ENDBRANCH  14  15
ENDBRANCH  12  14
ENDBRANCH   1  12
BRANCH   3  23
HETATM   23  N   UNL     1       4.244  27.839  55.502  1.00  0.00    -0.273 NA
HETATM   24  H   UNL     1       3.791  28.570  56.053  1.00  0.00     0.129 HD
BRANCH  23  25
HETATM   25  C   UNL     1       4.269  28.242  54.095  1.00  0.00     0.120 C 
BRANCH  25  26
HETATM   26  C   UNL     1       3.765  29.651  54.012  1.00  0.00    -0.022 C 
HETATM   27  C   UNL     1       3.543  30.317  52.872  1.00  0.00     0.008 C 
ENDBRANCH  25  26
ENDBRANCH  23  25
ENDBRANCH   3  23
TORSDOF 7
ENDMDL
MODEL 10
REMARK VINA RESULT:      -7.7      2.877      6.691
REMARK  7 active torsions:
REMARK  status: ('A' for Active; 'I' for Inactive)
REMARK    1  A    between atoms: O_2  and  C_3 
REMARK    2  A    between atoms: C_4  and  C_5 
REMARK    3  A    between atoms: C_5  and  N_6 
REMARK    4  A    between atoms: N_6  and  C_7 
REMARK    5  A    between atoms: C_9  and  N_10 
REMARK    6  A    between atoms: N_10  and  C_11 
REMARK    7  A    between atoms: C_11  and  C_12 
ROOT
HETATM    1  C   UNL     1       7.533  24.588  52.738  1.00  0.00     0.181 A 
HETATM    2  N   UNL     1       7.781  25.105  53.945  1.00  0.00    -0.207 NA
HETATM    3  C   UNL     1       8.128  24.237  54.915  1.00  0.00     0.119 A 
HETATM    4  C   UNL     1       8.304  22.856  54.675  1.00  0.00     0.031 A 
HETATM    5  C   UNL     1       8.032  22.409  53.367  1.00  0.00     0.048 A 
HETATM    6  N   UNL     1       7.648  23.299  52.449  1.00  0.00    -0.330 N 
HETATM    7  H   UNL     1       7.446  23.042  51.492  1.00  0.00     0.168 HD
HETATM    8  C   UNL     1       8.756  21.900  55.614  1.00  0.00     0.017 A 
HETATM    9  C   UNL     1       8.888  20.554  55.266  1.00  0.00     0.001 A 
HETATM   10  C   UNL     1       8.586  20.131  53.975  1.00  0.00     0.002 A 
HETATM   11  C   UNL     1       8.164  21.057  53.022  1.00  0.00     0.030 A 
ENDROOT
BRANCH   1  12
HETATM   12  N   UNL     1       7.128  25.399  51.680  1.00  0.00    -0.258 NA
HETATM   13  H   UNL     1       7.397  26.350  51.959  1.00  0.00     0.130 HD
BRANCH  12  14
HETATM   14  C   UNL     1       5.649  25.457  51.649  1.00  0.00     0.136 C 
BRANCH  14  15
HETATM   15  C   UNL     1       5.147  26.772  52.207  1.00  0.00    -0.012 A 
HETATM   16  C   UNL     1       5.162  27.933  51.407  1.00  0.00     0.075 A 
HETATM   17  C   UNL     1       4.797  29.164  51.963  1.00  0.00     0.037 A 
HETATM   18  C   UNL     1       4.421  29.253  53.304  1.00  0.00     0.003 A 
HETATM   19  C   UNL     1       4.406  28.114  54.101  1.00  0.00     0.001 A 
HETATM   20  C   UNL     1       4.773  26.884  53.559  1.00  0.00     0.011 A 
BRANCH  16  21
HETATM   21  O   UNL     1       5.569  27.761  50.109  1.00  0.00    -0.355 OA
HETATM   22  C   UNL     1       5.574  28.912  49.269  1.00  0.00     0.210 C 
ENDBRANCH  16  21
ENDBRANCH  14  15
ENDBRANCH  12  14
ENDBRANCH   1  12
BRANCH   3  23
HETATM   23  N   UNL     1       8.293  24.823  56.171  1.00  0.00    -0.273 NA
HETATM   24  H   UNL     1       9.248  25.185  56.182  1.00  0.00     0.129 HD
BRANCH  23  25
HETATM   25  C   UNL     1       7.360  25.917  56.450  1.00  0.00     0.120 C 
BRANCH  25  26
HETATM   26  C   UNL     1       6.270  25.377  57.325  1.00  0.00    -0.022 C 
HETATM   27  C   UNL     1       4.971  25.349  56.998  1.00  0.00     0.008 C 
ENDBRANCH  25  26
ENDBRANCH  23  25
ENDBRANCH   3  23
TORSDOF 7
ENDMDL
