MODEL 1
REMARK VINA RESULT:     -10.9      0.000      0.000
REMARK  6 active torsions:
REMARK  status: ('A' for Active; 'I' for Inactive)
REMARK    1  A    between atoms: C_2  and  C_3 
REMARK       I    between atoms: C_3  and  N_4 
REMARK    2  A    between atoms: N_4  and  C_5 
REMARK    3  A    between atoms: C_16  and  N_17 
REMARK    4  A    between atoms: C_20  and  N_21 
REMARK    5  A    between atoms: N_21  and  C_24 
REMARK    6  A    between atoms: C_24  and  C_25 
ROOT
HETATM    1  C   UNL     1       7.369  33.757  65.436  1.00  0.00     0.019 A 
HETATM    2  C   UNL     1       6.019  33.865  65.765  1.00  0.00     0.032 A 
HETATM    3  C   UNL     1       5.050  33.427  64.862  1.00  0.00     0.019 A 
HETATM    4  C   UNL     1       5.442  32.860  63.640  1.00  0.00     0.030 A 
HETATM    5  C   UNL     1       6.795  32.722  63.292  1.00  0.00     0.030 A 
HETATM    6  C   UNL     1       7.745  33.200  64.210  1.00  0.00     0.030 A 
ENDROOT
BRANCH   5   7
HETATM    7  N   UNL     1       7.213  32.078  62.132  1.00  0.00    -0.381 N 
HETATM    8  C   UNL     1       6.389  32.201  60.936  1.00  0.00     0.125 C 
HETATM    9  C   UNL     1       7.316  32.332  59.734  1.00  0.00     0.053 C 
HETATM   10  C   UNL     1       8.350  31.206  59.676  1.00  0.00     0.189 C 
HETATM   11  C   UNL     1       9.088  31.036  61.009  1.00  0.00     0.053 C 
HETATM   12  C   UNL     1       8.142  30.957  62.207  1.00  0.00     0.125 C 
BRANCH  10  13
HETATM   13  N   UNL     1       7.724  29.890  59.294  1.00  0.00    -0.067 N 
HETATM   14  H   UNL     1       8.448  29.159  59.311  1.00  0.00     0.277 HD
HETATM   15  H   UNL     1       7.031  29.590  59.991  1.00  0.00     0.277 HD
BRANCH  13  16
HETATM   16  C   UNL     1       7.096  29.817  57.939  1.00  0.00     0.271 C 
BRANCH  16  17
HETATM   17  C   UNL     1       6.925  28.383  57.525  1.00  0.00    -0.030 A 
HETATM   18  C   UNL     1       8.004  27.488  57.614  1.00  0.00     0.048 A 
HETATM   19  C   UNL     1       7.782  26.171  57.267  1.00  0.00     0.105 A 
HETATM   20  C   UNL     1       6.552  25.725  56.853  1.00  0.00     0.105 A 
HETATM   21  O   UNL     1       8.713  25.181  57.292  1.00  0.00    -0.323 OA
HETATM   22  O   UNL     1       6.553  24.398  56.565  1.00  0.00    -0.323 OA
HETATM   23  C   UNL     1       5.470  26.570  56.761  1.00  0.00     0.040 A 
HETATM   24  C   UNL     1       7.935  24.061  56.811  1.00  0.00     0.352 A 
HETATM   25  C   UNL     1       5.659  27.914  57.101  1.00  0.00     0.012 A 
ENDBRANCH  16  17
ENDBRANCH  13  16
ENDBRANCH  10  13
ENDBRANCH   5   7
BRANCH   2  26
HETATM   26  C   UNL     1       5.663  34.351  67.119  1.00  0.00     0.252 C 
HETATM   27  N   UNL     1       6.602  34.168  68.105  1.00  0.00    -0.344 N 
HETATM   28  H   UNL     1       7.409  33.591  67.911  1.00  0.00     0.163 HD
HETATM   29  O   UNL     1       4.562  34.858  67.300  1.00  0.00    -0.268 OA
BRANCH  27  30
HETATM   30  C   UNL     1       6.459  34.661  69.475  1.00  0.00     0.171 C 
HETATM   31  C   UNL     1       7.708  35.404  69.984  1.00  0.00     0.220 C 
HETATM   32  O   UNL     1       7.882  36.602  69.764  1.00  0.00    -0.278 OA
HETATM   33  N   UNL     1       8.706  34.619  70.520  1.00  0.00    -0.261 NA
HETATM   34  C   UNL     1       8.448  33.944  71.774  1.00  0.00     0.095 C 
HETATM   35  H   UNL     1       9.013  33.942  69.818  1.00  0.00     0.130 HD
HETATM   36  C   UNL     1       7.882  32.540  71.597  1.00  0.00     0.015 C 
HETATM   37  C   UNL     1       6.601  32.392  70.771  1.00  0.00     0.004 C 
HETATM   38  C   UNL     1       5.825  33.667  70.457  1.00  0.00     0.034 C 
ENDBRANCH  27  30
ENDBRANCH   2  26
TORSDOF 6
ENDMDL
MODEL 2
REMARK VINA RESULT:     -10.8      3.806      6.881
REMARK  6 active torsions:
REMARK  status: ('A' for Active; 'I' for Inactive)
REMARK    1  A    between atoms: C_2  and  C_3 
REMARK       I    between atoms: C_3  and  N_4 
REMARK    2  A    between atoms: N_4  and  C_5 
REMARK    3  A    between atoms: C_16  and  N_17 
REMARK    4  A    between atoms: C_20  and  N_21 
REMARK    5  A    between atoms: N_21  and  C_24 
REMARK    6  A    between atoms: C_24  and  C_25 
ROOT
HETATM    1  C   UNL     1       6.305  31.491  58.545  1.00  0.00     0.019 A 
HETATM    2  C   UNL     1       7.385  31.328  59.410  1.00  0.00     0.032 A 
HETATM    3  C   UNL     1       8.237  30.234  59.254  1.00  0.00     0.019 A 
HETATM    4  C   UNL     1       8.014  29.321  58.213  1.00  0.00     0.030 A 
HETATM    5  C   UNL     1       6.945  29.472  57.316  1.00  0.00     0.030 A 
HETATM    6  C   UNL     1       6.088  30.567  57.519  1.00  0.00     0.030 A 
ENDROOT
BRANCH   5   7
HETATM    7  N   UNL     1       6.756  28.637  56.220  1.00  0.00    -0.381 N 
HETATM    8  C   UNL     1       5.466  27.975  56.068  1.00  0.00     0.125 C 
HETATM    9  C   UNL     1       5.110  27.966  54.586  1.00  0.00     0.053 C 
HETATM   10  C   UNL     1       6.230  27.376  53.726  1.00  0.00     0.189 C 
HETATM   11  C   UNL     1       7.587  28.019  54.031  1.00  0.00     0.053 C 
HETATM   12  C   UNL     1       7.902  28.063  55.526  1.00  0.00     0.125 C 
BRANCH  10  13
HETATM   13  N   UNL     1       6.345  25.885  53.905  1.00  0.00    -0.067 N 
HETATM   14  H   UNL     1       6.623  25.687  54.877  1.00  0.00     0.277 HD
HETATM   15  H   UNL     1       5.434  25.424  53.793  1.00  0.00     0.277 HD
BRANCH  13  16
HETATM   16  C   UNL     1       7.342  25.182  53.040  1.00  0.00     0.271 C 
BRANCH  16  17
HETATM   17  C   UNL     1       7.683  23.842  53.627  1.00  0.00    -0.030 A 
HETATM   18  C   UNL     1       7.838  23.697  55.016  1.00  0.00     0.048 A 
HETATM   19  C   UNL     1       8.105  22.437  55.509  1.00  0.00     0.105 A 
HETATM   20  C   UNL     1       8.209  21.342  54.689  1.00  0.00     0.105 A 
HETATM   21  O   UNL     1       8.286  22.125  56.819  1.00  0.00    -0.323 OA
HETATM   22  O   UNL     1       8.471  20.202  55.378  1.00  0.00    -0.323 OA
HETATM   23  C   UNL     1       8.056  21.442  53.324  1.00  0.00     0.040 A 
HETATM   24  C   UNL     1       8.553  20.706  56.728  1.00  0.00     0.352 A 
HETATM   25  C   UNL     1       7.789  22.707  52.789  1.00  0.00     0.012 A 
ENDBRANCH  16  17
ENDBRANCH  13  16
ENDBRANCH  10  13
ENDBRANCH   5   7
BRANCH   2  26
HETATM   26  C   UNL     1       7.651  32.389  60.409  1.00  0.00     0.252 C 
HETATM   27  N   UNL     1       6.592  32.772  61.197  1.00  0.00    -0.344 N 
HETATM   28  H   UNL     1       5.666  32.437  60.968  1.00  0.00     0.163 HD
HETATM   29  O   UNL     1       8.771  32.885  60.469  1.00  0.00    -0.268 OA
BRANCH  27  30
HETATM   30  C   UNL     1       6.692  33.739  62.291  1.00  0.00     0.171 C 
HETATM   31  C   UNL     1       6.815  33.075  63.675  1.00  0.00     0.220 C 
HETATM   32  O   UNL     1       7.903  32.723  64.129  1.00  0.00    -0.278 OA
HETATM   33  N   UNL     1       5.632  32.718  64.285  1.00  0.00    -0.261 NA
HETATM   34  C   UNL     1       4.748  33.771  64.735  1.00  0.00     0.095 C 
HETATM   35  H   UNL     1       5.122  32.073  63.676  1.00  0.00     0.130 HD
HETATM   36  C   UNL     1       3.713  34.176  63.691  1.00  0.00     0.015 C 
HETATM   37  C   UNL     1       4.228  34.619  62.319  1.00  0.00     0.004 C 
HETATM   38  C   UNL     1       5.718  34.921  62.200  1.00  0.00     0.034 C 
ENDBRANCH  27  30
ENDBRANCH   2  26
TORSDOF 6
ENDMDL
MODEL 3
REMARK VINA RESULT:     -10.7      2.312     12.127
REMARK  6 active torsions:
REMARK  status: ('A' for Active; 'I' for Inactive)
REMARK    1  A    between atoms: C_2  and  C_3 
REMARK       I    between atoms: C_3  and  N_4 
REMARK    2  A    between atoms: N_4  and  C_5 
REMARK    3  A    between atoms: C_16  and  N_17 
REMARK    4  A    between atoms: C_20  and  N_21 
REMARK    5  A    between atoms: N_21  and  C_24 
REMARK    6  A    between atoms: C_24  and  C_25 
ROOT
HETATM    1  C   UNL     1       7.316  31.483  59.800  1.00  0.00     0.019 A 
HETATM    2  C   UNL     1       8.587  30.925  59.917  1.00  0.00     0.032 A 
HETATM    3  C   UNL     1       9.285  31.042  61.120  1.00  0.00     0.019 A 
HETATM    4  C   UNL     1       8.693  31.700  62.208  1.00  0.00     0.030 A 
HETATM    5  C   UNL     1       7.406  32.254  62.122  1.00  0.00     0.030 A 
HETATM    6  C   UNL     1       6.742  32.145  60.889  1.00  0.00     0.030 A 
ENDROOT
BRANCH   5   7
HETATM    7  N   UNL     1       6.757  32.827  63.212  1.00  0.00    -0.381 N 
HETATM    8  C   UNL     1       7.535  33.108  64.412  1.00  0.00     0.125 C 
HETATM    9  C   UNL     1       7.055  34.434  64.988  1.00  0.00     0.053 C 
HETATM   10  C   UNL     1       5.539  34.460  65.196  1.00  0.00     0.189 C 
HETATM   11  C   UNL     1       4.780  34.022  63.938  1.00  0.00     0.053 C 
HETATM   12  C   UNL     1       5.311  32.715  63.348  1.00  0.00     0.125 C 
BRANCH  10  13
HETATM   13  N   UNL     1       5.119  33.586  66.349  1.00  0.00    -0.067 N 
HETATM   14  H   UNL     1       4.318  33.009  66.054  1.00  0.00     0.277 HD
HETATM   15  H   UNL     1       5.854  32.911  66.593  1.00  0.00     0.277 HD
BRANCH  13  16
HETATM   16  C   UNL     1       4.685  34.287  67.596  1.00  0.00     0.271 C 
BRANCH  16  17
HETATM   17  C   UNL     1       5.757  34.188  68.644  1.00  0.00    -0.030 A 
HETATM   18  C   UNL     1       5.664  33.225  69.662  1.00  0.00     0.048 A 
HETATM   19  C   UNL     1       6.697  33.143  70.572  1.00  0.00     0.105 A 
HETATM   20  C   UNL     1       7.797  33.960  70.500  1.00  0.00     0.105 A 
HETATM   21  O   UNL     1       6.763  32.274  71.616  1.00  0.00    -0.323 OA
HETATM   22  O   UNL     1       8.694  33.711  71.489  1.00  0.00    -0.323 OA
HETATM   23  C   UNL     1       7.928  34.911  69.513  1.00  0.00     0.040 A 
HETATM   24  C   UNL     1       8.020  32.663  72.217  1.00  0.00     0.352 A 
HETATM   25  C   UNL     1       6.896  35.025  68.575  1.00  0.00     0.012 A 
ENDBRANCH  16  17
ENDBRANCH  13  16
ENDBRANCH  10  13
ENDBRANCH   5   7
BRANCH   2  26
HETATM   26  C   UNL     1       9.114  30.130  58.783  1.00  0.00     0.252 C 
HETATM   27  N   UNL     1       8.300  29.135  58.300  1.00  0.00    -0.344 N 
HETATM   28  H   UNL     1       7.466  28.890  58.817  1.00  0.00     0.163 HD
HETATM   29  O   UNL     1      10.236  30.373  58.355  1.00  0.00    -0.268 OA
BRANCH  27  30
HETATM   30  C   UNL     1       8.617  28.311  57.132  1.00  0.00     0.171 C 
HETATM   31  C   UNL     1       8.570  29.096  55.808  1.00  0.00     0.220 C 
HETATM   32  O   UNL     1       9.542  29.731  55.398  1.00  0.00    -0.278 OA
HETATM   33  N   UNL     1       7.333  29.213  55.214  1.00  0.00    -0.261 NA
HETATM   34  C   UNL     1       6.718  28.022  54.669  1.00  0.00     0.095 C 
HETATM   35  H   UNL     1       6.689  29.668  55.866  1.00  0.00     0.130 HD
HETATM   36  C   UNL     1       5.815  27.301  55.664  1.00  0.00     0.015 C 
HETATM   37  C   UNL     1       6.429  26.881  57.002  1.00  0.00     0.004 C 
HETATM   38  C   UNL     1       7.949  26.930  57.115  1.00  0.00     0.034 C 
ENDBRANCH  27  30
ENDBRANCH   2  26
TORSDOF 6
ENDMDL
MODEL 4
REMARK VINA RESULT:     -10.4      3.940      7.000
REMARK  6 active torsions:
REMARK  status: ('A' for Active; 'I' for Inactive)
REMARK    1  A    between atoms: C_2  and  C_3 
REMARK       I    between atoms: C_3  and  N_4 
REMARK    2  A    between atoms: N_4  and  C_5 
REMARK    3  A    between atoms: C_16  and  N_17 
REMARK    4  A    between atoms: C_20  and  N_21 
REMARK    5  A    between atoms: N_21  and  C_24 
REMARK    6  A    between atoms: C_24  and  C_25 
ROOT
HETATM    1  C   UNL     1       6.104  31.464  58.471  1.00  0.00     0.019 A 
HETATM    2  C   UNL     1       7.276  31.315  59.209  1.00  0.00     0.032 A 
HETATM    3  C   UNL     1       8.150  30.269  58.912  1.00  0.00     0.019 A 
HETATM    4  C   UNL     1       7.854  29.390  57.859  1.00  0.00     0.030 A 
HETATM    5  C   UNL     1       6.690  29.530  57.089  1.00  0.00     0.030 A 
HETATM    6  C   UNL     1       5.815  30.575  57.432  1.00  0.00     0.030 A 
ENDROOT
BRANCH   5   7
HETATM    7  N   UNL     1       6.418  28.734  55.981  1.00  0.00    -0.381 N 
HETATM    8  C   UNL     1       5.052  28.265  55.783  1.00  0.00     0.125 C 
HETATM    9  C   UNL     1       4.747  28.311  54.291  1.00  0.00     0.053 C 
HETATM   10  C   UNL     1       5.798  27.569  53.462  1.00  0.00     0.189 C 
HETATM   11  C   UNL     1       7.223  28.009  53.815  1.00  0.00     0.053 C 
HETATM   12  C   UNL     1       7.492  28.003  55.320  1.00  0.00     0.125 C 
BRANCH  10  13
HETATM   13  N   UNL     1       5.691  26.076  53.633  1.00  0.00    -0.067 N 
HETATM   14  H   UNL     1       5.872  25.841  54.620  1.00  0.00     0.277 HD
HETATM   15  H   UNL     1       4.734  25.747  53.455  1.00  0.00     0.277 HD
BRANCH  13  16
HETATM   16  C   UNL     1       6.637  25.241  52.831  1.00  0.00     0.271 C 
BRANCH  16  17
HETATM   17  C   UNL     1       7.085  24.053  53.633  1.00  0.00    -0.030 A 
HETATM   18  C   UNL     1       7.590  22.912  52.986  1.00  0.00     0.048 A 
HETATM   19  C   UNL     1       8.032  21.867  53.770  1.00  0.00     0.105 A 
HETATM   20  C   UNL     1       7.999  21.920  55.141  1.00  0.00     0.105 A 
HETATM   21  O   UNL     1       8.543  20.695  53.307  1.00  0.00    -0.323 OA
HETATM   22  O   UNL     1       8.483  20.789  55.714  1.00  0.00    -0.323 OA
HETATM   23  C   UNL     1       7.519  23.022  55.810  1.00  0.00     0.040 A 
HETATM   24  C   UNL     1       8.797  19.998  54.548  1.00  0.00     0.352 A 
HETATM   25  C   UNL     1       7.057  24.100  55.047  1.00  0.00     0.012 A 
ENDBRANCH  16  17
ENDBRANCH  13  16
ENDBRANCH  10  13
ENDBRANCH   5   7
BRANCH   2  26
HETATM   26  C   UNL     1       7.604  32.344  60.222  1.00  0.00     0.252 C 
HETATM   27  N   UNL     1       6.570  32.782  61.013  1.00  0.00    -0.344 N 
HETATM   28  H   UNL     1       5.625  32.508  60.778  1.00  0.00     0.163 HD
HETATM   29  O   UNL     1       8.753  32.769  60.291  1.00  0.00    -0.268 OA
BRANCH  27  30
HETATM   30  C   UNL     1       6.726  33.726  62.120  1.00  0.00     0.171 C 
HETATM   31  C   UNL     1       6.920  33.034  63.482  1.00  0.00     0.220 C 
HETATM   32  O   UNL     1       8.031  32.673  63.871  1.00  0.00    -0.278 OA
HETATM   33  N   UNL     1       5.771  32.663  64.145  1.00  0.00    -0.261 NA
HETATM   34  C   UNL     1       4.911  33.706  64.661  1.00  0.00     0.095 C 
HETATM   35  H   UNL     1       5.230  32.030  63.550  1.00  0.00     0.130 HD
HETATM   36  C   UNL     1       3.823  34.131  63.682  1.00  0.00     0.015 C 
HETATM   37  C   UNL     1       4.266  34.602  62.294  1.00  0.00     0.004 C 
HETATM   38  C   UNL     1       5.748  34.909  62.104  1.00  0.00     0.034 C 
ENDBRANCH  27  30
ENDBRANCH   2  26
TORSDOF 6
ENDMDL
MODEL 5
REMARK VINA RESULT:     -10.4      3.994      6.097
REMARK  6 active torsions:
REMARK  status: ('A' for Active; 'I' for Inactive)
REMARK    1  A    between atoms: C_2  and  C_3 
REMARK       I    between atoms: C_3  and  N_4 
REMARK    2  A    between atoms: N_4  and  C_5 
REMARK    3  A    between atoms: C_16  and  N_17 
REMARK    4  A    between atoms: C_20  and  N_21 
REMARK    5  A    between atoms: N_21  and  C_24 
REMARK    6  A    between atoms: C_24  and  C_25 
ROOT
HETATM    1  C   UNL     1       8.434  31.120  60.729  1.00  0.00     0.019 A 
HETATM    2  C   UNL     1       7.428  32.071  60.887  1.00  0.00     0.032 A 
HETATM    3  C   UNL     1       6.475  32.242  59.882  1.00  0.00     0.019 A 
HETATM    4  C   UNL     1       6.524  31.440  58.732  1.00  0.00     0.030 A 
HETATM    5  C   UNL     1       7.516  30.462  58.557  1.00  0.00     0.030 A 
HETATM    6  C   UNL     1       8.478  30.336  59.573  1.00  0.00     0.030 A 
ENDROOT
BRANCH   5   7
HETATM    7  N   UNL     1       7.533  29.590  57.473  1.00  0.00    -0.381 N 
HETATM    8  C   UNL     1       6.306  28.879  57.137  1.00  0.00     0.125 C 
HETATM    9  C   UNL     1       6.196  28.816  55.619  1.00  0.00     0.053 C 
HETATM   10  C   UNL     1       7.457  28.242  54.970  1.00  0.00     0.189 C 
HETATM   11  C   UNL     1       8.727  28.942  55.469  1.00  0.00     0.053 C 
HETATM   12  C   UNL     1       8.794  29.039  56.993  1.00  0.00     0.125 C 
BRANCH  10  13
HETATM   13  N   UNL     1       7.587  26.762  55.215  1.00  0.00    -0.067 N 
HETATM   14  H   UNL     1       8.481  26.436  54.818  1.00  0.00     0.277 HD
HETATM   15  H   UNL     1       7.654  26.554  56.219  1.00  0.00     0.277 HD
BRANCH  13  16
HETATM   16  C   UNL     1       6.529  25.889  54.619  1.00  0.00     0.271 C 
BRANCH  16  17
HETATM   17  C   UNL     1       7.068  24.506  54.391  1.00  0.00    -0.030 A 
HETATM   18  C   UNL     1       7.204  23.613  55.466  1.00  0.00     0.048 A 
HETATM   19  C   UNL     1       7.658  22.339  55.196  1.00  0.00     0.105 A 
HETATM   20  C   UNL     1       7.966  21.931  53.923  1.00  0.00     0.105 A 
HETATM   21  O   UNL     1       7.849  21.358  56.117  1.00  0.00    -0.323 OA
HETATM   22  O   UNL     1       8.391  20.642  53.880  1.00  0.00    -0.323 OA
HETATM   23  C   UNL     1       7.839  22.775  52.842  1.00  0.00     0.040 A 
HETATM   24  C   UNL     1       8.349  20.289  55.280  1.00  0.00     0.352 A 
HETATM   25  C   UNL     1       7.385  24.076  53.080  1.00  0.00     0.012 A 
ENDBRANCH  16  17
ENDBRANCH  13  16
ENDBRANCH  10  13
ENDBRANCH   5   7
BRANCH   2  26
HETATM   26  C   UNL     1       7.344  32.799  62.174  1.00  0.00     0.252 C 
HETATM   27  N   UNL     1       6.350  33.740  62.285  1.00  0.00    -0.344 N 
HETATM   28  H   UNL     1       5.828  34.000  61.459  1.00  0.00     0.163 HD
HETATM   29  O   UNL     1       8.164  32.554  63.053  1.00  0.00    -0.268 OA
BRANCH  27  30
HETATM   30  C   UNL     1       6.064  34.491  63.509  1.00  0.00     0.171 C 
HETATM   31  C   UNL     1       4.824  33.971  64.260  1.00  0.00     0.220 C 
HETATM   32  O   UNL     1       4.897  33.042  65.063  1.00  0.00    -0.278 OA
HETATM   33  N   UNL     1       3.608  34.465  63.840  1.00  0.00    -0.261 NA
HETATM   34  C   UNL     1       3.316  35.862  64.078  1.00  0.00     0.095 C 
HETATM   35  H   UNL     1       3.482  34.248  62.849  1.00  0.00     0.130 HD
HETATM   36  C   UNL     1       3.719  36.767  62.919  1.00  0.00     0.015 C 
HETATM   37  C   UNL     1       5.177  36.717  62.456  1.00  0.00     0.004 C 
HETATM   38  C   UNL     1       6.174  36.015  63.373  1.00  0.00     0.034 C 
ENDBRANCH  27  30
ENDBRANCH   2  26
TORSDOF 6
ENDMDL
MODEL 6
REMARK VINA RESULT:     -10.3      4.630      8.355
REMARK  6 active torsions:
REMARK  status: ('A' for Active; 'I' for Inactive)
REMARK    1  A    between atoms: C_2  and  C_3 
REMARK       I    between atoms: C_3  and  N_4 
REMARK    2  A    between atoms: N_4  and  C_5 
REMARK    3  A    between atoms: C_16  and  N_17 
REMARK    4  A    between atoms: C_20  and  N_21 
REMARK    5  A    between atoms: N_21  and  C_24 
REMARK    6  A    between atoms: C_24  and  C_25 
ROOT
HETATM    1  C   UNL     1       6.421  29.357  57.794  1.00  0.00     0.019 A 
HETATM    2  C   UNL     1       7.753  29.517  58.169  1.00  0.00     0.032 A 
HETATM    3  C   UNL     1       8.749  28.807  57.499  1.00  0.00     0.019 A 
HETATM    4  C   UNL     1       8.405  27.957  56.438  1.00  0.00     0.030 A 
HETATM    5  C   UNL     1       7.073  27.793  56.027  1.00  0.00     0.030 A 
HETATM    6  C   UNL     1       6.090  28.498  56.742  1.00  0.00     0.030 A 
ENDROOT
BRANCH   5   7
HETATM    7  N   UNL     1       6.713  27.032  54.919  1.00  0.00    -0.381 N 
HETATM    8  C   UNL     1       5.445  26.314  54.954  1.00  0.00     0.125 C 
HETATM    9  C   UNL     1       4.816  26.396  53.568  1.00  0.00     0.053 C 
HETATM   10  C   UNL     1       5.775  25.933  52.470  1.00  0.00     0.189 C 
HETATM   11  C   UNL     1       7.140  26.624  52.571  1.00  0.00     0.053 C 
HETATM   12  C   UNL     1       7.729  26.574  53.980  1.00  0.00     0.125 C 
BRANCH  10  13
HETATM   13  N   UNL     1       5.980  24.441  52.500  1.00  0.00    -0.067 N 
HETATM   14  H   UNL     1       5.708  24.086  53.428  1.00  0.00     0.277 HD
HETATM   15  H   UNL     1       5.352  23.964  51.842  1.00  0.00     0.277 HD
BRANCH  13  16
HETATM   16  C   UNL     1       7.374  23.952  52.264  1.00  0.00     0.271 C 
BRANCH  16  17
HETATM   17  C   UNL     1       7.711  22.863  53.241  1.00  0.00    -0.030 A 
HETATM   18  C   UNL     1       7.828  23.151  54.611  1.00  0.00     0.048 A 
HETATM   19  C   UNL     1       8.093  22.107  55.472  1.00  0.00     0.105 A 
HETATM   20  C   UNL     1       8.233  20.816  55.029  1.00  0.00     0.105 A 
HETATM   21  O   UNL     1       8.240  22.213  56.819  1.00  0.00    -0.323 OA
HETATM   22  O   UNL     1       8.486  19.946  56.041  1.00  0.00    -0.323 OA
HETATM   23  C   UNL     1       8.118  20.492  53.696  1.00  0.00     0.040 A 
HETATM   24  C   UNL     1       8.524  20.840  57.173  1.00  0.00     0.352 A 
HETATM   25  C   UNL     1       7.854  21.528  52.793  1.00  0.00     0.012 A 
ENDBRANCH  16  17
ENDBRANCH  13  16
ENDBRANCH  10  13
ENDBRANCH   5   7
BRANCH   2  26
HETATM   26  C   UNL     1       8.074  30.522  59.208  1.00  0.00     0.252 C 
HETATM   27  N   UNL     1       7.009  31.129  59.828  1.00  0.00    -0.344 N 
HETATM   28  H   UNL     1       6.080  30.984  59.458  1.00  0.00     0.163 HD
HETATM   29  O   UNL     1       9.249  30.782  59.444  1.00  0.00    -0.268 OA
BRANCH  27  30
HETATM   30  C   UNL     1       7.137  32.078  60.935  1.00  0.00     0.171 C 
HETATM   31  C   UNL     1       7.221  31.394  62.312  1.00  0.00     0.220 C 
HETATM   32  O   UNL     1       8.290  30.994  62.771  1.00  0.00    -0.278 OA
HETATM   33  N   UNL     1       6.020  31.076  62.907  1.00  0.00    -0.261 NA
HETATM   34  C   UNL     1       5.173  32.158  63.362  1.00  0.00     0.095 C 
HETATM   35  H   UNL     1       5.491  30.459  62.287  1.00  0.00     0.130 HD
HETATM   36  C   UNL     1       4.164  32.615  62.315  1.00  0.00     0.015 C 
HETATM   37  C   UNL     1       4.708  33.053  60.952  1.00  0.00     0.004 C 
HETATM   38  C   UNL     1       6.210  33.299  60.850  1.00  0.00     0.034 C 
ENDBRANCH  27  30
ENDBRANCH   2  26
TORSDOF 6
ENDMDL
MODEL 7
REMARK VINA RESULT:      -9.8      5.333      7.941
REMARK  6 active torsions:
REMARK  status: ('A' for Active; 'I' for Inactive)
REMARK    1  A    between atoms: C_2  and  C_3 
REMARK       I    between atoms: C_3  and  N_4 
REMARK    2  A    between atoms: N_4  and  C_5 
REMARK    3  A    between atoms: C_16  and  N_17 
REMARK    4  A    between atoms: C_20  and  N_21 
REMARK    5  A    between atoms: N_21  and  C_24 
REMARK    6  A    between atoms: C_24  and  C_25 
ROOT
HETATM    1  C   UNL     1       5.740  30.982  57.816  1.00  0.00     0.019 A 
HETATM    2  C   UNL     1       4.420  31.175  58.218  1.00  0.00     0.032 A 
HETATM    3  C   UNL     1       3.383  30.599  57.482  1.00  0.00     0.019 A 
HETATM    4  C   UNL     1       3.679  29.812  56.360  1.00  0.00     0.030 A 
HETATM    5  C   UNL     1       5.001  29.586  55.945  1.00  0.00     0.030 A 
HETATM    6  C   UNL     1       6.020  30.204  56.689  1.00  0.00     0.030 A 
ENDROOT
BRANCH   5   7
HETATM    7  N   UNL     1       5.327  28.734  54.895  1.00  0.00    -0.381 N 
HETATM    8  C   UNL     1       4.254  28.258  54.030  1.00  0.00     0.125 C 
HETATM    9  C   UNL     1       4.777  28.229  52.599  1.00  0.00     0.053 C 
HETATM   10  C   UNL     1       6.084  27.443  52.477  1.00  0.00     0.189 C 
HETATM   11  C   UNL     1       7.126  27.898  53.506  1.00  0.00     0.053 C 
HETATM   12  C   UNL     1       6.567  27.969  54.927  1.00  0.00     0.125 C 
BRANCH  10  13
HETATM   13  N   UNL     1       5.862  25.961  52.631  1.00  0.00    -0.067 N 
HETATM   14  H   UNL     1       5.712  25.749  53.628  1.00  0.00     0.277 HD
HETATM   15  H   UNL     1       4.995  25.664  52.166  1.00  0.00     0.277 HD
BRANCH  13  16
HETATM   16  C   UNL     1       6.973  25.067  52.181  1.00  0.00     0.271 C 
BRANCH  16  17
HETATM   17  C   UNL     1       7.229  24.003  53.209  1.00  0.00    -0.030 A 
HETATM   18  C   UNL     1       7.832  22.790  52.838  1.00  0.00     0.048 A 
HETATM   19  C   UNL     1       8.089  21.866  53.829  1.00  0.00     0.105 A 
HETATM   20  C   UNL     1       7.782  22.104  55.145  1.00  0.00     0.105 A 
HETATM   21  O   UNL     1       8.661  20.647  53.641  1.00  0.00    -0.323 OA
HETATM   22  O   UNL     1       8.120  21.066  55.952  1.00  0.00    -0.323 OA
HETATM   23  C   UNL     1       7.197  23.283  55.549  1.00  0.00     0.040 A 
HETATM   24  C   UNL     1       8.647  20.127  54.991  1.00  0.00     0.352 A 
HETATM   25  C   UNL     1       6.918  24.243  54.570  1.00  0.00     0.012 A 
ENDBRANCH  16  17
ENDBRANCH  13  16
ENDBRANCH  10  13
ENDBRANCH   5   7
BRANCH   2  26
HETATM   26  C   UNL     1       4.169  31.905  59.482  1.00  0.00     0.252 C 
HETATM   27  N   UNL     1       5.263  32.160  60.272  1.00  0.00    -0.344 N 
HETATM   28  H   UNL     1       6.144  31.720  60.045  1.00  0.00     0.163 HD
HETATM   29  O   UNL     1       3.020  32.218  59.772  1.00  0.00    -0.268 OA
BRANCH  27  30
HETATM   30  C   UNL     1       5.217  32.943  61.508  1.00  0.00     0.171 C 
HETATM   31  C   UNL     1       4.307  32.321  62.584  1.00  0.00     0.220 C 
HETATM   32  O   UNL     1       4.719  31.458  63.359  1.00  0.00    -0.278 OA
HETATM   33  N   UNL     1       2.968  32.633  62.502  1.00  0.00    -0.261 NA
HETATM   34  C   UNL     1       2.563  33.995  62.775  1.00  0.00     0.095 C 
HETATM   35  H   UNL     1       2.611  32.341  61.589  1.00  0.00     0.130 HD
HETATM   36  C   UNL     1       2.513  34.871  61.528  1.00  0.00     0.015 C 
HETATM   37  C   UNL     1       3.786  34.973  60.684  1.00  0.00     0.004 C 
HETATM   38  C   UNL     1       5.078  34.458  61.309  1.00  0.00     0.034 C 
ENDBRANCH  27  30
ENDBRANCH   2  26
TORSDOF 6
ENDMDL
MODEL 8
REMARK VINA RESULT:      -9.8      3.723     11.458
REMARK  6 active torsions:
REMARK  status: ('A' for Active; 'I' for Inactive)
REMARK    1  A    between atoms: C_2  and  C_3 
REMARK       I    between atoms: C_3  and  N_4 
REMARK    2  A    between atoms: N_4  and  C_5 
REMARK    3  A    between atoms: C_16  and  N_17 
REMARK    4  A    between atoms: C_20  and  N_21 
REMARK    5  A    between atoms: N_21  and  C_24 
REMARK    6  A    between atoms: C_24  and  C_25 
ROOT
HETATM    1  C   UNL     1       7.331  31.649  59.825  1.00  0.00     0.019 A 
HETATM    2  C   UNL     1       8.581  31.046  59.954  1.00  0.00     0.032 A 
HETATM    3  C   UNL     1       9.296  31.185  61.144  1.00  0.00     0.019 A 
HETATM    4  C   UNL     1       8.741  31.910  62.209  1.00  0.00     0.030 A 
HETATM    5  C   UNL     1       7.476  32.511  62.112  1.00  0.00     0.030 A 
HETATM    6  C   UNL     1       6.795  32.378  60.890  1.00  0.00     0.030 A 
ENDROOT
BRANCH   5   7
HETATM    7  N   UNL     1       6.862  33.153  63.183  1.00  0.00    -0.381 N 
HETATM    8  C   UNL     1       5.514  33.675  62.996  1.00  0.00     0.125 C 
HETATM    9  C   UNL     1       4.731  33.431  64.280  1.00  0.00     0.053 C 
HETATM   10  C   UNL     1       5.455  33.977  65.512  1.00  0.00     0.189 C 
HETATM   11  C   UNL     1       6.911  33.502  65.578  1.00  0.00     0.053 C 
HETATM   12  C   UNL     1       7.665  33.710  64.264  1.00  0.00     0.125 C 
BRANCH  10  13
HETATM   13  N   UNL     1       5.430  35.482  65.555  1.00  0.00    -0.067 N 
HETATM   14  H   UNL     1       5.587  35.791  66.525  1.00  0.00     0.277 HD
HETATM   15  H   UNL     1       6.212  35.884  65.022  1.00  0.00     0.277 HD
BRANCH  13  16
HETATM   16  C   UNL     1       4.164  36.143  65.112  1.00  0.00     0.271 C 
BRANCH  16  17
HETATM   17  C   UNL     1       4.421  36.993  63.900  1.00  0.00    -0.030 A 
HETATM   18  C   UNL     1       3.458  37.083  62.882  1.00  0.00     0.048 A 
HETATM   19  C   UNL     1       3.723  37.914  61.813  1.00  0.00     0.105 A 
HETATM   20  C   UNL     1       4.880  38.647  61.729  1.00  0.00     0.105 A 
HETATM   21  O   UNL     1       2.904  38.113  60.746  1.00  0.00    -0.323 OA
HETATM   22  O   UNL     1       4.937  39.398  60.600  1.00  0.00    -0.323 OA
HETATM   23  C   UNL     1       5.844  38.590  62.711  1.00  0.00     0.040 A 
HETATM   24  C   UNL     1       3.696  39.032  59.960  1.00  0.00     0.352 A 
HETATM   25  C   UNL     1       5.611  37.754  63.808  1.00  0.00     0.012 A 
ENDBRANCH  16  17
ENDBRANCH  13  16
ENDBRANCH  10  13
ENDBRANCH   5   7
BRANCH   2  26
HETATM   26  C   UNL     1       9.063  30.185  58.849  1.00  0.00     0.252 C 
HETATM   27  N   UNL     1       8.177  29.255  58.362  1.00  0.00    -0.344 N 
HETATM   28  H   UNL     1       7.312  29.095  58.861  1.00  0.00     0.163 HD
HETATM   29  O   UNL     1      10.213  30.320  58.446  1.00  0.00    -0.268 OA
BRANCH  27  30
HETATM   30  C   UNL     1       8.449  28.383  57.218  1.00  0.00     0.171 C 
HETATM   31  C   UNL     1       8.450  29.132  55.873  1.00  0.00     0.220 C 
HETATM   32  O   UNL     1       9.456  29.700  55.449  1.00  0.00    -0.278 OA
HETATM   33  N   UNL     1       7.221  29.303  55.272  1.00  0.00    -0.261 NA
HETATM   34  C   UNL     1       6.542  28.133  54.758  1.00  0.00     0.095 C 
HETATM   35  H   UNL     1       6.604  29.811  55.909  1.00  0.00     0.130 HD
HETATM   36  C   UNL     1       5.597  27.492  55.769  1.00  0.00     0.015 C 
HETATM   37  C   UNL     1       6.184  27.076  57.120  1.00  0.00     0.004 C 
HETATM   38  C   UNL     1       7.705  27.041  57.237  1.00  0.00     0.034 C 
ENDBRANCH  27  30
ENDBRANCH   2  26
TORSDOF 6
ENDMDL
MODEL 9
REMARK VINA RESULT:      -9.7      5.850      9.696
REMARK  6 active torsions:
REMARK  status: ('A' for Active; 'I' for Inactive)
REMARK    1  A    between atoms: C_2  and  C_3 
REMARK       I    between atoms: C_3  and  N_4 
REMARK    2  A    between atoms: N_4  and  C_5 
REMARK    3  A    between atoms: C_16  and  N_17 
REMARK    4  A    between atoms: C_20  and  N_21 
REMARK    5  A    between atoms: N_21  and  C_24 
REMARK    6  A    between atoms: C_24  and  C_25 
ROOT
HETATM    1  C   UNL     1       6.372  29.249  57.640  1.00  0.00     0.019 A 
HETATM    2  C   UNL     1       7.720  29.296  57.986  1.00  0.00     0.032 A 
HETATM    3  C   UNL     1       8.643  28.526  57.276  1.00  0.00     0.019 A 
HETATM    4  C   UNL     1       8.208  27.730  56.206  1.00  0.00     0.030 A 
HETATM    5  C   UNL     1       6.858  27.679  55.826  1.00  0.00     0.030 A 
HETATM    6  C   UNL     1       5.951  28.442  56.579  1.00  0.00     0.030 A 
ENDROOT
BRANCH   5   7
HETATM    7  N   UNL     1       6.414  26.974  54.712  1.00  0.00    -0.381 N 
HETATM    8  C   UNL     1       6.955  27.331  53.405  1.00  0.00     0.125 C 
HETATM    9  C   UNL     1       7.161  26.046  52.612  1.00  0.00     0.053 C 
HETATM   10  C   UNL     1       5.894  25.189  52.560  1.00  0.00     0.189 C 
HETATM   11  C   UNL     1       5.296  24.964  53.953  1.00  0.00     0.053 C 
HETATM   12  C   UNL     1       5.145  26.259  54.751  1.00  0.00     0.125 C 
BRANCH  10  13
HETATM   13  N   UNL     1       4.843  25.799  51.670  1.00  0.00    -0.067 N 
HETATM   14  H   UNL     1       4.184  25.062  51.380  1.00  0.00     0.277 HD
HETATM   15  H   UNL     1       4.268  26.478  52.183  1.00  0.00     0.277 HD
BRANCH  13  16
HETATM   16  C   UNL     1       5.324  26.441  50.409  1.00  0.00     0.271 C 
BRANCH  16  17
HETATM   17  C   UNL     1       4.204  26.528  49.412  1.00  0.00    -0.030 A 
HETATM   18  C   UNL     1       3.589  27.762  49.144  1.00  0.00     0.048 A 
HETATM   19  C   UNL     1       2.597  27.796  48.187  1.00  0.00     0.105 A 
HETATM   20  C   UNL     1       2.211  26.674  47.497  1.00  0.00     0.105 A 
HETATM   21  O   UNL     1       1.901  28.901  47.810  1.00  0.00    -0.323 OA
HETATM   22  O   UNL     1       1.224  26.930  46.601  1.00  0.00    -0.323 OA
HETATM   23  C   UNL     1       2.795  25.448  47.726  1.00  0.00     0.040 A 
HETATM   24  C   UNL     1       1.004  28.339  46.825  1.00  0.00     0.352 A 
HETATM   25  C   UNL     1       3.802  25.376  48.695  1.00  0.00     0.012 A 
ENDBRANCH  16  17
ENDBRANCH  13  16
ENDBRANCH  10  13
ENDBRANCH   5   7
BRANCH   2  26
HETATM   26  C   UNL     1       8.144  30.250  59.037  1.00  0.00     0.252 C 
HETATM   27  N   UNL     1       7.146  30.940  59.680  1.00  0.00    -0.344 N 
HETATM   28  H   UNL     1       6.203  30.887  59.319  1.00  0.00     0.163 HD
HETATM   29  O   UNL     1       9.340  30.397  59.262  1.00  0.00    -0.268 OA
BRANCH  27  30
HETATM   30  C   UNL     1       7.371  31.855  60.800  1.00  0.00     0.171 C 
HETATM   31  C   UNL     1       7.453  31.136  62.160  1.00  0.00     0.220 C 
HETATM   32  O   UNL     1       8.507  30.656  62.576  1.00  0.00    -0.278 OA
HETATM   33  N   UNL     1       6.252  30.886  62.788  1.00  0.00    -0.261 NA
HETATM   34  C   UNL     1       5.495  32.011  63.292  1.00  0.00     0.095 C 
HETATM   35  H   UNL     1       5.664  30.319  62.174  1.00  0.00     0.130 HD
HETATM   36  C   UNL     1       4.486  32.557  62.288  1.00  0.00     0.015 C 
HETATM   37  C   UNL     1       5.015  32.988  60.917  1.00  0.00     0.004 C 
HETATM   38  C   UNL     1       6.526  33.135  60.770  1.00  0.00     0.034 C 
ENDBRANCH  27  30
ENDBRANCH   2  26
TORSDOF 6
ENDMDL
MODEL 10
REMARK VINA RESULT:      -9.7      9.879     11.956
REMARK  6 active torsions:
REMARK  status: ('A' for Active; 'I' for Inactive)
REMARK    1  A    between atoms: C_2  and  C_3 
REMARK       I    between atoms: C_3  and  N_4 
REMARK    2  A    between atoms: N_4  and  C_5 
REMARK    3  A    between atoms: C_16  and  N_17 
REMARK    4  A    between atoms: C_20  and  N_21 
REMARK    5  A    between atoms: N_21  and  C_24 
REMARK    6  A    between atoms: C_24  and  C_25 
ROOT
HETATM    1  C   UNL     1       2.749  31.079  56.265  1.00  0.00     0.019 A 
HETATM    2  C   UNL     1       2.453  31.799  55.109  1.00  0.00     0.032 A 
HETATM    3  C   UNL     1       3.030  31.424  53.895  1.00  0.00     0.019 A 
HETATM    4  C   UNL     1       3.884  30.313  53.843  1.00  0.00     0.030 A 
HETATM    5  C   UNL     1       4.183  29.559  54.989  1.00  0.00     0.030 A 
HETATM    6  C   UNL     1       3.611  29.980  56.201  1.00  0.00     0.030 A 
ENDROOT
BRANCH   5   7
HETATM    7  N   UNL     1       4.950  28.398  54.950  1.00  0.00    -0.381 N 
HETATM    8  C   UNL     1       5.886  28.149  56.039  1.00  0.00     0.125 C 
HETATM    9  C   UNL     1       5.861  26.658  56.353  1.00  0.00     0.053 C 
HETATM   10  C   UNL     1       6.096  25.801  55.108  1.00  0.00     0.189 C 
HETATM   11  C   UNL     1       5.174  26.204  53.952  1.00  0.00     0.053 C 
HETATM   12  C   UNL     1       5.176  27.709  53.686  1.00  0.00     0.125 C 
BRANCH  10  13
HETATM   13  N   UNL     1       7.526  25.875  54.640  1.00  0.00    -0.067 N 
HETATM   14  H   UNL     1       7.767  26.860  54.462  1.00  0.00     0.277 HD
HETATM   15  H   UNL     1       8.176  25.574  55.377  1.00  0.00     0.277 HD
BRANCH  13  16
HETATM   16  C   UNL     1       7.858  25.135  53.384  1.00  0.00     0.271 C 
BRANCH  16  17
HETATM   17  C   UNL     1       8.077  23.680  53.684  1.00  0.00    -0.030 A 
HETATM   18  C   UNL     1       8.486  23.275  54.965  1.00  0.00     0.048 A 
HETATM   19  C   UNL     1       8.627  21.923  55.202  1.00  0.00     0.105 A 
HETATM   20  C   UNL     1       8.372  20.984  54.235  1.00  0.00     0.105 A 
HETATM   21  O   UNL     1       9.017  21.365  56.379  1.00  0.00    -0.323 OA
HETATM   22  O   UNL     1       8.570  19.716  54.679  1.00  0.00    -0.323 OA
HETATM   23  C   UNL     1       7.962  21.341  52.970  1.00  0.00     0.040 A 
HETATM   24  C   UNL     1       9.012  19.961  56.031  1.00  0.00     0.352 A 
HETATM   25  C   UNL     1       7.813  22.704  52.693  1.00  0.00     0.012 A 
ENDBRANCH  16  17
ENDBRANCH  13  16
ENDBRANCH  10  13
ENDBRANCH   5   7
BRANCH   2  26
HETATM   26  C   UNL     1       1.446  32.882  55.194  1.00  0.00     0.252 C 
HETATM   27  N   UNL     1       0.330  32.747  54.406  1.00  0.00    -0.344 N 
HETATM   28  H   UNL     1       0.310  32.016  53.707  1.00  0.00     0.163 HD
HETATM   29  O   UNL     1       1.662  33.841  55.927  1.00  0.00    -0.268 OA
BRANCH  27  30
HETATM   30  C   UNL     1      -0.805  33.671  54.426  1.00  0.00     0.171 C 
HETATM   31  C   UNL     1      -1.796  33.387  55.569  1.00  0.00     0.220 C 
HETATM   32  O   UNL     1      -1.632  33.851  56.697  1.00  0.00    -0.278 OA
HETATM   33  N   UNL     1      -2.758  32.434  55.317  1.00  0.00    -0.261 NA
HETATM   34  C   UNL     1      -3.783  32.735  54.342  1.00  0.00     0.095 C 
HETATM   35  H   UNL     1      -2.300  31.551  55.078  1.00  0.00     0.130 HD
HETATM   36  C   UNL     1      -3.425  32.282  52.931  1.00  0.00     0.015 C 
HETATM   37  C   UNL     1      -2.113  32.799  52.334  1.00  0.00     0.004 C 
HETATM   38  C   UNL     1      -1.430  33.957  53.054  1.00  0.00     0.034 C 
ENDBRANCH  27  30
ENDBRANCH   2  26
TORSDOF 6
ENDMDL
