MODEL 1
REMARK VINA RESULT:     -10.2      0.000      0.000
REMARK  6 active torsions:
REMARK  status: ('A' for Active; 'I' for Inactive)
REMARK    1  A    between atoms: O_2  and  C_3 
REMARK    2  A    between atoms: C_5  and  C_6 
REMARK    3  A    between atoms: C_12  and  C_13 
REMARK       I    between atoms: C_13  and  N_14 
REMARK    4  A    between atoms: N_14  and  C_15 
REMARK    5  A    between atoms: C_17  and  O_18 
REMARK    6  A    between atoms: C_23  and  C_24 
ROOT
HETATM    1  C   UNL     1       7.014  24.157  54.836  1.00  0.00     0.118 C 
HETATM    2  N   UNL     1       7.460  25.314  55.626  1.00  0.00    -0.365 N 
HETATM    3  C   UNL     1       7.405  26.568  55.087  1.00  0.00     0.138 A 
HETATM    4  N   UNL     1       7.097  26.749  53.758  1.00  0.00    -0.240 N 
HETATM    5  N   UNL     1       7.124  28.024  53.351  1.00  0.00    -0.181 NA
HETATM    6  C   UNL     1       7.384  28.693  54.475  1.00  0.00     0.160 A 
HETATM    7  C   UNL     1       7.588  27.845  55.595  1.00  0.00     0.096 A 
HETATM    8  C   UNL     1       6.744  25.686  52.837  1.00  0.00     0.221 C 
HETATM    9  C   UNL     1       7.328  24.365  53.345  1.00  0.00     0.066 C 
HETATM   10  H   UNL     1       7.241  25.196  56.617  1.00  0.00     0.161 HD
ENDROOT
BRANCH   7  11
HETATM   11  C   UNL     1       7.901  28.306  56.938  1.00  0.00     0.261 C 
HETATM   12  N   UNL     1       7.963  29.680  57.070  1.00  0.00    -0.323 N 
HETATM   13  H   UNL     1       7.663  30.210  56.261  1.00  0.00     0.169 HD
HETATM   14  O   UNL     1       8.056  27.493  57.843  1.00  0.00    -0.267 OA
BRANCH  12  15
HETATM   15  C   UNL     1       8.317  30.413  58.224  1.00  0.00     0.037 A 
HETATM   16  C   UNL     1       7.492  30.546  59.345  1.00  0.00     0.066 A 
HETATM   17  C   UNL     1       7.926  31.283  60.446  1.00  0.00     0.067 A 
HETATM   18  C   UNL     1       9.174  31.889  60.456  1.00  0.00     0.036 A 
HETATM   19  C   UNL     1      10.004  31.758  59.346  1.00  0.00     0.005 A 
HETATM   20  C   UNL     1       9.577  31.024  58.235  1.00  0.00     0.029 A 
BRANCH  17  21
HETATM   21  O   UNL     1       7.138  31.433  61.552  1.00  0.00    -0.361 OA
HETATM   22  H   UNL     1       6.649  32.270  61.468  1.00  0.00     0.217 HD
ENDBRANCH  17  21
ENDBRANCH  12  15
ENDBRANCH   7  11
BRANCH   1  23
HETATM   23  C   UNL     1       7.675  22.886  55.333  1.00  0.00    -0.033 A 
HETATM   24  C   UNL     1       7.997  21.834  54.458  1.00  0.00     0.046 A 
HETATM   25  C   UNL     1       8.491  20.617  54.936  1.00  0.00     0.068 A 
HETATM   26  C   UNL     1       8.708  20.456  56.304  1.00  0.00     0.037 A 
HETATM   27  C   UNL     1       8.416  21.498  57.185  1.00  0.00     0.003 A 
HETATM   28  C   UNL     1       7.897  22.702  56.707  1.00  0.00     0.009 A 
BRANCH  25  29
HETATM   29  O   UNL     1       8.721  19.672  53.974  1.00  0.00    -0.356 OA
HETATM   30  C   UNL     1       8.618  20.106  52.623  1.00  0.00     0.210 C 
ENDBRANCH  25  29
ENDBRANCH   1  23
BRANCH   8  31
HETATM   31  C   UNL     1       5.241  25.630  52.668  1.00  0.00     0.409 C 
HETATM   32  F   UNL     1       4.786  24.386  52.398  1.00  0.00    -0.169 F 
HETATM   33  F   UNL     1       4.568  26.089  53.743  1.00  0.00    -0.169 F 
HETATM   34  F   UNL     1       4.868  26.409  51.618  1.00  0.00    -0.169 F 
ENDBRANCH   8  31
TORSDOF 6
ENDMDL
MODEL 2
REMARK VINA RESULT:     -10.0      3.798      7.019
REMARK  6 active torsions:
REMARK  status: ('A' for Active; 'I' for Inactive)
REMARK    1  A    between atoms: O_2  and  C_3 
REMARK    2  A    between atoms: C_5  and  C_6 
REMARK    3  A    between atoms: C_12  and  C_13 
REMARK       I    between atoms: C_13  and  N_14 
REMARK    4  A    between atoms: N_14  and  C_15 
REMARK    5  A    between atoms: C_17  and  O_18 
REMARK    6  A    between atoms: C_23  and  C_24 
ROOT
HETATM    1  C   UNL     1       7.240  25.195  54.990  1.00  0.00     0.118 C 
HETATM    2  N   UNL     1       6.249  25.842  54.116  1.00  0.00    -0.365 N 
HETATM    3  C   UNL     1       5.526  26.906  54.577  1.00  0.00     0.138 A 
HETATM    4  N   UNL     1       5.588  27.277  55.902  1.00  0.00    -0.240 N 
HETATM    5  N   UNL     1       4.795  28.305  56.227  1.00  0.00    -0.181 NA
HETATM    6  C   UNL     1       4.262  28.655  55.056  1.00  0.00     0.160 A 
HETATM    7  C   UNL     1       4.662  27.813  53.986  1.00  0.00     0.096 A 
HETATM    8  C   UNL     1       6.440  26.655  56.897  1.00  0.00     0.221 C 
HETATM    9  C   UNL     1       6.772  25.228  56.456  1.00  0.00     0.066 C 
HETATM   10  H   UNL     1       6.556  25.843  53.142  1.00  0.00     0.161 HD
ENDROOT
BRANCH   7  11
HETATM   11  C   UNL     1       4.221  27.958  52.608  1.00  0.00     0.261 C 
HETATM   12  N   UNL     1       5.103  27.457  51.670  1.00  0.00    -0.323 N 
HETATM   13  H   UNL     1       5.889  26.938  52.043  1.00  0.00     0.169 HD
HETATM   14  O   UNL     1       3.131  28.465  52.365  1.00  0.00    -0.267 OA
BRANCH  12  15
HETATM   15  C   UNL     1       4.985  27.521  50.265  1.00  0.00     0.037 A 
HETATM   16  C   UNL     1       4.455  26.492  49.480  1.00  0.00     0.066 A 
HETATM   17  C   UNL     1       4.369  26.643  48.097  1.00  0.00     0.067 A 
HETATM   18  C   UNL     1       4.795  27.808  47.475  1.00  0.00     0.036 A 
HETATM   19  C   UNL     1       5.319  28.841  48.248  1.00  0.00     0.005 A 
HETATM   20  C   UNL     1       5.415  28.697  49.637  1.00  0.00     0.029 A 
BRANCH  17  21
HETATM   21  O   UNL     1       3.861  25.651  47.307  1.00  0.00    -0.361 OA
HETATM   22  H   UNL     1       4.575  25.020  47.111  1.00  0.00     0.217 HD
ENDBRANCH  17  21
ENDBRANCH  12  15
ENDBRANCH   7  11
BRANCH   1  23
HETATM   23  C   UNL     1       7.480  23.763  54.553  1.00  0.00    -0.033 A 
HETATM   24  C   UNL     1       7.609  22.722  55.489  1.00  0.00     0.046 A 
HETATM   25  C   UNL     1       7.953  21.427  55.090  1.00  0.00     0.068 A 
HETATM   26  C   UNL     1       8.132  21.152  53.736  1.00  0.00     0.037 A 
HETATM   27  C   UNL     1       7.985  22.169  52.791  1.00  0.00     0.003 A 
HETATM   28  C   UNL     1       7.668  23.466  53.195  1.00  0.00     0.009 A 
BRANCH  25  29
HETATM   29  O   UNL     1       8.084  20.526  56.112  1.00  0.00    -0.356 OA
HETATM   30  C   UNL     1       8.361  21.066  57.399  1.00  0.00     0.210 C 
ENDBRANCH  25  29
ENDBRANCH   1  23
BRANCH   8  31
HETATM   31  C   UNL     1       7.677  27.499  57.115  1.00  0.00     0.409 C 
HETATM   32  F   UNL     1       8.027  28.215  56.023  1.00  0.00    -0.169 F 
HETATM   33  F   UNL     1       7.560  28.357  58.149  1.00  0.00    -0.169 F 
HETATM   34  F   UNL     1       8.736  26.695  57.399  1.00  0.00    -0.169 F 
ENDBRANCH   8  31
TORSDOF 6
ENDMDL
MODEL 3
REMARK VINA RESULT:      -9.5      3.033      5.268
REMARK  6 active torsions:
REMARK  status: ('A' for Active; 'I' for Inactive)
REMARK    1  A    between atoms: O_2  and  C_3 
REMARK    2  A    between atoms: C_5  and  C_6 
REMARK    3  A    between atoms: C_12  and  C_13 
REMARK       I    between atoms: C_13  and  N_14 
REMARK    4  A    between atoms: N_14  and  C_15 
REMARK    5  A    between atoms: C_17  and  O_18 
REMARK    6  A    between atoms: C_23  and  C_24 
ROOT
HETATM    1  C   UNL     1       6.099  26.011  52.068  1.00  0.00     0.118 C 
HETATM    2  N   UNL     1       6.364  26.858  53.241  1.00  0.00    -0.365 N 
HETATM    3  C   UNL     1       6.729  26.285  54.426  1.00  0.00     0.138 A 
HETATM    4  N   UNL     1       6.691  24.918  54.587  1.00  0.00    -0.240 N 
HETATM    5  N   UNL     1       7.029  24.495  55.812  1.00  0.00    -0.181 NA
HETATM    6  C   UNL     1       7.371  25.623  56.436  1.00  0.00     0.160 A 
HETATM    7  C   UNL     1       7.192  26.781  55.634  1.00  0.00     0.096 A 
HETATM    8  C   UNL     1       6.341  23.971  53.547  1.00  0.00     0.221 C 
HETATM    9  C   UNL     1       5.475  24.671  52.497  1.00  0.00     0.066 C 
HETATM   10  H   UNL     1       6.795  27.743  52.971  1.00  0.00     0.161 HD
ENDROOT
BRANCH   7  11
HETATM   11  C   UNL     1       7.471  28.140  56.068  1.00  0.00     0.261 C 
HETATM   12  N   UNL     1       8.364  28.233  57.119  1.00  0.00    -0.323 N 
HETATM   13  H   UNL     1       8.817  27.366  57.384  1.00  0.00     0.169 HD
HETATM   14  O   UNL     1       6.949  29.086  55.489  1.00  0.00    -0.267 OA
BRANCH  12  15
HETATM   15  C   UNL     1       8.767  29.403  57.798  1.00  0.00     0.037 A 
HETATM   16  C   UNL     1       8.067  29.958  58.875  1.00  0.00     0.066 A 
HETATM   17  C   UNL     1       8.543  31.113  59.494  1.00  0.00     0.067 A 
HETATM   18  C   UNL     1       9.712  31.727  59.065  1.00  0.00     0.036 A 
HETATM   19  C   UNL     1      10.418  31.178  57.997  1.00  0.00     0.005 A 
HETATM   20  C   UNL     1       9.947  30.022  57.366  1.00  0.00     0.029 A 
BRANCH  17  21
HETATM   21  O   UNL     1       7.876  31.679  60.543  1.00  0.00    -0.361 OA
HETATM   22  H   UNL     1       7.107  31.122  60.753  1.00  0.00     0.217 HD
ENDBRANCH  17  21
ENDBRANCH  12  15
ENDBRANCH   7  11
BRANCH   1  23
HETATM   23  C   UNL     1       5.180  26.723  51.094  1.00  0.00    -0.033 A 
HETATM   24  C   UNL     1       4.961  26.229  49.796  1.00  0.00     0.046 A 
HETATM   25  C   UNL     1       4.214  26.951  48.861  1.00  0.00     0.068 A 
HETATM   26  C   UNL     1       3.641  28.166  49.234  1.00  0.00     0.037 A 
HETATM   27  C   UNL     1       3.830  28.660  50.525  1.00  0.00     0.003 A 
HETATM   28  C   UNL     1       4.598  27.949  51.448  1.00  0.00     0.009 A 
BRANCH  25  29
HETATM   29  O   UNL     1       4.118  26.369  47.627  1.00  0.00    -0.356 OA
HETATM   30  C   UNL     1       2.989  25.530  47.410  1.00  0.00     0.210 C 
ENDBRANCH  25  29
ENDBRANCH   1  23
BRANCH   8  31
HETATM   31  C   UNL     1       7.598  23.369  52.956  1.00  0.00     0.409 C 
HETATM   32  F   UNL     1       7.907  23.879  51.743  1.00  0.00    -0.169 F 
HETATM   33  F   UNL     1       8.679  23.511  53.749  1.00  0.00    -0.169 F 
HETATM   34  F   UNL     1       7.426  22.033  52.775  1.00  0.00    -0.169 F 
ENDBRANCH   8  31
TORSDOF 6
ENDMDL
MODEL 4
REMARK VINA RESULT:      -9.1      4.693     10.516
REMARK  6 active torsions:
REMARK  status: ('A' for Active; 'I' for Inactive)
REMARK    1  A    between atoms: O_2  and  C_3 
REMARK    2  A    between atoms: C_5  and  C_6 
REMARK    3  A    between atoms: C_12  and  C_13 
REMARK       I    between atoms: C_13  and  N_14 
REMARK    4  A    between atoms: N_14  and  C_15 
REMARK    5  A    between atoms: C_17  and  O_18 
REMARK    6  A    between atoms: C_23  and  C_24 
ROOT
HETATM    1  C   UNL     1       6.434  32.127  60.723  1.00  0.00     0.118 C 
HETATM    2  N   UNL     1       6.327  31.178  59.604  1.00  0.00    -0.365 N 
HETATM    3  C   UNL     1       7.455  30.756  58.959  1.00  0.00     0.138 A 
HETATM    4  N   UNL     1       8.676  31.333  59.228  1.00  0.00    -0.240 N 
HETATM    5  N   UNL     1       9.687  30.857  58.492  1.00  0.00    -0.181 NA
HETATM    6  C   UNL     1       9.111  29.888  57.780  1.00  0.00     0.160 A 
HETATM    7  C   UNL     1       7.714  29.781  58.010  1.00  0.00     0.096 A 
HETATM    8  C   UNL     1       8.906  32.357  60.228  1.00  0.00     0.221 C 
HETATM    9  C   UNL     1       7.598  33.107  60.493  1.00  0.00     0.066 C 
HETATM   10  H   UNL     1       5.569  30.511  59.754  1.00  0.00     0.161 HD
ENDROOT
BRANCH   7  11
HETATM   11  C   UNL     1       6.838  28.822  57.356  1.00  0.00     0.261 C 
HETATM   12  N   UNL     1       7.476  27.977  56.469  1.00  0.00    -0.323 N 
HETATM   13  H   UNL     1       8.488  28.031  56.465  1.00  0.00     0.169 HD
HETATM   14  O   UNL     1       5.644  28.796  57.635  1.00  0.00    -0.267 OA
BRANCH  12  15
HETATM   15  C   UNL     1       6.882  27.003  55.638  1.00  0.00     0.037 A 
HETATM   16  C   UNL     1       5.780  27.250  54.813  1.00  0.00     0.066 A 
HETATM   17  C   UNL     1       5.261  26.230  54.017  1.00  0.00     0.067 A 
HETATM   18  C   UNL     1       5.826  24.962  54.020  1.00  0.00     0.036 A 
HETATM   19  C   UNL     1       6.926  24.707  54.834  1.00  0.00     0.005 A 
HETATM   20  C   UNL     1       7.451  25.723  55.640  1.00  0.00     0.029 A 
BRANCH  17  21
HETATM   21  O   UNL     1       4.183  26.443  53.207  1.00  0.00    -0.361 OA
HETATM   22  H   UNL     1       3.447  25.891  53.524  1.00  0.00     0.217 HD
ENDBRANCH  17  21
ENDBRANCH  12  15
ENDBRANCH   7  11
BRANCH   1  23
HETATM   23  C   UNL     1       5.137  32.894  60.896  1.00  0.00    -0.033 A 
HETATM   24  C   UNL     1       4.526  33.029  62.155  1.00  0.00     0.046 A 
HETATM   25  C   UNL     1       3.271  33.629  62.292  1.00  0.00     0.068 A 
HETATM   26  C   UNL     1       2.628  34.138  61.165  1.00  0.00     0.037 A 
HETATM   27  C   UNL     1       3.231  34.032  59.910  1.00  0.00     0.003 A 
HETATM   28  C   UNL     1       4.472  33.409  59.773  1.00  0.00     0.009 A 
BRANCH  25  29
HETATM   29  O   UNL     1       2.782  33.655  63.569  1.00  0.00    -0.356 OA
HETATM   30  C   UNL     1       3.590  34.308  64.543  1.00  0.00     0.210 C 
ENDBRANCH  25  29
ENDBRANCH   1  23
BRANCH   8  31
HETATM   31  C   UNL     1       9.480  31.732  61.482  1.00  0.00     0.409 C 
HETATM   32  F   UNL     1       9.264  30.400  61.555  1.00  0.00    -0.169 F 
HETATM   33  F   UNL     1      10.806  31.941  61.619  1.00  0.00    -0.169 F 
HETATM   34  F   UNL     1       8.889  32.276  62.578  1.00  0.00    -0.169 F 
ENDBRANCH   8  31
TORSDOF 6
ENDMDL
MODEL 5
REMARK VINA RESULT:      -9.0      3.188      9.125
REMARK  6 active torsions:
REMARK  status: ('A' for Active; 'I' for Inactive)
REMARK    1  A    between atoms: O_2  and  C_3 
REMARK    2  A    between atoms: C_5  and  C_6 
REMARK    3  A    between atoms: C_12  and  C_13 
REMARK       I    between atoms: C_13  and  N_14 
REMARK    4  A    between atoms: N_14  and  C_15 
REMARK    5  A    between atoms: C_17  and  O_18 
REMARK    6  A    between atoms: C_23  and  C_24 
ROOT
HETATM    1  C   UNL     1       6.553  31.221  58.541  1.00  0.00     0.118 C 
HETATM    2  N   UNL     1       6.670  29.866  57.980  1.00  0.00    -0.365 N 
HETATM    3  C   UNL     1       5.695  29.385  57.153  1.00  0.00     0.138 A 
HETATM    4  N   UNL     1       4.522  30.082  56.970  1.00  0.00    -0.240 N 
HETATM    5  N   UNL     1       3.635  29.474  56.172  1.00  0.00    -0.181 NA
HETATM    6  C   UNL     1       4.292  28.386  55.768  1.00  0.00     0.160 A 
HETATM    7  C   UNL     1       5.577  28.259  56.355  1.00  0.00     0.096 A 
HETATM    8  C   UNL     1       4.229  31.378  57.550  1.00  0.00     0.221 C 
HETATM    9  C   UNL     1       5.079  31.571  58.809  1.00  0.00     0.066 C 
HETATM   10  H   UNL     1       7.643  29.629  57.781  1.00  0.00     0.161 HD
ENDROOT
BRANCH   7  11
HETATM   11  C   UNL     1       6.499  27.162  56.104  1.00  0.00     0.261 C 
HETATM   12  N   UNL     1       6.113  26.315  55.083  1.00  0.00    -0.323 N 
HETATM   13  H   UNL     1       5.310  26.617  54.544  1.00  0.00     0.169 HD
HETATM   14  O   UNL     1       7.531  27.068  56.759  1.00  0.00    -0.267 OA
BRANCH  12  15
HETATM   15  C   UNL     1       6.759  25.131  54.663  1.00  0.00     0.037 A 
HETATM   16  C   UNL     1       6.822  23.964  55.431  1.00  0.00     0.066 A 
HETATM   17  C   UNL     1       7.474  22.837  54.935  1.00  0.00     0.067 A 
HETATM   18  C   UNL     1       8.063  22.845  53.678  1.00  0.00     0.036 A 
HETATM   19  C   UNL     1       8.001  24.001  52.904  1.00  0.00     0.005 A 
HETATM   20  C   UNL     1       7.353  25.139  53.395  1.00  0.00     0.029 A 
BRANCH  17  21
HETATM   21  O   UNL     1       7.555  21.687  55.666  1.00  0.00    -0.361 OA
HETATM   22  H   UNL     1       7.639  20.938  55.051  1.00  0.00     0.217 HD
ENDBRANCH  17  21
ENDBRANCH  12  15
ENDBRANCH   7  11
BRANCH   1  23
HETATM   23  C   UNL     1       7.355  31.338  59.823  1.00  0.00    -0.033 A 
HETATM   24  C   UNL     1       6.983  32.230  60.844  1.00  0.00     0.046 A 
HETATM   25  C   UNL     1       7.791  32.425  61.967  1.00  0.00     0.068 A 
HETATM   26  C   UNL     1       8.969  31.691  62.099  1.00  0.00     0.037 A 
HETATM   27  C   UNL     1       9.342  30.784  61.106  1.00  0.00     0.003 A 
HETATM   28  C   UNL     1       8.547  30.612  59.973  1.00  0.00     0.009 A 
BRANCH  25  29
HETATM   29  O   UNL     1       7.324  33.352  62.858  1.00  0.00    -0.356 OA
HETATM   30  C   UNL     1       7.593  33.100  64.233  1.00  0.00     0.210 C 
ENDBRANCH  25  29
ENDBRANCH   1  23
BRANCH   8  31
HETATM   31  C   UNL     1       4.458  32.466  56.523  1.00  0.00     0.409 C 
HETATM   32  F   UNL     1       5.312  32.095  55.543  1.00  0.00    -0.169 F 
HETATM   33  F   UNL     1       3.320  32.890  55.937  1.00  0.00    -0.169 F 
HETATM   34  F   UNL     1       5.012  33.553  57.121  1.00  0.00    -0.169 F 
ENDBRANCH   8  31
TORSDOF 6
ENDMDL
MODEL 6
REMARK VINA RESULT:      -9.0      1.911      2.284
REMARK  6 active torsions:
REMARK  status: ('A' for Active; 'I' for Inactive)
REMARK    1  A    between atoms: O_2  and  C_3 
REMARK    2  A    between atoms: C_5  and  C_6 
REMARK    3  A    between atoms: C_12  and  C_13 
REMARK       I    between atoms: C_13  and  N_14 
REMARK    4  A    between atoms: N_14  and  C_15 
REMARK    5  A    between atoms: C_17  and  O_18 
REMARK    6  A    between atoms: C_23  and  C_24 
ROOT
HETATM    1  C   UNL     1       6.543  24.518  54.324  1.00  0.00     0.118 C 
HETATM    2  N   UNL     1       6.456  25.730  55.152  1.00  0.00    -0.365 N 
HETATM    3  C   UNL     1       6.247  26.944  54.562  1.00  0.00     0.138 A 
HETATM    4  N   UNL     1       6.283  27.076  53.192  1.00  0.00    -0.240 N 
HETATM    5  N   UNL     1       6.109  28.327  52.750  1.00  0.00    -0.181 NA
HETATM    6  C   UNL     1       5.876  29.012  53.871  1.00  0.00     0.160 A 
HETATM    7  C   UNL     1       5.964  28.213  55.041  1.00  0.00     0.096 A 
HETATM    8  C   UNL     1       6.470  25.981  52.260  1.00  0.00     0.221 C 
HETATM    9  C   UNL     1       7.196  24.834  52.967  1.00  0.00     0.066 C 
HETATM   10  H   UNL     1       6.008  25.537  56.049  1.00  0.00     0.161 HD
ENDROOT
BRANCH   7  11
HETATM   11  C   UNL     1       5.770  28.704  56.396  1.00  0.00     0.261 C 
HETATM   12  N   UNL     1       5.402  30.034  56.475  1.00  0.00    -0.323 N 
HETATM   13  H   UNL     1       5.186  30.480  55.591  1.00  0.00     0.169 HD
HETATM   14  O   UNL     1       5.909  27.944  57.348  1.00  0.00    -0.267 OA
BRANCH  12  15
HETATM   15  C   UNL     1       5.219  30.803  57.644  1.00  0.00     0.037 A 
HETATM   16  C   UNL     1       3.980  30.992  58.265  1.00  0.00     0.066 A 
HETATM   17  C   UNL     1       3.891  31.762  59.424  1.00  0.00     0.067 A 
HETATM   18  C   UNL     1       5.019  32.345  59.986  1.00  0.00     0.036 A 
HETATM   19  C   UNL     1       6.258  32.157  59.378  1.00  0.00     0.005 A 
HETATM   20  C   UNL     1       6.357  31.391  58.212  1.00  0.00     0.029 A 
BRANCH  17  21
HETATM   21  O   UNL     1       2.694  31.968  60.047  1.00  0.00    -0.361 OA
HETATM   22  H   UNL     1       2.852  32.497  60.848  1.00  0.00     0.217 HD
ENDBRANCH  17  21
ENDBRANCH  12  15
ENDBRANCH   7  11
BRANCH   1  23
HETATM   23  C   UNL     1       7.331  23.438  55.040  1.00  0.00    -0.033 A 
HETATM   24  C   UNL     1       7.635  22.215  54.418  1.00  0.00     0.046 A 
HETATM   25  C   UNL     1       8.253  21.177  55.121  1.00  0.00     0.068 A 
HETATM   26  C   UNL     1       8.611  21.371  56.455  1.00  0.00     0.037 A 
HETATM   27  C   UNL     1       8.337  22.588  57.081  1.00  0.00     0.003 A 
HETATM   28  C   UNL     1       7.696  23.612  56.384  1.00  0.00     0.009 A 
BRANCH  25  29
HETATM   29  O   UNL     1       8.450  20.031  54.400  1.00  0.00    -0.356 OA
HETATM   30  C   UNL     1       8.629  20.190  52.997  1.00  0.00     0.210 C 
ENDBRANCH  25  29
ENDBRANCH   1  23
BRANCH   8  31
HETATM   31  C   UNL     1       5.133  25.558  51.688  1.00  0.00     0.409 C 
HETATM   32  F   UNL     1       4.083  26.087  52.354  1.00  0.00    -0.169 F 
HETATM   33  F   UNL     1       4.992  25.869  50.383  1.00  0.00    -0.169 F 
HETATM   34  F   UNL     1       5.002  24.208  51.779  1.00  0.00    -0.169 F 
ENDBRANCH   8  31
TORSDOF 6
ENDMDL
MODEL 7
REMARK VINA RESULT:      -8.5      3.858      8.693
REMARK  6 active torsions:
REMARK  status: ('A' for Active; 'I' for Inactive)
REMARK    1  A    between atoms: O_2  and  C_3 
REMARK    2  A    between atoms: C_5  and  C_6 
REMARK    3  A    between atoms: C_12  and  C_13 
REMARK       I    between atoms: C_13  and  N_14 
REMARK    4  A    between atoms: N_14  and  C_15 
REMARK    5  A    between atoms: C_17  and  O_18 
REMARK    6  A    between atoms: C_23  and  C_24 
ROOT
HETATM    1  C   UNL     1       6.664  27.132  56.365  1.00  0.00     0.118 C 
HETATM    2  N   UNL     1       6.266  27.263  54.955  1.00  0.00    -0.365 N 
HETATM    3  C   UNL     1       6.642  26.313  54.049  1.00  0.00     0.138 A 
HETATM    4  N   UNL     1       7.529  25.320  54.400  1.00  0.00    -0.240 N 
HETATM    5  N   UNL     1       7.847  24.483  53.404  1.00  0.00    -0.181 NA
HETATM    6  C   UNL     1       7.079  24.907  52.399  1.00  0.00     0.160 A 
HETATM    7  C   UNL     1       6.314  26.056  52.728  1.00  0.00     0.096 A 
HETATM    8  C   UNL     1       8.086  25.137  55.726  1.00  0.00     0.221 C 
HETATM    9  C   UNL     1       8.048  26.470  56.477  1.00  0.00     0.066 C 
HETATM   10  H   UNL     1       5.340  27.685  54.868  1.00  0.00     0.161 HD
ENDROOT
BRANCH   7  11
HETATM   11  C   UNL     1       5.405  26.735  51.818  1.00  0.00     0.261 C 
HETATM   12  N   UNL     1       5.552  26.377  50.491  1.00  0.00    -0.323 N 
HETATM   13  H   UNL     1       6.179  25.601  50.315  1.00  0.00     0.169 HD
HETATM   14  O   UNL     1       4.578  27.527  52.256  1.00  0.00    -0.267 OA
BRANCH  12  15
HETATM   15  C   UNL     1       4.871  26.917  49.379  1.00  0.00     0.037 A 
HETATM   16  C   UNL     1       4.131  26.151  48.472  1.00  0.00     0.066 A 
HETATM   17  C   UNL     1       3.482  26.768  47.404  1.00  0.00     0.067 A 
HETATM   18  C   UNL     1       3.548  28.143  47.223  1.00  0.00     0.036 A 
HETATM   19  C   UNL     1       4.278  28.914  48.124  1.00  0.00     0.005 A 
HETATM   20  C   UNL     1       4.937  28.304  49.196  1.00  0.00     0.029 A 
BRANCH  17  21
HETATM   21  O   UNL     1       2.758  26.043  46.502  1.00  0.00    -0.361 OA
HETATM   22  H   UNL     1       3.330  25.342  46.143  1.00  0.00     0.217 HD
ENDBRANCH  17  21
ENDBRANCH  12  15
ENDBRANCH   7  11
BRANCH   1  23
HETATM   23  C   UNL     1       6.680  28.488  57.043  1.00  0.00    -0.033 A 
HETATM   24  C   UNL     1       7.797  28.932  57.772  1.00  0.00     0.046 A 
HETATM   25  C   UNL     1       7.762  30.126  58.498  1.00  0.00     0.068 A 
HETATM   26  C   UNL     1       6.612  30.913  58.467  1.00  0.00     0.037 A 
HETATM   27  C   UNL     1       5.501  30.498  57.730  1.00  0.00     0.003 A 
HETATM   28  C   UNL     1       5.530  29.292  57.029  1.00  0.00     0.009 A 
BRANCH  25  29
HETATM   29  O   UNL     1       8.906  30.411  59.191  1.00  0.00    -0.356 OA
HETATM   30  C   UNL     1       9.825  31.296  58.559  1.00  0.00     0.210 C 
ENDBRANCH  25  29
ENDBRANCH   1  23
BRANCH   8  31
HETATM   31  C   UNL     1       7.336  24.040  56.452  1.00  0.00     0.409 C 
HETATM   32  F   UNL     1       6.271  24.499  57.148  1.00  0.00    -0.169 F 
HETATM   33  F   UNL     1       6.900  23.062  55.632  1.00  0.00    -0.169 F 
HETATM   34  F   UNL     1       8.156  23.446  57.359  1.00  0.00    -0.169 F 
ENDBRANCH   8  31
TORSDOF 6
ENDMDL
MODEL 8
REMARK VINA RESULT:      -8.5      1.680      2.351
REMARK  6 active torsions:
REMARK  status: ('A' for Active; 'I' for Inactive)
REMARK    1  A    between atoms: O_2  and  C_3 
REMARK    2  A    between atoms: C_5  and  C_6 
REMARK    3  A    between atoms: C_12  and  C_13 
REMARK       I    between atoms: C_13  and  N_14 
REMARK    4  A    between atoms: N_14  and  C_15 
REMARK    5  A    between atoms: C_17  and  O_18 
REMARK    6  A    between atoms: C_23  and  C_24 
ROOT
HETATM    1  C   UNL     1       6.463  24.788  53.526  1.00  0.00     0.118 C 
HETATM    2  N   UNL     1       6.529  25.896  54.491  1.00  0.00    -0.365 N 
HETATM    3  C   UNL     1       6.274  27.174  54.080  1.00  0.00     0.138 A 
HETATM    4  N   UNL     1       6.123  27.465  52.743  1.00  0.00    -0.240 N 
HETATM    5  N   UNL     1       5.924  28.762  52.477  1.00  0.00    -0.181 NA
HETATM    6  C   UNL     1       5.871  29.312  53.691  1.00  0.00     0.160 A 
HETATM    7  C   UNL     1       6.098  28.381  54.737  1.00  0.00     0.096 A 
HETATM    8  C   UNL     1       6.145  26.485  51.674  1.00  0.00     0.221 C 
HETATM    9  C   UNL     1       6.928  25.254  52.135  1.00  0.00     0.066 C 
HETATM   10  H   UNL     1       6.205  25.604  55.415  1.00  0.00     0.161 HD
ENDROOT
BRANCH   7  11
HETATM   11  C   UNL     1       6.111  28.712  56.153  1.00  0.00     0.261 C 
HETATM   12  N   UNL     1       6.734  29.907  56.455  1.00  0.00    -0.323 N 
HETATM   13  H   UNL     1       6.997  30.476  55.658  1.00  0.00     0.169 HD
HETATM   14  O   UNL     1       5.571  27.964  56.961  1.00  0.00    -0.267 OA
BRANCH  12  15
HETATM   15  C   UNL     1       6.967  30.451  57.736  1.00  0.00     0.037 A 
HETATM   16  C   UNL     1       7.900  29.936  58.643  1.00  0.00     0.066 A 
HETATM   17  C   UNL     1       8.071  30.542  59.887  1.00  0.00     0.067 A 
HETATM   18  C   UNL     1       7.333  31.662  60.246  1.00  0.00     0.036 A 
HETATM   19  C   UNL     1       6.407  32.185  59.348  1.00  0.00     0.005 A 
HETATM   20  C   UNL     1       6.224  31.581  58.099  1.00  0.00     0.029 A 
BRANCH  17  21
HETATM   21  O   UNL     1       8.970  30.056  60.793  1.00  0.00    -0.361 OA
HETATM   22  H   UNL     1       8.536  29.354  61.308  1.00  0.00     0.217 HD
ENDBRANCH  17  21
ENDBRANCH  12  15
ENDBRANCH   7  11
BRANCH   1  23
HETATM   23  C   UNL     1       7.312  23.622  53.994  1.00  0.00    -0.033 A 
HETATM   24  C   UNL     1       7.590  23.416  55.356  1.00  0.00     0.046 A 
HETATM   25  C   UNL     1       8.473  22.416  55.773  1.00  0.00     0.068 A 
HETATM   26  C   UNL     1       9.060  21.580  54.824  1.00  0.00     0.037 A 
HETATM   27  C   UNL     1       8.777  21.756  53.469  1.00  0.00     0.003 A 
HETATM   28  C   UNL     1       7.916  22.773  53.054  1.00  0.00     0.009 A 
BRANCH  25  29
HETATM   29  O   UNL     1       8.680  22.358  57.124  1.00  0.00    -0.356 OA
HETATM   30  C   UNL     1       8.353  21.128  57.762  1.00  0.00     0.210 C 
ENDBRANCH  25  29
ENDBRANCH   1  23
BRANCH   8  31
HETATM   31  C   UNL     1       4.730  26.149  51.255  1.00  0.00     0.409 C 
HETATM   32  F   UNL     1       4.583  24.860  50.875  1.00  0.00    -0.169 F 
HETATM   33  F   UNL     1       3.817  26.400  52.216  1.00  0.00    -0.169 F 
HETATM   34  F   UNL     1       4.377  26.906  50.182  1.00  0.00    -0.169 F 
ENDBRANCH   8  31
TORSDOF 6
ENDMDL
MODEL 9
REMARK VINA RESULT:      -8.5      3.669      5.996
REMARK  6 active torsions:
REMARK  status: ('A' for Active; 'I' for Inactive)
REMARK    1  A    between atoms: O_2  and  C_3 
REMARK    2  A    between atoms: C_5  and  C_6 
REMARK    3  A    between atoms: C_12  and  C_13 
REMARK       I    between atoms: C_13  and  N_14 
REMARK    4  A    between atoms: N_14  and  C_15 
REMARK    5  A    between atoms: C_17  and  O_18 
REMARK    6  A    between atoms: C_23  and  C_24 
ROOT
HETATM    1  C   UNL     1       5.883  26.434  52.262  1.00  0.00     0.118 C 
HETATM    2  N   UNL     1       5.467  27.367  53.321  1.00  0.00    -0.365 N 
HETATM    3  C   UNL     1       5.345  26.925  54.607  1.00  0.00     0.138 A 
HETATM    4  N   UNL     1       5.440  25.584  54.903  1.00  0.00    -0.240 N 
HETATM    5  N   UNL     1       5.254  25.286  56.195  1.00  0.00    -0.181 NA
HETATM    6  C   UNL     1       5.110  26.485  56.761  1.00  0.00     0.160 A 
HETATM    7  C   UNL     1       5.139  27.552  55.826  1.00  0.00     0.096 A 
HETATM    8  C   UNL     1       5.737  24.543  53.939  1.00  0.00     0.221 C 
HETATM    9  C   UNL     1       5.339  25.022  52.540  1.00  0.00     0.066 C 
HETATM   10  H   UNL     1       5.837  28.304  53.157  1.00  0.00     0.161 HD
ENDROOT
BRANCH   7  11
HETATM   11  C   UNL     1       4.990  28.958  56.168  1.00  0.00     0.261 C 
HETATM   12  N   UNL     1       5.041  29.225  57.522  1.00  0.00    -0.323 N 
HETATM   13  H   UNL     1       5.299  28.443  58.112  1.00  0.00     0.169 HD
HETATM   14  O   UNL     1       4.864  29.793  55.279  1.00  0.00    -0.267 OA
BRANCH  12  15
HETATM   15  C   UNL     1       4.853  30.473  58.155  1.00  0.00     0.037 A 
HETATM   16  C   UNL     1       3.664  30.855  58.786  1.00  0.00     0.066 A 
HETATM   17  C   UNL     1       3.569  32.105  59.395  1.00  0.00     0.067 A 
HETATM   18  C   UNL     1       4.642  32.986  59.395  1.00  0.00     0.036 A 
HETATM   19  C   UNL     1       5.831  32.612  58.774  1.00  0.00     0.005 A 
HETATM   20  C   UNL     1       5.935  31.362  58.156  1.00  0.00     0.029 A 
BRANCH  17  21
HETATM   21  O   UNL     1       2.419  32.505  60.013  1.00  0.00    -0.361 OA
HETATM   22  H   UNL     1       2.321  31.998  60.837  1.00  0.00     0.217 HD
ENDBRANCH  17  21
ENDBRANCH  12  15
ENDBRANCH   7  11
BRANCH   1  23
HETATM   23  C   UNL     1       5.403  26.917  50.907  1.00  0.00    -0.033 A 
HETATM   24  C   UNL     1       5.568  28.254  50.503  1.00  0.00     0.046 A 
HETATM   25  C   UNL     1       5.015  28.724  49.309  1.00  0.00     0.068 A 
HETATM   26  C   UNL     1       4.320  27.843  48.481  1.00  0.00     0.037 A 
HETATM   27  C   UNL     1       4.167  26.507  48.856  1.00  0.00     0.003 A 
HETATM   28  C   UNL     1       4.697  26.047  50.062  1.00  0.00     0.009 A 
BRANCH  25  29
HETATM   29  O   UNL     1       5.220  30.054  49.064  1.00  0.00    -0.356 OA
HETATM   30  C   UNL     1       5.447  30.879  50.202  1.00  0.00     0.210 C 
ENDBRANCH  25  29
ENDBRANCH   1  23
BRANCH   8  31
HETATM   31  C   UNL     1       7.199  24.161  54.027  1.00  0.00     0.409 C 
HETATM   32  F   UNL     1       7.725  23.805  52.834  1.00  0.00    -0.169 F 
HETATM   33  F   UNL     1       7.973  25.138  54.542  1.00  0.00    -0.169 F 
HETATM   34  F   UNL     1       7.343  23.084  54.844  1.00  0.00    -0.169 F 
ENDBRANCH   8  31
TORSDOF 6
ENDMDL
MODEL 10
REMARK VINA RESULT:      -8.4      6.915     12.522
REMARK  6 active torsions:
REMARK  status: ('A' for Active; 'I' for Inactive)
REMARK    1  A    between atoms: O_2  and  C_3 
REMARK    2  A    between atoms: C_5  and  C_6 
REMARK    3  A    between atoms: C_12  and  C_13 
REMARK       I    between atoms: C_13  and  N_14 
REMARK    4  A    between atoms: N_14  and  C_15 
REMARK    5  A    between atoms: C_17  and  O_18 
REMARK    6  A    between atoms: C_23  and  C_24 
ROOT
HETATM    1  C   UNL     1       4.674  35.319  62.386  1.00  0.00     0.118 C 
HETATM    2  N   UNL     1       5.556  34.503  61.537  1.00  0.00    -0.365 N 
HETATM    3  C   UNL     1       6.527  33.731  62.108  1.00  0.00     0.138 A 
HETATM    4  N   UNL     1       6.805  33.832  63.453  1.00  0.00    -0.240 N 
HETATM    5  N   UNL     1       7.810  33.053  63.871  1.00  0.00    -0.181 NA
HETATM    6  C   UNL     1       8.139  32.372  62.772  1.00  0.00     0.160 A 
HETATM    7  C   UNL     1       7.389  32.757  61.631  1.00  0.00     0.096 A 
HETATM    8  C   UNL     1       6.087  34.678  64.386  1.00  0.00     0.221 C 
HETATM    9  C   UNL     1       5.434  35.832  63.621  1.00  0.00     0.066 C 
HETATM   10  H   UNL     1       5.057  34.142  60.722  1.00  0.00     0.161 HD
ENDROOT
BRANCH   7  11
HETATM   11  C   UNL     1       7.552  32.189  60.302  1.00  0.00     0.261 C 
HETATM   12  N   UNL     1       8.539  31.228  60.209  1.00  0.00    -0.323 N 
HETATM   13  H   UNL     1       8.949  30.935  61.088  1.00  0.00     0.169 HD
HETATM   14  O   UNL     1       6.821  32.555  59.388  1.00  0.00    -0.267 OA
BRANCH  12  15
HETATM   15  C   UNL     1       8.975  30.559  59.044  1.00  0.00     0.037 A 
HETATM   16  C   UNL     1       8.332  29.442  58.501  1.00  0.00     0.066 A 
HETATM   17  C   UNL     1       8.827  28.848  57.341  1.00  0.00     0.067 A 
HETATM   18  C   UNL     1       9.952  29.351  56.702  1.00  0.00     0.036 A 
HETATM   19  C   UNL     1      10.596  30.466  57.233  1.00  0.00     0.005 A 
HETATM   20  C   UNL     1      10.110  31.066  58.399  1.00  0.00     0.029 A 
BRANCH  17  21
HETATM   21  O   UNL     1       8.221  27.754  56.793  1.00  0.00    -0.361 OA
HETATM   22  H   UNL     1       8.791  27.413  56.081  1.00  0.00     0.217 HD
ENDBRANCH  17  21
ENDBRANCH  12  15
ENDBRANCH   7  11
BRANCH   1  23
HETATM   23  C   UNL     1       4.111  36.488  61.601  1.00  0.00    -0.033 A 
HETATM   24  C   UNL     1       4.067  36.476  60.196  1.00  0.00     0.046 A 
HETATM   25  C   UNL     1       3.664  37.603  59.473  1.00  0.00     0.068 A 
HETATM   26  C   UNL     1       3.259  38.748  60.158  1.00  0.00     0.037 A 
HETATM   27  C   UNL     1       3.274  38.768  61.553  1.00  0.00     0.003 A 
HETATM   28  C   UNL     1       3.703  37.652  62.271  1.00  0.00     0.009 A 
BRANCH  25  29
HETATM   29  O   UNL     1       3.710  37.461  58.113  1.00  0.00    -0.356 OA
HETATM   30  C   UNL     1       4.277  36.251  57.623  1.00  0.00     0.210 C 
ENDBRANCH  25  29
ENDBRANCH   1  23
BRANCH   8  31
HETATM   31  C   UNL     1       5.082  33.853  65.160  1.00  0.00     0.409 C 
HETATM   32  F   UNL     1       3.908  34.495  65.353  1.00  0.00    -0.169 F 
HETATM   33  F   UNL     1       4.811  32.665  64.581  1.00  0.00    -0.169 F 
HETATM   34  F   UNL     1       5.572  33.575  66.397  1.00  0.00    -0.169 F 
ENDBRANCH   8  31
TORSDOF 6
ENDMDL
