MODEL 1
REMARK VINA RESULT:      -8.0      0.000      0.000
REMARK  6 active torsions:
REMARK  status: ('A' for Active; 'I' for Inactive)
REMARK    1  A    between atoms: N_2  and  C_4 
REMARK    2  A    between atoms: N_2  and  C_11 
REMARK    3  A    between atoms: C_4  and  C_5 
REMARK    4  A    between atoms: C_5  and  O_6 
REMARK    5  A    between atoms: C_11  and  C_12 
REMARK    6  A    between atoms: C_13  and  C_14 
ROOT
HETATM    1  C   UNL     1       6.973  27.201  56.247  1.00  0.00     0.016 A 
HETATM    2  C   UNL     1       7.888  27.498  57.309  1.00  0.00     0.096 A 
HETATM    3  N   UNL     1       7.921  26.498  58.198  1.00  0.00    -0.174 NA
HETATM    4  N   UNL     1       7.128  25.550  57.694  1.00  0.00    -0.288 N 
HETATM    5  H   UNL     1       7.043  24.675  58.205  1.00  0.00     0.188 HD
HETATM    6  C   UNL     1       6.526  25.921  56.525  1.00  0.00     0.120 A 
ENDROOT
BRANCH   1   7
HETATM    7  C   UNL     1       6.618  28.083  55.102  1.00  0.00     0.277 C 
BRANCH   7   8
HETATM    8  N   UNL     1       5.598  27.499  54.146  1.00  0.00    -0.068 N 
HETATM    9  C   UNL     1       4.296  28.264  54.190  1.00  0.00     0.270 C 
HETATM   10  H   UNL     1       5.396  26.553  54.480  1.00  0.00     0.279 HD
BRANCH   8  11
HETATM   11  C   UNL     1       6.181  27.392  52.737  1.00  0.00     0.272 C 
BRANCH  11  12
HETATM   12  C   UNL     1       6.484  25.941  52.296  1.00  0.00     0.082 C 
HETATM   13  C   UNL     1       7.947  25.573  52.573  1.00  0.00     0.039 C 
HETATM   14  C   UNL     1       7.935  24.052  52.618  1.00  0.00     0.003 C 
HETATM   15  C   UNL     1       6.634  23.718  53.332  1.00  0.00     0.003 C 
HETATM   16  C   UNL     1       5.670  24.875  53.044  1.00  0.00     0.039 C 
BRANCH  12  17
HETATM   17  O   UNL     1       6.234  25.829  50.891  1.00  0.00    -0.388 OA
HETATM   18  H   UNL     1       5.472  26.390  50.653  1.00  0.00     0.210 HD
ENDBRANCH  12  17
ENDBRANCH  11  12
ENDBRANCH   8  11
ENDBRANCH   7   8
ENDBRANCH   1   7
BRANCH   2  19
HETATM   19  C   UNL     1       8.704  28.694  57.508  1.00  0.00    -0.003 A 
HETATM   20  C   UNL     1       8.309  29.689  58.410  1.00  0.00     0.037 A 
HETATM   21  C   UNL     1       9.111  30.816  58.601  1.00  0.00     0.035 A 
HETATM   22 CL   UNL     1       8.624  32.013  59.736  1.00  0.00    -0.084 Cl
HETATM   23  C   UNL     1      10.298  30.973  57.890  1.00  0.00     0.024 A 
HETATM   24  C   UNL     1      10.684  29.997  56.972  1.00  0.00     0.003 A 
HETATM   25  C   UNL     1       9.891  28.864  56.781  1.00  0.00     0.014 A 
ENDBRANCH   2  19
TORSDOF 6
ENDMDL
MODEL 2
REMARK VINA RESULT:      -8.0      3.174      6.920
REMARK  6 active torsions:
REMARK  status: ('A' for Active; 'I' for Inactive)
REMARK    1  A    between atoms: N_2  and  C_4 
REMARK    2  A    between atoms: N_2  and  C_11 
REMARK    3  A    between atoms: C_4  and  C_5 
REMARK    4  A    between atoms: C_5  and  O_6 
REMARK    5  A    between atoms: C_11  and  C_12 
REMARK    6  A    between atoms: C_13  and  C_14 
ROOT
HETATM    1  C   UNL     1       6.186  26.310  54.182  1.00  0.00     0.016 A 
HETATM    2  C   UNL     1       5.960  24.950  53.790  1.00  0.00     0.096 A 
HETATM    3  N   UNL     1       4.752  24.813  53.232  1.00  0.00    -0.174 NA
HETATM    4  N   UNL     1       4.243  26.046  53.181  1.00  0.00    -0.288 N 
HETATM    5  H   UNL     1       3.330  26.171  52.750  1.00  0.00     0.188 HD
HETATM    6  C   UNL     1       5.059  26.985  53.745  1.00  0.00     0.120 A 
ENDROOT
BRANCH   1   7
HETATM    7  C   UNL     1       7.382  26.850  54.883  1.00  0.00     0.277 C 
BRANCH   7   8
HETATM    8  N   UNL     1       7.110  27.391  56.272  1.00  0.00    -0.068 N 
HETATM    9  C   UNL     1       6.219  26.462  57.063  1.00  0.00     0.270 C 
HETATM   10  H   UNL     1       6.590  28.264  56.146  1.00  0.00     0.279 HD
BRANCH   8  11
HETATM   11  C   UNL     1       8.420  27.716  56.988  1.00  0.00     0.272 C 
BRANCH  11  12
HETATM   12  C   UNL     1       8.765  29.224  57.004  1.00  0.00     0.082 C 
HETATM   13  C   UNL     1       8.649  29.802  58.420  1.00  0.00     0.039 C 
HETATM   14  C   UNL     1       9.514  31.053  58.371  1.00  0.00     0.003 C 
HETATM   15  C   UNL     1      10.705  30.642  57.518  1.00  0.00     0.003 C 
HETATM   16  C   UNL     1      10.204  29.543  56.573  1.00  0.00     0.039 C 
BRANCH  12  17
HETATM   17  O   UNL     1       7.850  29.911  56.145  1.00  0.00    -0.388 OA
HETATM   18  H   UNL     1       8.071  30.862  56.131  1.00  0.00     0.210 HD
ENDBRANCH  12  17
ENDBRANCH  11  12
ENDBRANCH   8  11
ENDBRANCH   7   8
ENDBRANCH   1   7
BRANCH   2  19
HETATM   19  C   UNL     1       6.840  23.794  53.946  1.00  0.00    -0.003 A 
HETATM   20  C   UNL     1       7.143  23.289  55.216  1.00  0.00     0.037 A 
HETATM   21  C   UNL     1       7.970  22.172  55.344  1.00  0.00     0.035 A 
HETATM   22 CL   UNL     1       8.306  21.548  56.911  1.00  0.00    -0.084 Cl
HETATM   23  C   UNL     1       8.516  21.558  54.219  1.00  0.00     0.024 A 
HETATM   24  C   UNL     1       8.239  22.071  52.953  1.00  0.00     0.003 A 
HETATM   25  C   UNL     1       7.406  23.184  52.817  1.00  0.00     0.014 A 
ENDBRANCH   2  19
TORSDOF 6
ENDMDL
MODEL 3
REMARK VINA RESULT:      -7.6      3.731      6.695
REMARK  6 active torsions:
REMARK  status: ('A' for Active; 'I' for Inactive)
REMARK    1  A    between atoms: N_2  and  C_4 
REMARK    2  A    between atoms: N_2  and  C_11 
REMARK    3  A    between atoms: C_4  and  C_5 
REMARK    4  A    between atoms: C_5  and  O_6 
REMARK    5  A    between atoms: C_11  and  C_12 
REMARK    6  A    between atoms: C_13  and  C_14 
ROOT
HETATM    1  C   UNL     1       5.801  26.115  53.464  1.00  0.00     0.016 A 
HETATM    2  C   UNL     1       6.741  25.188  52.906  1.00  0.00     0.096 A 
HETATM    3  N   UNL     1       6.869  25.380  51.588  1.00  0.00    -0.174 NA
HETATM    4  N   UNL     1       6.113  26.444  51.310  1.00  0.00    -0.288 N 
HETATM    5  H   UNL     1       6.100  26.786  50.352  1.00  0.00     0.188 HD
HETATM    6  C   UNL     1       5.442  26.922  52.400  1.00  0.00     0.120 A 
ENDROOT
BRANCH   1   7
HETATM    7  C   UNL     1       5.348  26.182  54.880  1.00  0.00     0.277 C 
BRANCH   7   8
HETATM    8  N   UNL     1       5.612  27.507  55.566  1.00  0.00    -0.068 N 
HETATM    9  C   UNL     1       4.382  28.385  55.565  1.00  0.00     0.270 C 
HETATM   10  H   UNL     1       6.319  27.988  55.004  1.00  0.00     0.279 HD
BRANCH   8  11
HETATM   11  C   UNL     1       6.186  27.284  56.964  1.00  0.00     0.272 C 
BRANCH  11  12
HETATM   12  C   UNL     1       7.640  27.785  57.129  1.00  0.00     0.082 C 
HETATM   13  C   UNL     1       8.177  28.363  55.813  1.00  0.00     0.039 C 
HETATM   14  C   UNL     1       9.316  29.269  56.257  1.00  0.00     0.003 C 
HETATM   15  C   UNL     1       8.795  29.916  57.531  1.00  0.00     0.003 C 
HETATM   16  C   UNL     1       7.798  28.925  58.145  1.00  0.00     0.039 C 
BRANCH  12  17
HETATM   17  O   UNL     1       8.462  26.681  57.523  1.00  0.00    -0.388 OA
HETATM   18  H   UNL     1       8.903  26.893  58.367  1.00  0.00     0.210 HD
ENDBRANCH  12  17
ENDBRANCH  11  12
ENDBRANCH   8  11
ENDBRANCH   7   8
ENDBRANCH   1   7
BRANCH   2  19
HETATM   19  C   UNL     1       7.493  24.130  53.577  1.00  0.00    -0.003 A 
HETATM   20  C   UNL     1       7.641  22.869  52.986  1.00  0.00     0.037 A 
HETATM   21  C   UNL     1       8.380  21.877  53.634  1.00  0.00     0.035 A 
HETATM   22 CL   UNL     1       8.575  20.344  52.878  1.00  0.00    -0.084 Cl
HETATM   23  C   UNL     1       8.961  22.120  54.876  1.00  0.00     0.024 A 
HETATM   24  C   UNL     1       8.797  23.365  55.481  1.00  0.00     0.003 A 
HETATM   25  C   UNL     1       8.066  24.365  54.835  1.00  0.00     0.014 A 
ENDBRANCH   2  19
TORSDOF 6
ENDMDL
MODEL 4
REMARK VINA RESULT:      -7.6      3.572      6.915
REMARK  6 active torsions:
REMARK  status: ('A' for Active; 'I' for Inactive)
REMARK    1  A    between atoms: N_2  and  C_4 
REMARK    2  A    between atoms: N_2  and  C_11 
REMARK    3  A    between atoms: C_4  and  C_5 
REMARK    4  A    between atoms: C_5  and  O_6 
REMARK    5  A    between atoms: C_11  and  C_12 
REMARK    6  A    between atoms: C_13  and  C_14 
ROOT
HETATM    1  C   UNL     1       6.160  26.202  54.416  1.00  0.00     0.016 A 
HETATM    2  C   UNL     1       6.007  24.876  53.894  1.00  0.00     0.096 A 
HETATM    3  N   UNL     1       4.857  24.762  53.221  1.00  0.00    -0.174 NA
HETATM    4  N   UNL     1       4.320  25.984  53.226  1.00  0.00    -0.288 N 
HETATM    5  H   UNL     1       3.446  26.127  52.727  1.00  0.00     0.188 HD
HETATM    6  C   UNL     1       5.058  26.889  53.936  1.00  0.00     0.120 A 
ENDROOT
BRANCH   1   7
HETATM    7  C   UNL     1       7.274  26.705  55.264  1.00  0.00     0.277 C 
BRANCH   7   8
HETATM    8  N   UNL     1       6.878  27.067  56.681  1.00  0.00    -0.068 N 
HETATM    9  C   UNL     1       7.442  26.085  57.681  1.00  0.00     0.270 C 
HETATM   10  H   UNL     1       5.859  26.982  56.727  1.00  0.00     0.279 HD
BRANCH   8  11
HETATM   11  C   UNL     1       7.250  28.516  56.990  1.00  0.00     0.272 C 
BRANCH  11  12
HETATM   12  C   UNL     1       6.030  29.451  57.159  1.00  0.00     0.082 C 
HETATM   13  C   UNL     1       6.372  30.651  58.051  1.00  0.00     0.039 C 
HETATM   14  C   UNL     1       5.328  31.692  57.673  1.00  0.00     0.003 C 
HETATM   15  C   UNL     1       5.183  31.534  56.167  1.00  0.00     0.003 C 
HETATM   16  C   UNL     1       5.533  30.076  55.847  1.00  0.00     0.039 C 
BRANCH  12  17
HETATM   17  O   UNL     1       4.965  28.710  57.764  1.00  0.00    -0.388 OA
HETATM   18  H   UNL     1       4.859  28.997  58.691  1.00  0.00     0.210 HD
ENDBRANCH  12  17
ENDBRANCH  11  12
ENDBRANCH   8  11
ENDBRANCH   7   8
ENDBRANCH   1   7
BRANCH   2  19
HETATM   19  C   UNL     1       6.902  23.729  54.033  1.00  0.00    -0.003 A 
HETATM   20  C   UNL     1       7.196  23.197  55.294  1.00  0.00     0.037 A 
HETATM   21  C   UNL     1       8.037  22.089  55.405  1.00  0.00     0.035 A 
HETATM   22 CL   UNL     1       8.363  21.431  56.961  1.00  0.00    -0.084 Cl
HETATM   23  C   UNL     1       8.606  21.511  54.273  1.00  0.00     0.024 A 
HETATM   24  C   UNL     1       8.337  22.051  53.016  1.00  0.00     0.003 A 
HETATM   25  C   UNL     1       7.490  23.155  52.897  1.00  0.00     0.014 A 
ENDBRANCH   2  19
TORSDOF 6
ENDMDL
MODEL 5
REMARK VINA RESULT:      -7.5      4.224      6.381
REMARK  6 active torsions:
REMARK  status: ('A' for Active; 'I' for Inactive)
REMARK    1  A    between atoms: N_2  and  C_4 
REMARK    2  A    between atoms: N_2  and  C_11 
REMARK    3  A    between atoms: C_4  and  C_5 
REMARK    4  A    between atoms: C_5  and  O_6 
REMARK    5  A    between atoms: C_11  and  C_12 
REMARK    6  A    between atoms: C_13  and  C_14 
ROOT
HETATM    1  C   UNL     1       7.310  25.822  53.486  1.00  0.00     0.016 A 
HETATM    2  C   UNL     1       7.612  24.807  54.453  1.00  0.00     0.096 A 
HETATM    3  N   UNL     1       7.790  25.346  55.664  1.00  0.00    -0.174 NA
HETATM    4  N   UNL     1       7.529  26.647  55.515  1.00  0.00    -0.288 N 
HETATM    5  H   UNL     1       7.571  27.242  56.339  1.00  0.00     0.188 HD
HETATM    6  C   UNL     1       7.242  26.990  54.224  1.00  0.00     0.120 A 
ENDROOT
BRANCH   1   7
HETATM    7  C   UNL     1       7.102  25.629  52.025  1.00  0.00     0.277 C 
BRANCH   7   8
HETATM    8  N   UNL     1       5.655  25.679  51.580  1.00  0.00    -0.068 N 
HETATM    9  C   UNL     1       4.763  24.890  52.511  1.00  0.00     0.270 C 
HETATM   10  H   UNL     1       5.616  25.214  50.669  1.00  0.00     0.279 HD
BRANCH   8  11
HETATM   11  C   UNL     1       5.198  27.126  51.398  1.00  0.00     0.272 C 
BRANCH  11  12
HETATM   12  C   UNL     1       4.536  27.403  50.028  1.00  0.00     0.082 C 
HETATM   13  C   UNL     1       5.381  28.373  49.192  1.00  0.00     0.039 C 
HETATM   14  C   UNL     1       4.928  28.108  47.764  1.00  0.00     0.003 C 
HETATM   15  C   UNL     1       4.737  26.599  47.714  1.00  0.00     0.003 C 
HETATM   16  C   UNL     1       4.387  26.158  49.141  1.00  0.00     0.039 C 
BRANCH  12  17
HETATM   17  O   UNL     1       3.247  27.983  50.252  1.00  0.00    -0.388 OA
HETATM   18  H   UNL     1       3.289  28.573  51.028  1.00  0.00     0.210 HD
ENDBRANCH  12  17
ENDBRANCH  11  12
ENDBRANCH   8  11
ENDBRANCH   7   8
ENDBRANCH   1   7
BRANCH   2  19
HETATM   19  C   UNL     1       7.752  23.366  54.255  1.00  0.00    -0.003 A 
HETATM   20  C   UNL     1       7.754  22.489  55.346  1.00  0.00     0.037 A 
HETATM   21  C   UNL     1       7.869  21.114  55.136  1.00  0.00     0.035 A 
HETATM   22 CL   UNL     1       7.839  20.050  56.487  1.00  0.00    -0.084 Cl
HETATM   23  C   UNL     1       8.001  20.600  53.848  1.00  0.00     0.024 A 
HETATM   24  C   UNL     1       8.025  21.469  52.759  1.00  0.00     0.003 A 
HETATM   25  C   UNL     1       7.902  22.846  52.961  1.00  0.00     0.014 A 
ENDBRANCH   2  19
TORSDOF 6
ENDMDL
MODEL 6
REMARK VINA RESULT:      -7.5      4.011      5.720
REMARK  6 active torsions:
REMARK  status: ('A' for Active; 'I' for Inactive)
REMARK    1  A    between atoms: N_2  and  C_4 
REMARK    2  A    between atoms: N_2  and  C_11 
REMARK    3  A    between atoms: C_4  and  C_5 
REMARK    4  A    between atoms: C_5  and  O_6 
REMARK    5  A    between atoms: C_11  and  C_12 
REMARK    6  A    between atoms: C_13  and  C_14 
ROOT
HETATM    1  C   UNL     1       6.663  25.331  56.670  1.00  0.00     0.016 A 
HETATM    2  C   UNL     1       7.819  24.599  56.242  1.00  0.00     0.096 A 
HETATM    3  N   UNL     1       8.891  24.942  56.965  1.00  0.00    -0.174 NA
HETATM    4  N   UNL     1       8.439  25.796  57.886  1.00  0.00    -0.288 N 
HETATM    5  H   UNL     1       9.098  26.155  58.572  1.00  0.00     0.188 HD
HETATM    6  C   UNL     1       7.107  26.072  57.751  1.00  0.00     0.120 A 
ENDROOT
BRANCH   1   7
HETATM    7  C   UNL     1       5.299  25.271  56.079  1.00  0.00     0.277 C 
BRANCH   7   8
HETATM    8  N   UNL     1       4.844  26.551  55.407  1.00  0.00    -0.068 N 
HETATM    9  C   UNL     1       4.812  27.705  56.381  1.00  0.00     0.270 C 
HETATM   10  H   UNL     1       3.879  26.392  55.105  1.00  0.00     0.279 HD
BRANCH   8  11
HETATM   11  C   UNL     1       5.690  26.838  54.168  1.00  0.00     0.272 C 
BRANCH  11  12
HETATM   12  C   UNL     1       4.881  26.852  52.850  1.00  0.00     0.082 C 
HETATM   13  C   UNL     1       5.367  27.967  51.915  1.00  0.00     0.039 C 
HETATM   14  C   UNL     1       4.902  27.513  50.539  1.00  0.00     0.003 C 
HETATM   15  C   UNL     1       5.127  26.009  50.555  1.00  0.00     0.003 C 
HETATM   16  C   UNL     1       5.014  25.567  52.019  1.00  0.00     0.039 C 
BRANCH  12  17
HETATM   17  O   UNL     1       3.502  27.074  53.162  1.00  0.00    -0.388 OA
HETATM   18  H   UNL     1       3.366  28.019  53.366  1.00  0.00     0.210 HD
ENDBRANCH  12  17
ENDBRANCH  11  12
ENDBRANCH   8  11
ENDBRANCH   7   8
ENDBRANCH   1   7
BRANCH   2  19
HETATM   19  C   UNL     1       7.933  23.613  55.168  1.00  0.00    -0.003 A 
HETATM   20  C   UNL     1       8.231  22.275  55.452  1.00  0.00     0.037 A 
HETATM   21  C   UNL     1       8.316  21.344  54.416  1.00  0.00     0.035 A 
HETATM   22 CL   UNL     1       8.652  19.699  54.787  1.00  0.00    -0.084 Cl
HETATM   23  C   UNL     1       8.127  21.734  53.092  1.00  0.00     0.024 A 
HETATM   24  C   UNL     1       7.855  23.070  52.800  1.00  0.00     0.003 A 
HETATM   25  C   UNL     1       7.760  24.005  53.833  1.00  0.00     0.014 A 
ENDBRANCH   2  19
TORSDOF 6
ENDMDL
MODEL 7
REMARK VINA RESULT:      -7.5      1.564      2.756
REMARK  6 active torsions:
REMARK  status: ('A' for Active; 'I' for Inactive)
REMARK    1  A    between atoms: N_2  and  C_4 
REMARK    2  A    between atoms: N_2  and  C_11 
REMARK    3  A    between atoms: C_4  and  C_5 
REMARK    4  A    between atoms: C_5  and  O_6 
REMARK    5  A    between atoms: C_11  and  C_12 
REMARK    6  A    between atoms: C_13  and  C_14 
ROOT
HETATM    1  C   UNL     1       6.257  27.636  56.784  1.00  0.00     0.016 A 
HETATM    2  C   UNL     1       6.786  28.936  56.494  1.00  0.00     0.096 A 
HETATM    3  N   UNL     1       5.906  29.659  55.792  1.00  0.00    -0.174 NA
HETATM    4  N   UNL     1       4.813  28.898  55.703  1.00  0.00    -0.288 N 
HETATM    5  H   UNL     1       3.997  29.282  55.233  1.00  0.00     0.188 HD
HETATM    6  C   UNL     1       4.970  27.667  56.276  1.00  0.00     0.120 A 
ENDROOT
BRANCH   1   7
HETATM    7  C   UNL     1       6.951  26.528  57.494  1.00  0.00     0.277 C 
BRANCH   7   8
HETATM    8  N   UNL     1       7.648  25.534  56.586  1.00  0.00    -0.068 N 
HETATM    9  C   UNL     1       8.771  24.822  57.303  1.00  0.00     0.270 C 
HETATM   10  H   UNL     1       8.077  26.080  55.834  1.00  0.00     0.279 HD
BRANCH   8  11
HETATM   11  C   UNL     1       6.636  24.576  55.960  1.00  0.00     0.272 C 
BRANCH  11  12
HETATM   12  C   UNL     1       6.618  24.609  54.414  1.00  0.00     0.082 C 
HETATM   13  C   UNL     1       7.558  25.695  53.874  1.00  0.00     0.039 C 
HETATM   14  C   UNL     1       7.847  25.246  52.449  1.00  0.00     0.003 C 
HETATM   15  C   UNL     1       7.974  23.734  52.560  1.00  0.00     0.003 C 
HETATM   16  C   UNL     1       7.108  23.312  53.754  1.00  0.00     0.039 C 
BRANCH  12  17
HETATM   17  O   UNL     1       5.284  24.888  53.978  1.00  0.00    -0.388 OA
HETATM   18  H   UNL     1       4.713  24.121  54.172  1.00  0.00     0.210 HD
ENDBRANCH  12  17
ENDBRANCH  11  12
ENDBRANCH   8  11
ENDBRANCH   7   8
ENDBRANCH   1   7
BRANCH   2  19
HETATM   19  C   UNL     1       8.092  29.492  56.843  1.00  0.00    -0.003 A 
HETATM   20  C   UNL     1       8.247  30.303  57.974  1.00  0.00     0.037 A 
HETATM   21  C   UNL     1       9.505  30.809  58.302  1.00  0.00     0.035 A 
HETATM   22 CL   UNL     1       9.682  31.778  59.712  1.00  0.00    -0.084 Cl
HETATM   23  C   UNL     1      10.614  30.532  57.505  1.00  0.00     0.024 A 
HETATM   24  C   UNL     1      10.461  29.746  56.364  1.00  0.00     0.003 A 
HETATM   25  C   UNL     1       9.206  29.230  56.034  1.00  0.00     0.014 A 
ENDBRANCH   2  19
TORSDOF 6
ENDMDL
MODEL 8
REMARK VINA RESULT:      -7.4      2.637      4.226
REMARK  6 active torsions:
REMARK  status: ('A' for Active; 'I' for Inactive)
REMARK    1  A    between atoms: N_2  and  C_4 
REMARK    2  A    between atoms: N_2  and  C_11 
REMARK    3  A    between atoms: C_4  and  C_5 
REMARK    4  A    between atoms: C_5  and  O_6 
REMARK    5  A    between atoms: C_11  and  C_12 
REMARK    6  A    between atoms: C_13  and  C_14 
ROOT
HETATM    1  C   UNL     1       6.046  25.599  55.171  1.00  0.00     0.016 A 
HETATM    2  C   UNL     1       6.266  26.999  54.957  1.00  0.00     0.096 A 
HETATM    3  N   UNL     1       5.805  27.373  53.758  1.00  0.00    -0.174 NA
HETATM    4  N   UNL     1       5.228  26.284  53.245  1.00  0.00    -0.288 N 
HETATM    5  H   UNL     1       4.773  26.363  52.339  1.00  0.00     0.188 HD
HETATM    6  C   UNL     1       5.349  25.186  54.049  1.00  0.00     0.120 A 
ENDROOT
BRANCH   1   7
HETATM    7  C   UNL     1       6.465  24.801  56.354  1.00  0.00     0.277 C 
BRANCH   7   8
HETATM    8  N   UNL     1       7.884  24.272  56.290  1.00  0.00    -0.068 N 
HETATM    9  C   UNL     1       8.753  24.886  57.362  1.00  0.00     0.270 C 
HETATM   10  H   UNL     1       8.266  24.577  55.390  1.00  0.00     0.279 HD
BRANCH   8  11
HETATM   11  C   UNL     1       7.891  22.744  56.317  1.00  0.00     0.272 C 
BRANCH  11  12
HETATM   12  C   UNL     1       8.492  22.100  55.046  1.00  0.00     0.082 C 
HETATM   13  C   UNL     1       7.926  20.692  54.820  1.00  0.00     0.039 C 
HETATM   14  C   UNL     1       8.156  20.445  53.336  1.00  0.00     0.003 C 
HETATM   15  C   UNL     1       7.862  21.790  52.691  1.00  0.00     0.003 C 
HETATM   16  C   UNL     1       8.172  22.857  53.749  1.00  0.00     0.039 C 
BRANCH  12  17
HETATM   17  O   UNL     1       9.911  22.012  55.206  1.00  0.00    -0.388 OA
HETATM   18  H   UNL     1      10.281  22.909  55.309  1.00  0.00     0.210 HD
ENDBRANCH  12  17
ENDBRANCH  11  12
ENDBRANCH   8  11
ENDBRANCH   7   8
ENDBRANCH   1   7
BRANCH   2  19
HETATM   19  C   UNL     1       6.911  27.971  55.839  1.00  0.00    -0.003 A 
HETATM   20  C   UNL     1       8.239  28.361  55.627  1.00  0.00     0.037 A 
HETATM   21  C   UNL     1       8.831  29.304  56.468  1.00  0.00     0.035 A 
HETATM   22 CL   UNL     1      10.454  29.794  56.174  1.00  0.00    -0.084 Cl
HETATM   23  C   UNL     1       8.120  29.854  57.532  1.00  0.00     0.024 A 
HETATM   24  C   UNL     1       6.806  29.452  57.763  1.00  0.00     0.003 A 
HETATM   25  C   UNL     1       6.204  28.514  56.921  1.00  0.00     0.014 A 
ENDBRANCH   2  19
TORSDOF 6
ENDMDL
MODEL 9
REMARK VINA RESULT:      -7.2      3.959      6.422
REMARK  6 active torsions:
REMARK  status: ('A' for Active; 'I' for Inactive)
REMARK    1  A    between atoms: N_2  and  C_4 
REMARK    2  A    between atoms: N_2  and  C_11 
REMARK    3  A    between atoms: C_4  and  C_5 
REMARK    4  A    between atoms: C_5  and  O_6 
REMARK    5  A    between atoms: C_11  and  C_12 
REMARK    6  A    between atoms: C_13  and  C_14 
ROOT
HETATM    1  C   UNL     1       7.182  25.242  55.628  1.00  0.00     0.016 A 
HETATM    2  C   UNL     1       8.054  24.263  56.208  1.00  0.00     0.096 A 
HETATM    3  N   UNL     1       8.837  24.820  57.139  1.00  0.00    -0.174 NA
HETATM    4  N   UNL     1       8.435  26.090  57.227  1.00  0.00    -0.288 N 
HETATM    5  H   UNL     1       8.884  26.689  57.916  1.00  0.00     0.188 HD
HETATM    6  C   UNL     1       7.446  26.401  56.337  1.00  0.00     0.120 A 
ENDROOT
BRANCH   1   7
HETATM    7  C   UNL     1       6.206  25.026  54.526  1.00  0.00     0.277 C 
BRANCH   7   8
HETATM    8  N   UNL     1       6.341  25.989  53.364  1.00  0.00    -0.068 N 
HETATM    9  C   UNL     1       6.817  25.285  52.115  1.00  0.00     0.270 C 
HETATM   10  H   UNL     1       7.072  26.656  53.624  1.00  0.00     0.279 HD
BRANCH   8  11
HETATM   11  C   UNL     1       5.041  26.765  53.155  1.00  0.00     0.272 C 
BRANCH  11  12
HETATM   12  C   UNL     1       5.142  28.262  53.529  1.00  0.00     0.082 C 
HETATM   13  C   UNL     1       4.214  29.114  52.652  1.00  0.00     0.039 C 
HETATM   14  C   UNL     1       4.011  30.382  53.468  1.00  0.00     0.003 C 
HETATM   15  C   UNL     1       3.904  29.882  54.901  1.00  0.00     0.003 C 
HETATM   16  C   UNL     1       4.710  28.579  54.968  1.00  0.00     0.039 C 
BRANCH  12  17
HETATM   17  O   UNL     1       6.492  28.693  53.333  1.00  0.00    -0.388 OA
HETATM   18  H   UNL     1       6.973  28.643  54.181  1.00  0.00     0.210 HD
ENDBRANCH  12  17
ENDBRANCH  11  12
ENDBRANCH   8  11
ENDBRANCH   7   8
ENDBRANCH   1   7
BRANCH   2  19
HETATM   19  C   UNL     1       8.174  22.841  55.893  1.00  0.00    -0.003 A 
HETATM   20  C   UNL     1       8.146  22.396  54.566  1.00  0.00     0.037 A 
HETATM   21  C   UNL     1       8.282  21.036  54.284  1.00  0.00     0.035 A 
HETATM   22 CL   UNL     1       8.277  20.511  52.646  1.00  0.00    -0.084 Cl
HETATM   23  C   UNL     1       8.427  20.107  55.311  1.00  0.00     0.024 A 
HETATM   24  C   UNL     1       8.430  20.541  56.636  1.00  0.00     0.003 A 
HETATM   25  C   UNL     1       8.303  21.902  56.926  1.00  0.00     0.014 A 
ENDBRANCH   2  19
TORSDOF 6
ENDMDL
MODEL 10
REMARK VINA RESULT:      -7.1      2.918      6.243
REMARK  6 active torsions:
REMARK  status: ('A' for Active; 'I' for Inactive)
REMARK    1  A    between atoms: N_2  and  C_4 
REMARK    2  A    between atoms: N_2  and  C_11 
REMARK    3  A    between atoms: C_4  and  C_5 
REMARK    4  A    between atoms: C_5  and  O_6 
REMARK    5  A    between atoms: C_11  and  C_12 
REMARK    6  A    between atoms: C_13  and  C_14 
ROOT
HETATM    1  C   UNL     1       5.501  26.808  53.427  1.00  0.00     0.016 A 
HETATM    2  C   UNL     1       6.341  25.786  52.876  1.00  0.00     0.096 A 
HETATM    3  N   UNL     1       6.367  25.864  51.541  1.00  0.00    -0.174 NA
HETATM    4  N   UNL     1       5.645  26.944  51.234  1.00  0.00    -0.288 N 
HETATM    5  H   UNL     1       5.568  27.207  50.255  1.00  0.00     0.188 HD
HETATM    6  C   UNL     1       5.094  27.547  52.329  1.00  0.00     0.120 A 
ENDROOT
BRANCH   1   7
HETATM    7  C   UNL     1       5.173  27.016  54.863  1.00  0.00     0.277 C 
BRANCH   7   8
HETATM    8  N   UNL     1       5.881  28.189  55.510  1.00  0.00    -0.068 N 
HETATM    9  C   UNL     1       5.206  29.498  55.173  1.00  0.00     0.270 C 
HETATM   10  H   UNL     1       6.817  28.225  55.098  1.00  0.00     0.279 HD
BRANCH   8  11
HETATM   11  C   UNL     1       6.031  27.963  57.014  1.00  0.00     0.272 C 
BRANCH  11  12
HETATM   12  C   UNL     1       7.476  28.153  57.533  1.00  0.00     0.082 C 
HETATM   13  C   UNL     1       8.467  28.288  56.369  1.00  0.00     0.039 C 
HETATM   14  C   UNL     1       9.661  28.995  56.993  1.00  0.00     0.003 C 
HETATM   15  C   UNL     1       9.034  30.009  57.938  1.00  0.00     0.003 C 
HETATM   16  C   UNL     1       7.681  29.427  58.364  1.00  0.00     0.039 C 
BRANCH  12  17
HETATM   17  O   UNL     1       7.833  27.012  58.318  1.00  0.00    -0.388 OA
HETATM   18  H   UNL     1       8.129  26.293  57.727  1.00  0.00     0.210 HD
ENDBRANCH  12  17
ENDBRANCH  11  12
ENDBRANCH   8  11
ENDBRANCH   7   8
ENDBRANCH   1   7
BRANCH   2  19
HETATM   19  C   UNL     1       7.093  24.744  53.573  1.00  0.00    -0.003 A 
HETATM   20  C   UNL     1       7.650  24.984  54.835  1.00  0.00     0.037 A 
HETATM   21  C   UNL     1       8.347  23.970  55.494  1.00  0.00     0.035 A 
HETATM   22 CL   UNL     1       8.998  24.274  57.057  1.00  0.00    -0.084 Cl
HETATM   23  C   UNL     1       8.514  22.721  54.902  1.00  0.00     0.024 A 
HETATM   24  C   UNL     1       7.983  22.483  53.635  1.00  0.00     0.003 A 
HETATM   25  C   UNL     1       7.277  23.491  52.973  1.00  0.00     0.014 A 
ENDBRANCH   2  19
TORSDOF 6
ENDMDL
