MODEL 1
REMARK VINA RESULT:      -9.7      0.000      0.000
REMARK  8 active torsions:
REMARK  status: ('A' for Active; 'I' for Inactive)
REMARK    1  A    between atoms: C_7  and  C_8 
REMARK       I    between atoms: C_8  and  N_9 
REMARK    2  A    between atoms: N_9  and  C_10 
REMARK    3  A    between atoms: C_11  and  C_12 
REMARK       I    between atoms: C_12  and  N_13 
REMARK    4  A    between atoms: N_13  and  C_14 
REMARK    5  A    between atoms: C_14  and  C_15 
REMARK    6  A    between atoms: C_15  and  C_16 
REMARK    7  A    between atoms: C_17  and  O_18 
REMARK    8  A    between atoms: C_22  and  O_23 
ROOT
HETATM    1  C   UNL     1       8.684  30.157  58.429  1.00  0.00     0.050 A 
HETATM    2  C   UNL     1       8.587  28.970  57.682  1.00  0.00     0.058 A 
HETATM    3  C   UNL     1       9.656  28.581  56.850  1.00  0.00     0.019 A 
HETATM    4  C   UNL     1      10.805  29.365  56.755  1.00  0.00     0.001 A 
HETATM    5  C   UNL     1      10.884  30.561  57.460  1.00  0.00     0.002 A 
HETATM    6  C   UNL     1       9.825  30.962  58.278  1.00  0.00     0.030 A 
ENDROOT
BRANCH   2   7
HETATM    7  C   UNL     1       7.320  28.193  57.561  1.00  0.00     0.253 C 
HETATM    8  N   UNL     1       7.486  26.850  57.283  1.00  0.00    -0.356 N 
HETATM    9  H   UNL     1       8.399  26.462  57.478  1.00  0.00     0.162 HD
HETATM   10  O   UNL     1       6.234  28.751  57.664  1.00  0.00    -0.268 OA
BRANCH   8  11
HETATM   11  C   UNL     1       6.370  25.920  57.264  1.00  0.00     0.127 C 
BRANCH  11  12
HETATM   12  C   UNL     1       5.754  25.704  55.874  1.00  0.00     0.061 C 
BRANCH  12  13
HETATM   13  C   UNL     1       6.578  24.901  54.877  1.00  0.00    -0.021 A 
HETATM   14  C   UNL     1       7.014  25.523  53.687  1.00  0.00     0.074 A 
HETATM   15  C   UNL     1       7.800  24.813  52.776  1.00  0.00     0.040 A 
HETATM   16  C   UNL     1       8.132  23.480  53.020  1.00  0.00     0.039 A 
HETATM   17  C   UNL     1       7.675  22.835  54.167  1.00  0.00     0.068 A 
HETATM   18  C   UNL     1       6.899  23.544  55.087  1.00  0.00     0.046 A 
BRANCH  14  19
HETATM   19  O   UNL     1       6.638  26.832  53.519  1.00  0.00    -0.355 OA
HETATM   20  C   UNL     1       7.623  27.824  53.780  1.00  0.00     0.210 C 
ENDBRANCH  14  19
BRANCH  17  21
HETATM   21  O   UNL     1       8.062  21.527  54.276  1.00  0.00    -0.356 OA
HETATM   22  C   UNL     1       7.923  20.714  53.118  1.00  0.00     0.210 C 
ENDBRANCH  17  21
ENDBRANCH  12  13
ENDBRANCH  11  12
ENDBRANCH   8  11
ENDBRANCH   2   7
BRANCH   1  23
HETATM   23  N   UNL     1       7.717  30.636  59.334  1.00  0.00    -0.321 N 
HETATM   24  C   UNL     1       7.723  31.874  59.950  1.00  0.00     0.265 C 
HETATM   25  O   UNL     1       8.486  32.791  59.662  1.00  0.00    -0.267 OA
HETATM   26  H   UNL     1       6.840  30.131  59.400  1.00  0.00     0.169 HD
BRANCH  24  27
HETATM   27  C   UNL     1       6.588  32.055  60.944  1.00  0.00     0.097 C 
HETATM   28  C   UNL     1       6.790  31.884  62.273  1.00  0.00     0.064 C 
HETATM   29  C   UNL     1       8.085  31.389  62.863  1.00  0.00     0.078 C 
HETATM   30  O   UNL     1       5.839  32.078  63.264  1.00  0.00    -0.353 OA
HETATM   31  C   UNL     1       4.670  32.817  62.909  1.00  0.00     0.185 C 
HETATM   32  C   UNL     1       3.982  32.223  61.698  1.00  0.00     0.106 C 
HETATM   33  S   UNL     1       5.040  32.507  60.258  1.00  0.00    -0.120 SA
ENDBRANCH  24  27
ENDBRANCH   1  23
TORSDOF 8
ENDMDL
MODEL 2
REMARK VINA RESULT:      -9.5      1.029      2.267
REMARK  8 active torsions:
REMARK  status: ('A' for Active; 'I' for Inactive)
REMARK    1  A    between atoms: C_7  and  C_8 
REMARK       I    between atoms: C_8  and  N_9 
REMARK    2  A    between atoms: N_9  and  C_10 
REMARK    3  A    between atoms: C_11  and  C_12 
REMARK       I    between atoms: C_12  and  N_13 
REMARK    4  A    between atoms: N_13  and  C_14 
REMARK    5  A    between atoms: C_14  and  C_15 
REMARK    6  A    between atoms: C_15  and  C_16 
REMARK    7  A    between atoms: C_17  and  O_18 
REMARK    8  A    between atoms: C_22  and  O_23 
ROOT
HETATM    1  C   UNL     1       8.605  30.191  58.498  1.00  0.00     0.050 A 
HETATM    2  C   UNL     1       8.418  29.077  57.662  1.00  0.00     0.058 A 
HETATM    3  C   UNL     1       9.470  28.646  56.830  1.00  0.00     0.019 A 
HETATM    4  C   UNL     1      10.692  29.318  56.822  1.00  0.00     0.001 A 
HETATM    5  C   UNL     1      10.863  30.447  57.617  1.00  0.00     0.002 A 
HETATM    6  C   UNL     1       9.822  30.889  58.436  1.00  0.00     0.030 A 
ENDROOT
BRANCH   2   7
HETATM    7  C   UNL     1       7.086  28.439  57.452  1.00  0.00     0.253 C 
HETATM    8  N   UNL     1       7.131  27.107  57.088  1.00  0.00    -0.356 N 
HETATM    9  H   UNL     1       7.995  26.618  57.282  1.00  0.00     0.162 HD
HETATM   10  O   UNL     1       6.057  29.093  57.562  1.00  0.00    -0.268 OA
BRANCH   8  11
HETATM   11  C   UNL     1       5.931  26.296  56.973  1.00  0.00     0.127 C 
BRANCH  11  12
HETATM   12  C   UNL     1       6.201  24.805  56.720  1.00  0.00     0.061 C 
BRANCH  12  13
HETATM   13  C   UNL     1       6.756  24.432  55.352  1.00  0.00    -0.021 A 
HETATM   14  C   UNL     1       7.686  23.374  55.254  1.00  0.00     0.074 A 
HETATM   15  C   UNL     1       8.179  22.994  54.003  1.00  0.00     0.040 A 
HETATM   16  C   UNL     1       7.782  23.674  52.852  1.00  0.00     0.039 A 
HETATM   17  C   UNL     1       6.899  24.749  52.933  1.00  0.00     0.068 A 
HETATM   18  C   UNL     1       6.393  25.125  54.179  1.00  0.00     0.046 A 
BRANCH  14  19
HETATM   19  O   UNL     1       8.030  22.763  56.432  1.00  0.00    -0.355 OA
HETATM   20  C   UNL     1       8.318  21.371  56.377  1.00  0.00     0.210 C 
ENDBRANCH  14  19
BRANCH  17  21
HETATM   21  O   UNL     1       6.604  25.335  51.732  1.00  0.00    -0.356 OA
HETATM   22  C   UNL     1       5.255  25.731  51.522  1.00  0.00     0.210 C 
ENDBRANCH  17  21
ENDBRANCH  12  13
ENDBRANCH  11  12
ENDBRANCH   8  11
ENDBRANCH   2   7
BRANCH   1  23
HETATM   23  N   UNL     1       7.659  30.696  59.413  1.00  0.00    -0.321 N 
HETATM   24  C   UNL     1       7.700  31.937  60.022  1.00  0.00     0.265 C 
HETATM   25  O   UNL     1       8.479  32.836  59.718  1.00  0.00    -0.267 OA
HETATM   26  H   UNL     1       6.773  30.211  59.492  1.00  0.00     0.169 HD
BRANCH  24  27
HETATM   27  C   UNL     1       6.582  32.149  61.028  1.00  0.00     0.097 C 
HETATM   28  C   UNL     1       6.813  32.044  62.359  1.00  0.00     0.064 C 
HETATM   29  C   UNL     1       8.127  31.598  62.946  1.00  0.00     0.078 C 
HETATM   30  O   UNL     1       5.879  32.271  63.359  1.00  0.00    -0.353 OA
HETATM   31  C   UNL     1       4.691  32.974  62.993  1.00  0.00     0.185 C 
HETATM   32  C   UNL     1       3.989  32.313  61.827  1.00  0.00     0.106 C 
HETATM   33  S   UNL     1       5.014  32.543  60.354  1.00  0.00    -0.120 SA
ENDBRANCH  24  27
ENDBRANCH   1  23
TORSDOF 8
ENDMDL
MODEL 3
REMARK VINA RESULT:      -9.3      3.667      8.529
REMARK  8 active torsions:
REMARK  status: ('A' for Active; 'I' for Inactive)
REMARK    1  A    between atoms: C_7  and  C_8 
REMARK       I    between atoms: C_8  and  N_9 
REMARK    2  A    between atoms: N_9  and  C_10 
REMARK    3  A    between atoms: C_11  and  C_12 
REMARK       I    between atoms: C_12  and  N_13 
REMARK    4  A    between atoms: N_13  and  C_14 
REMARK    5  A    between atoms: C_14  and  C_15 
REMARK    6  A    between atoms: C_15  and  C_16 
REMARK    7  A    between atoms: C_17  and  O_18 
REMARK    8  A    between atoms: C_22  and  O_23 
ROOT
HETATM    1  C   UNL     1       7.460  23.855  53.483  1.00  0.00     0.050 A 
HETATM    2  C   UNL     1       7.727  23.773  54.861  1.00  0.00     0.058 A 
HETATM    3  C   UNL     1       8.212  22.568  55.406  1.00  0.00     0.019 A 
HETATM    4  C   UNL     1       8.423  21.454  54.593  1.00  0.00     0.001 A 
HETATM    5  C   UNL     1       8.119  21.521  53.238  1.00  0.00     0.002 A 
HETATM    6  C   UNL     1       7.626  22.707  52.691  1.00  0.00     0.030 A 
ENDROOT
BRANCH   2   7
HETATM    7  C   UNL     1       7.329  24.838  55.825  1.00  0.00     0.253 C 
HETATM    8  N   UNL     1       5.992  24.834  56.176  1.00  0.00    -0.356 N 
HETATM    9  H   UNL     1       5.487  23.975  56.004  1.00  0.00     0.162 HD
HETATM   10  O   UNL     1       8.146  25.662  56.218  1.00  0.00    -0.268 OA
BRANCH   8  11
HETATM   11  C   UNL     1       5.459  25.713  57.202  1.00  0.00     0.127 C 
BRANCH  11  12
HETATM   12  C   UNL     1       4.933  27.055  56.673  1.00  0.00     0.061 C 
BRANCH  12  13
HETATM   13  C   UNL     1       5.638  28.311  57.168  1.00  0.00    -0.021 A 
HETATM   14  C   UNL     1       4.982  29.556  57.058  1.00  0.00     0.074 A 
HETATM   15  C   UNL     1       5.598  30.714  57.538  1.00  0.00     0.040 A 
HETATM   16  C   UNL     1       6.874  30.653  58.099  1.00  0.00     0.039 A 
HETATM   17  C   UNL     1       7.557  29.441  58.176  1.00  0.00     0.068 A 
HETATM   18  C   UNL     1       6.941  28.278  57.708  1.00  0.00     0.046 A 
BRANCH  14  19
HETATM   19  O   UNL     1       3.734  29.531  56.489  1.00  0.00    -0.355 OA
HETATM   20  C   UNL     1       2.999  30.748  56.493  1.00  0.00     0.210 C 
ENDBRANCH  14  19
BRANCH  17  21
HETATM   21  O   UNL     1       8.803  29.524  58.734  1.00  0.00    -0.356 OA
HETATM   22  C   UNL     1       9.746  30.367  58.084  1.00  0.00     0.210 C 
ENDBRANCH  17  21
ENDBRANCH  12  13
ENDBRANCH  11  12
ENDBRANCH   8  11
ENDBRANCH   2   7
BRANCH   1  23
HETATM   23  N   UNL     1       7.022  25.008  52.801  1.00  0.00    -0.321 N 
HETATM   24  C   UNL     1       5.715  25.447  52.704  1.00  0.00     0.265 C 
HETATM   25  O   UNL     1       4.775  24.982  53.341  1.00  0.00    -0.267 OA
HETATM   26  H   UNL     1       7.722  25.688  52.524  1.00  0.00     0.169 HD
BRANCH  24  27
HETATM   27  C   UNL     1       5.558  26.675  51.822  1.00  0.00     0.097 C 
HETATM   28  C   UNL     1       5.959  27.896  52.251  1.00  0.00     0.064 C 
HETATM   29  C   UNL     1       6.464  28.168  53.644  1.00  0.00     0.078 C 
HETATM   30  O   UNL     1       5.911  29.066  51.507  1.00  0.00    -0.353 OA
HETATM   31  C   UNL     1       5.739  28.935  50.096  1.00  0.00     0.185 C 
HETATM   32  C   UNL     1       4.518  28.106  49.759  1.00  0.00     0.106 C 
HETATM   33  S   UNL     1       4.852  26.395  50.244  1.00  0.00    -0.120 SA
ENDBRANCH  24  27
ENDBRANCH   1  23
TORSDOF 8
ENDMDL
MODEL 4
REMARK VINA RESULT:      -9.2      3.446      8.704
REMARK  8 active torsions:
REMARK  status: ('A' for Active; 'I' for Inactive)
REMARK    1  A    between atoms: C_7  and  C_8 
REMARK       I    between atoms: C_8  and  N_9 
REMARK    2  A    between atoms: N_9  and  C_10 
REMARK    3  A    between atoms: C_11  and  C_12 
REMARK       I    between atoms: C_12  and  N_13 
REMARK    4  A    between atoms: N_13  and  C_14 
REMARK    5  A    between atoms: C_14  and  C_15 
REMARK    6  A    between atoms: C_15  and  C_16 
REMARK    7  A    between atoms: C_17  and  O_18 
REMARK    8  A    between atoms: C_22  and  O_23 
ROOT
HETATM    1  C   UNL     1       7.293  23.850  53.678  1.00  0.00     0.050 A 
HETATM    2  C   UNL     1       7.475  23.711  55.065  1.00  0.00     0.058 A 
HETATM    3  C   UNL     1       7.966  22.497  55.584  1.00  0.00     0.019 A 
HETATM    4  C   UNL     1       8.266  21.430  54.737  1.00  0.00     0.001 A 
HETATM    5  C   UNL     1       8.045  21.552  53.370  1.00  0.00     0.002 A 
HETATM    6  C   UNL     1       7.547  22.747  52.847  1.00  0.00     0.030 A 
ENDROOT
BRANCH   2   7
HETATM    7  C   UNL     1       6.981  24.716  56.049  1.00  0.00     0.253 C 
HETATM    8  N   UNL     1       7.969  25.351  56.777  1.00  0.00    -0.356 N 
HETATM    9  H   UNL     1       8.903  25.313  56.393  1.00  0.00     0.162 HD
HETATM   10  O   UNL     1       5.780  24.903  56.200  1.00  0.00    -0.268 OA
BRANCH   8  11
HETATM   11  C   UNL     1       7.678  26.450  57.681  1.00  0.00     0.127 C 
BRANCH  11  12
HETATM   12  C   UNL     1       8.283  27.795  57.254  1.00  0.00     0.061 C 
BRANCH  12  13
HETATM   13  C   UNL     1       7.518  29.049  57.658  1.00  0.00    -0.021 A 
HETATM   14  C   UNL     1       8.224  30.126  58.238  1.00  0.00     0.074 A 
HETATM   15  C   UNL     1       7.546  31.298  58.583  1.00  0.00     0.040 A 
HETATM   16  C   UNL     1       6.168  31.400  58.387  1.00  0.00     0.039 A 
HETATM   17  C   UNL     1       5.447  30.332  57.856  1.00  0.00     0.068 A 
HETATM   18  C   UNL     1       6.122  29.163  57.499  1.00  0.00     0.046 A 
BRANCH  14  19
HETATM   19  O   UNL     1       9.573  29.943  58.404  1.00  0.00    -0.355 OA
HETATM   20  C   UNL     1      10.435  30.804  57.670  1.00  0.00     0.210 C 
ENDBRANCH  14  19
BRANCH  17  21
HETATM   21  O   UNL     1       4.104  30.560  57.730  1.00  0.00    -0.356 OA
HETATM   22  C   UNL     1       3.487  30.123  56.526  1.00  0.00     0.210 C 
ENDBRANCH  17  21
ENDBRANCH  12  13
ENDBRANCH  11  12
ENDBRANCH   8  11
ENDBRANCH   2   7
BRANCH   1  23
HETATM   23  N   UNL     1       6.860  25.020  53.022  1.00  0.00    -0.321 N 
HETATM   24  C   UNL     1       5.551  25.339  52.709  1.00  0.00     0.265 C 
HETATM   25  O   UNL     1       4.569  24.721  53.109  1.00  0.00    -0.267 OA
HETATM   26  H   UNL     1       7.516  25.789  52.945  1.00  0.00     0.169 HD
BRANCH  24  27
HETATM   27  C   UNL     1       5.421  26.630  51.919  1.00  0.00     0.097 C 
HETATM   28  C   UNL     1       5.660  27.830  52.502  1.00  0.00     0.064 C 
HETATM   29  C   UNL     1       5.944  28.003  53.971  1.00  0.00     0.078 C 
HETATM   30  O   UNL     1       5.622  29.059  51.859  1.00  0.00    -0.353 OA
HETATM   31  C   UNL     1       5.658  29.048  50.431  1.00  0.00     0.185 C 
HETATM   32  C   UNL     1       4.565  28.175  49.853  1.00  0.00     0.106 C 
HETATM   33  S   UNL     1       4.964  26.453  50.237  1.00  0.00    -0.120 SA
ENDBRANCH  24  27
ENDBRANCH   1  23
TORSDOF 8
ENDMDL
MODEL 5
REMARK VINA RESULT:      -9.1      3.189      8.947
REMARK  8 active torsions:
REMARK  status: ('A' for Active; 'I' for Inactive)
REMARK    1  A    between atoms: C_7  and  C_8 
REMARK       I    between atoms: C_8  and  N_9 
REMARK    2  A    between atoms: N_9  and  C_10 
REMARK    3  A    between atoms: C_11  and  C_12 
REMARK       I    between atoms: C_12  and  N_13 
REMARK    4  A    between atoms: N_13  and  C_14 
REMARK    5  A    between atoms: C_14  and  C_15 
REMARK    6  A    between atoms: C_15  and  C_16 
REMARK    7  A    between atoms: C_17  and  O_18 
REMARK    8  A    between atoms: C_22  and  O_23 
ROOT
HETATM    1  C   UNL     1       7.270  24.176  53.649  1.00  0.00     0.050 A 
HETATM    2  C   UNL     1       7.392  24.129  55.048  1.00  0.00     0.058 A 
HETATM    3  C   UNL     1       7.913  22.973  55.663  1.00  0.00     0.019 A 
HETATM    4  C   UNL     1       8.302  21.874  54.898  1.00  0.00     0.001 A 
HETATM    5  C   UNL     1       8.141  21.903  53.517  1.00  0.00     0.002 A 
HETATM    6  C   UNL     1       7.614  23.039  52.899  1.00  0.00     0.030 A 
ENDROOT
BRANCH   2   7
HETATM    7  C   UNL     1       6.806  25.165  55.945  1.00  0.00     0.253 C 
HETATM    8  N   UNL     1       7.721  25.845  56.725  1.00  0.00    -0.356 N 
HETATM    9  H   UNL     1       8.685  25.806  56.420  1.00  0.00     0.162 HD
HETATM   10  O   UNL     1       5.594  25.339  55.989  1.00  0.00    -0.268 OA
BRANCH   8  11
HETATM   11  C   UNL     1       7.343  26.975  57.555  1.00  0.00     0.127 C 
BRANCH  11  12
HETATM   12  C   UNL     1       7.936  28.317  57.101  1.00  0.00     0.061 C 
BRANCH  12  13
HETATM   13  C   UNL     1       7.609  29.535  57.956  1.00  0.00    -0.021 A 
HETATM   14  C   UNL     1       6.510  30.347  57.602  1.00  0.00     0.074 A 
HETATM   15  C   UNL     1       6.173  31.448  58.394  1.00  0.00     0.040 A 
HETATM   16  C   UNL     1       6.938  31.769  59.516  1.00  0.00     0.039 A 
HETATM   17  C   UNL     1       8.053  31.006  59.856  1.00  0.00     0.068 A 
HETATM   18  C   UNL     1       8.386  29.898  59.075  1.00  0.00     0.046 A 
BRANCH  14  19
HETATM   19  O   UNL     1       5.815  29.967  56.482  1.00  0.00    -0.355 OA
HETATM   20  C   UNL     1       4.403  29.861  56.604  1.00  0.00     0.210 C 
ENDBRANCH  14  19
BRANCH  17  21
HETATM   21  O   UNL     1       8.720  31.439  60.969  1.00  0.00    -0.356 OA
HETATM   22  C   UNL     1       9.350  30.447  61.770  1.00  0.00     0.210 C 
ENDBRANCH  17  21
ENDBRANCH  12  13
ENDBRANCH  11  12
ENDBRANCH   8  11
ENDBRANCH   2   7
BRANCH   1  23
HETATM   23  N   UNL     1       6.815  25.282  52.903  1.00  0.00    -0.321 N 
HETATM   24  C   UNL     1       5.513  25.506  52.494  1.00  0.00     0.265 C 
HETATM   25  O   UNL     1       4.543  24.854  52.870  1.00  0.00    -0.267 OA
HETATM   26  H   UNL     1       7.432  26.082  52.821  1.00  0.00     0.169 HD
BRANCH  24  27
HETATM   27  C   UNL     1       5.362  26.745  51.627  1.00  0.00     0.097 C 
HETATM   28  C   UNL     1       5.638  27.977  52.117  1.00  0.00     0.064 C 
HETATM   29  C   UNL     1       5.988  28.243  53.558  1.00  0.00     0.078 C 
HETATM   30  O   UNL     1       5.585  29.161  51.395  1.00  0.00    -0.353 OA
HETATM   31  C   UNL     1       5.559  29.055  49.972  1.00  0.00     0.185 C 
HETATM   32  C   UNL     1       4.433  28.160  49.500  1.00  0.00     0.106 C 
HETATM   33  S   UNL     1       4.831  26.462  49.981  1.00  0.00    -0.120 SA
ENDBRANCH  24  27
ENDBRANCH   1  23
TORSDOF 8
ENDMDL
MODEL 6
REMARK VINA RESULT:      -8.9      2.923      8.365
REMARK  8 active torsions:
REMARK  status: ('A' for Active; 'I' for Inactive)
REMARK    1  A    between atoms: C_7  and  C_8 
REMARK       I    between atoms: C_8  and  N_9 
REMARK    2  A    between atoms: N_9  and  C_10 
REMARK    3  A    between atoms: C_11  and  C_12 
REMARK       I    between atoms: C_12  and  N_13 
REMARK    4  A    between atoms: N_13  and  C_14 
REMARK    5  A    between atoms: C_14  and  C_15 
REMARK    6  A    between atoms: C_15  and  C_16 
REMARK    7  A    between atoms: C_17  and  O_18 
REMARK    8  A    between atoms: C_22  and  O_23 
ROOT
HETATM    1  C   UNL     1       7.092  24.719  54.131  1.00  0.00     0.050 A 
HETATM    2  C   UNL     1       7.651  24.624  55.417  1.00  0.00     0.058 A 
HETATM    3  C   UNL     1       8.536  23.569  55.716  1.00  0.00     0.019 A 
HETATM    4  C   UNL     1       8.856  22.615  54.751  1.00  0.00     0.001 A 
HETATM    5  C   UNL     1       8.270  22.683  53.492  1.00  0.00     0.002 A 
HETATM    6  C   UNL     1       7.383  23.718  53.190  1.00  0.00     0.030 A 
ENDROOT
BRANCH   2   7
HETATM    7  C   UNL     1       7.198  25.470  56.559  1.00  0.00     0.253 C 
HETATM    8  N   UNL     1       7.934  26.622  56.756  1.00  0.00    -0.356 N 
HETATM    9  H   UNL     1       8.491  26.938  55.973  1.00  0.00     0.162 HD
HETATM   10  O   UNL     1       6.267  25.112  57.269  1.00  0.00    -0.268 OA
BRANCH   8  11
HETATM   11  C   UNL     1       7.554  27.626  57.735  1.00  0.00     0.127 C 
BRANCH  11  12
HETATM   12  C   UNL     1       8.212  28.996  57.521  1.00  0.00     0.061 C 
BRANCH  12  13
HETATM   13  C   UNL     1       7.864  30.088  58.525  1.00  0.00    -0.021 A 
HETATM   14  C   UNL     1       6.780  30.951  58.252  1.00  0.00     0.074 A 
HETATM   15  C   UNL     1       6.423  31.936  59.177  1.00  0.00     0.040 A 
HETATM   16  C   UNL     1       7.152  32.093  60.356  1.00  0.00     0.039 A 
HETATM   17  C   UNL     1       8.252  31.280  60.623  1.00  0.00     0.068 A 
HETATM   18  C   UNL     1       8.605  30.286  59.707  1.00  0.00     0.046 A 
BRANCH  14  19
HETATM   19  O   UNL     1       6.121  30.735  57.069  1.00  0.00    -0.355 OA
HETATM   20  C   UNL     1       5.228  31.753  56.633  1.00  0.00     0.210 C 
ENDBRANCH  14  19
BRANCH  17  21
HETATM   21  O   UNL     1       8.884  31.549  61.805  1.00  0.00    -0.356 OA
HETATM   22  C   UNL     1       8.084  32.061  62.863  1.00  0.00     0.210 C 
ENDBRANCH  17  21
ENDBRANCH  12  13
ENDBRANCH  11  12
ENDBRANCH   8  11
ENDBRANCH   2   7
BRANCH   1  23
HETATM   23  N   UNL     1       6.237  25.746  53.683  1.00  0.00    -0.321 N 
HETATM   24  C   UNL     1       6.560  27.087  53.584  1.00  0.00     0.265 C 
HETATM   25  O   UNL     1       7.694  27.541  53.714  1.00  0.00    -0.267 OA
HETATM   26  H   UNL     1       5.384  25.476  53.206  1.00  0.00     0.169 HD
BRANCH  24  27
HETATM   27  C   UNL     1       5.391  27.956  53.153  1.00  0.00     0.097 C 
HETATM   28  C   UNL     1       4.539  28.480  54.066  1.00  0.00     0.064 C 
HETATM   29  C   UNL     1       4.591  28.159  55.538  1.00  0.00     0.078 C 
HETATM   30  O   UNL     1       3.477  29.327  53.784  1.00  0.00    -0.353 OA
HETATM   31  C   UNL     1       3.467  29.954  52.501  1.00  0.00     0.185 C 
HETATM   32  C   UNL     1       3.576  28.938  51.384  1.00  0.00     0.106 C 
HETATM   33  S   UNL     1       5.242  28.233  51.430  1.00  0.00    -0.120 SA
ENDBRANCH  24  27
ENDBRANCH   1  23
TORSDOF 8
ENDMDL
MODEL 7
REMARK VINA RESULT:      -8.8      3.141      8.836
REMARK  8 active torsions:
REMARK  status: ('A' for Active; 'I' for Inactive)
REMARK    1  A    between atoms: C_7  and  C_8 
REMARK       I    between atoms: C_8  and  N_9 
REMARK    2  A    between atoms: N_9  and  C_10 
REMARK    3  A    between atoms: C_11  and  C_12 
REMARK       I    between atoms: C_12  and  N_13 
REMARK    4  A    between atoms: N_13  and  C_14 
REMARK    5  A    between atoms: C_14  and  C_15 
REMARK    6  A    between atoms: C_15  and  C_16 
REMARK    7  A    between atoms: C_17  and  O_18 
REMARK    8  A    between atoms: C_22  and  O_23 
ROOT
HETATM    1  C   UNL     1       7.329  24.818  54.097  1.00  0.00     0.050 A 
HETATM    2  C   UNL     1       7.472  24.797  55.495  1.00  0.00     0.058 A 
HETATM    3  C   UNL     1       8.237  23.781  56.102  1.00  0.00     0.019 A 
HETATM    4  C   UNL     1       8.849  22.794  55.329  1.00  0.00     0.001 A 
HETATM    5  C   UNL     1       8.673  22.790  53.949  1.00  0.00     0.002 A 
HETATM    6  C   UNL     1       7.906  23.785  53.340  1.00  0.00     0.030 A 
ENDROOT
BRANCH   2   7
HETATM    7  C   UNL     1       6.682  25.679  56.401  1.00  0.00     0.253 C 
HETATM    8  N   UNL     1       7.259  26.906  56.665  1.00  0.00    -0.356 N 
HETATM    9  H   UNL     1       7.973  27.213  56.018  1.00  0.00     0.162 HD
HETATM   10  O   UNL     1       5.628  25.290  56.889  1.00  0.00    -0.268 OA
BRANCH   8  11
HETATM   11  C   UNL     1       6.569  27.940  57.416  1.00  0.00     0.127 C 
BRANCH  11  12
HETATM   12  C   UNL     1       6.864  29.370  56.939  1.00  0.00     0.061 C 
BRANCH  12  13
HETATM   13  C   UNL     1       7.625  30.271  57.903  1.00  0.00    -0.021 A 
HETATM   14  C   UNL     1       9.036  30.257  57.887  1.00  0.00     0.074 A 
HETATM   15  C   UNL     1       9.752  31.103  58.739  1.00  0.00     0.040 A 
HETATM   16  C   UNL     1       9.079  31.938  59.631  1.00  0.00     0.039 A 
HETATM   17  C   UNL     1       7.687  31.934  59.693  1.00  0.00     0.068 A 
HETATM   18  C   UNL     1       6.967  31.100  58.835  1.00  0.00     0.046 A 
BRANCH  14  19
HETATM   19  O   UNL     1       9.621  29.403  56.987  1.00  0.00    -0.355 OA
HETATM   20  C   UNL     1      11.033  29.487  56.841  1.00  0.00     0.210 C 
ENDBRANCH  14  19
BRANCH  17  21
HETATM   21  O   UNL     1       7.156  32.790  60.619  1.00  0.00    -0.356 OA
HETATM   22  C   UNL     1       6.105  32.288  61.434  1.00  0.00     0.210 C 
ENDBRANCH  17  21
ENDBRANCH  12  13
ENDBRANCH  11  12
ENDBRANCH   8  11
ENDBRANCH   2   7
BRANCH   1  23
HETATM   23  N   UNL     1       6.638  25.801  53.360  1.00  0.00    -0.321 N 
HETATM   24  C   UNL     1       5.324  25.724  52.937  1.00  0.00     0.265 C 
HETATM   25  O   UNL     1       4.527  24.859  53.292  1.00  0.00    -0.267 OA
HETATM   26  H   UNL     1       7.053  26.723  53.296  1.00  0.00     0.169 HD
BRANCH  24  27
HETATM   27  C   UNL     1       4.898  26.906  52.083  1.00  0.00     0.097 C 
HETATM   28  C   UNL     1       4.477  28.061  52.653  1.00  0.00     0.064 C 
HETATM   29  C   UNL     1       4.276  28.236  54.136  1.00  0.00     0.078 C 
HETATM   30  O   UNL     1       4.120  29.213  51.968  1.00  0.00    -0.353 OA
HETATM   31  C   UNL     1       4.526  29.312  50.603  1.00  0.00     0.185 C 
HETATM   32  C   UNL     1       4.065  28.116  49.797  1.00  0.00     0.106 C 
HETATM   33  S   UNL     1       5.004  26.673  50.350  1.00  0.00    -0.120 SA
ENDBRANCH  24  27
ENDBRANCH   1  23
TORSDOF 8
ENDMDL
MODEL 8
REMARK VINA RESULT:      -8.8      2.965      9.487
REMARK  8 active torsions:
REMARK  status: ('A' for Active; 'I' for Inactive)
REMARK    1  A    between atoms: C_7  and  C_8 
REMARK       I    between atoms: C_8  and  N_9 
REMARK    2  A    between atoms: N_9  and  C_10 
REMARK    3  A    between atoms: C_11  and  C_12 
REMARK       I    between atoms: C_12  and  N_13 
REMARK    4  A    between atoms: N_13  and  C_14 
REMARK    5  A    between atoms: C_14  and  C_15 
REMARK    6  A    between atoms: C_15  and  C_16 
REMARK    7  A    between atoms: C_17  and  O_18 
REMARK    8  A    between atoms: C_22  and  O_23 
ROOT
HETATM    1  C   UNL     1       5.911  25.186  53.759  1.00  0.00     0.050 A 
HETATM    2  C   UNL     1       5.456  26.323  54.449  1.00  0.00     0.058 A 
HETATM    3  C   UNL     1       4.787  27.344  53.744  1.00  0.00     0.019 A 
HETATM    4  C   UNL     1       4.578  27.240  52.369  1.00  0.00     0.001 A 
HETATM    5  C   UNL     1       5.066  26.135  51.679  1.00  0.00     0.002 A 
HETATM    6  C   UNL     1       5.741  25.125  52.366  1.00  0.00     0.030 A 
ENDROOT
BRANCH   2   7
HETATM    7  C   UNL     1       5.823  26.609  55.865  1.00  0.00     0.253 C 
HETATM    8  N   UNL     1       7.175  26.788  56.090  1.00  0.00    -0.356 N 
HETATM    9  H   UNL     1       7.739  27.005  55.279  1.00  0.00     0.162 HD
HETATM   10  O   UNL     1       4.967  26.632  56.740  1.00  0.00    -0.268 OA
BRANCH   8  11
HETATM   11  C   UNL     1       7.696  27.206  57.380  1.00  0.00     0.127 C 
BRANCH  11  12
HETATM   12  C   UNL     1       8.492  28.519  57.343  1.00  0.00     0.061 C 
BRANCH  12  13
HETATM   13  C   UNL     1       7.884  29.709  58.073  1.00  0.00    -0.021 A 
HETATM   14  C   UNL     1       6.821  30.416  57.469  1.00  0.00     0.074 A 
HETATM   15  C   UNL     1       6.227  31.488  58.138  1.00  0.00     0.040 A 
HETATM   16  C   UNL     1       6.699  31.887  59.389  1.00  0.00     0.039 A 
HETATM   17  C   UNL     1       7.775  31.231  59.983  1.00  0.00     0.068 A 
HETATM   18  C   UNL     1       8.364  30.150  59.323  1.00  0.00     0.046 A 
BRANCH  14  19
HETATM   19  O   UNL     1       6.422  29.966  56.236  1.00  0.00    -0.355 OA
HETATM   20  C   UNL     1       5.159  30.415  55.762  1.00  0.00     0.210 C 
ENDBRANCH  14  19
BRANCH  17  21
HETATM   21  O   UNL     1       8.144  31.731  61.201  1.00  0.00    -0.356 OA
HETATM   22  C   UNL     1       9.293  31.159  61.813  1.00  0.00     0.210 C 
ENDBRANCH  17  21
ENDBRANCH  12  13
ENDBRANCH  11  12
ENDBRANCH   8  11
ENDBRANCH   2   7
BRANCH   1  23
HETATM   23  N   UNL     1       6.546  24.073  54.345  1.00  0.00    -0.321 N 
HETATM   24  C   UNL     1       7.739  23.508  53.933  1.00  0.00     0.265 C 
HETATM   25  O   UNL     1       8.493  24.004  53.101  1.00  0.00    -0.267 OA
HETATM   26  H   UNL     1       6.225  23.772  55.259  1.00  0.00     0.169 HD
BRANCH  24  27
HETATM   27  C   UNL     1       8.113  22.260  54.714  1.00  0.00     0.097 C 
HETATM   28  C   UNL     1       8.211  21.056  54.101  1.00  0.00     0.064 C 
HETATM   29  C   UNL     1       7.846  20.822  52.657  1.00  0.00     0.078 C 
HETATM   30  O   UNL     1       8.598  19.871  54.709  1.00  0.00    -0.353 OA
HETATM   31  C   UNL     1       9.249  19.971  55.976  1.00  0.00     0.185 C 
HETATM   32  C   UNL     1       8.425  20.767  56.965  1.00  0.00     0.106 C 
HETATM   33  S   UNL     1       8.416  22.494  56.424  1.00  0.00    -0.120 SA
ENDBRANCH  24  27
ENDBRANCH   1  23
TORSDOF 8
ENDMDL
MODEL 9
REMARK VINA RESULT:      -8.8      4.432      7.180
REMARK  8 active torsions:
REMARK  status: ('A' for Active; 'I' for Inactive)
REMARK    1  A    between atoms: C_7  and  C_8 
REMARK       I    between atoms: C_8  and  N_9 
REMARK    2  A    between atoms: N_9  and  C_10 
REMARK    3  A    between atoms: C_11  and  C_12 
REMARK       I    between atoms: C_12  and  N_13 
REMARK    4  A    between atoms: N_13  and  C_14 
REMARK    5  A    between atoms: C_14  and  C_15 
REMARK    6  A    between atoms: C_15  and  C_16 
REMARK    7  A    between atoms: C_17  and  O_18 
REMARK    8  A    between atoms: C_22  and  O_23 
ROOT
HETATM    1  C   UNL     1       7.389  24.692  54.954  1.00  0.00     0.050 A 
HETATM    2  C   UNL     1       6.762  24.079  53.855  1.00  0.00     0.058 A 
HETATM    3  C   UNL     1       7.249  22.849  53.372  1.00  0.00     0.019 A 
HETATM    4  C   UNL     1       8.352  22.237  53.968  1.00  0.00     0.001 A 
HETATM    5  C   UNL     1       9.000  22.863  55.028  1.00  0.00     0.002 A 
HETATM    6  C   UNL     1       8.532  24.089  55.505  1.00  0.00     0.030 A 
ENDROOT
BRANCH   2   7
HETATM    7  C   UNL     1       5.724  24.764  53.033  1.00  0.00     0.253 C 
HETATM    8  N   UNL     1       6.198  25.374  51.888  1.00  0.00    -0.356 N 
HETATM    9  H   UNL     1       7.102  25.063  51.557  1.00  0.00     0.162 HD
HETATM   10  O   UNL     1       4.556  24.798  53.404  1.00  0.00    -0.268 OA
BRANCH   8  11
HETATM   11  C   UNL     1       5.311  25.970  50.904  1.00  0.00     0.127 C 
BRANCH  11  12
HETATM   12  C   UNL     1       5.541  27.471  50.676  1.00  0.00     0.061 C 
BRANCH  12  13
HETATM   13  C   UNL     1       4.846  28.096  49.473  1.00  0.00    -0.021 A 
HETATM   14  C   UNL     1       5.169  29.420  49.104  1.00  0.00     0.074 A 
HETATM   15  C   UNL     1       4.568  29.997  47.982  1.00  0.00     0.040 A 
HETATM   16  C   UNL     1       3.626  29.284  47.242  1.00  0.00     0.039 A 
HETATM   17  C   UNL     1       3.261  27.992  47.616  1.00  0.00     0.068 A 
HETATM   18  C   UNL     1       3.867  27.406  48.728  1.00  0.00     0.046 A 
BRANCH  14  19
HETATM   19  O   UNL     1       6.099  30.054  49.888  1.00  0.00    -0.355 OA
HETATM   20  C   UNL     1       5.892  31.438  50.141  1.00  0.00     0.210 C 
ENDBRANCH  14  19
BRANCH  17  21
HETATM   21  O   UNL     1       2.317  27.413  46.812  1.00  0.00    -0.356 OA
HETATM   22  C   UNL     1       1.001  27.947  46.874  1.00  0.00     0.210 C 
ENDBRANCH  17  21
ENDBRANCH  12  13
ENDBRANCH  11  12
ENDBRANCH   8  11
ENDBRANCH   2   7
BRANCH   1  23
HETATM   23  N   UNL     1       6.977  25.891  55.568  1.00  0.00    -0.321 N 
HETATM   24  C   UNL     1       7.219  27.170  55.099  1.00  0.00     0.265 C 
HETATM   25  O   UNL     1       7.683  27.429  53.993  1.00  0.00    -0.267 OA
HETATM   26  H   UNL     1       6.279  25.831  56.301  1.00  0.00     0.169 HD
BRANCH  24  27
HETATM   27  C   UNL     1       6.721  28.257  56.037  1.00  0.00     0.097 C 
HETATM   28  C   UNL     1       7.562  28.863  56.910  1.00  0.00     0.064 C 
HETATM   29  C   UNL     1       8.995  28.443  57.117  1.00  0.00     0.078 C 
HETATM   30  O   UNL     1       7.223  29.899  57.767  1.00  0.00    -0.353 OA
HETATM   31  C   UNL     1       6.009  30.600  57.494  1.00  0.00     0.185 C 
HETATM   32  C   UNL     1       4.830  29.655  57.399  1.00  0.00     0.106 C 
HETATM   33  S   UNL     1       5.024  28.667  55.897  1.00  0.00    -0.120 SA
ENDBRANCH  24  27
ENDBRANCH   1  23
TORSDOF 8
ENDMDL
MODEL 10
REMARK VINA RESULT:      -8.7      2.930      8.558
REMARK  8 active torsions:
REMARK  status: ('A' for Active; 'I' for Inactive)
REMARK    1  A    between atoms: C_7  and  C_8 
REMARK       I    between atoms: C_8  and  N_9 
REMARK    2  A    between atoms: N_9  and  C_10 
REMARK    3  A    between atoms: C_11  and  C_12 
REMARK       I    between atoms: C_12  and  N_13 
REMARK    4  A    between atoms: N_13  and  C_14 
REMARK    5  A    between atoms: C_14  and  C_15 
REMARK    6  A    between atoms: C_15  and  C_16 
REMARK    7  A    between atoms: C_17  and  O_18 
REMARK    8  A    between atoms: C_22  and  O_23 
ROOT
HETATM    1  C   UNL     1       7.076  24.530  53.993  1.00  0.00     0.050 A 
HETATM    2  C   UNL     1       7.619  24.418  55.284  1.00  0.00     0.058 A 
HETATM    3  C   UNL     1       8.525  23.377  55.571  1.00  0.00     0.019 A 
HETATM    4  C   UNL     1       8.881  22.454  54.589  1.00  0.00     0.001 A 
HETATM    5  C   UNL     1       8.310  22.538  53.323  1.00  0.00     0.002 A 
HETATM    6  C   UNL     1       7.403  23.558  53.033  1.00  0.00     0.030 A 
ENDROOT
BRANCH   2   7
HETATM    7  C   UNL     1       7.132  25.226  56.438  1.00  0.00     0.253 C 
HETATM    8  N   UNL     1       7.871  26.362  56.707  1.00  0.00    -0.356 N 
HETATM    9  H   UNL     1       8.461  26.700  55.958  1.00  0.00     0.162 HD
HETATM   10  O   UNL     1       6.170  24.853  57.099  1.00  0.00    -0.268 OA
BRANCH   8  11
HETATM   11  C   UNL     1       7.463  27.333  57.707  1.00  0.00     0.127 C 
BRANCH  11  12
HETATM   12  C   UNL     1       8.199  28.678  57.617  1.00  0.00     0.061 C 
BRANCH  12  13
HETATM   13  C   UNL     1       7.415  29.916  58.031  1.00  0.00    -0.021 A 
HETATM   14  C   UNL     1       7.825  30.640  59.172  1.00  0.00     0.074 A 
HETATM   15  C   UNL     1       7.140  31.798  59.546  1.00  0.00     0.040 A 
HETATM   16  C   UNL     1       6.031  32.229  58.817  1.00  0.00     0.039 A 
HETATM   17  C   UNL     1       5.584  31.504  57.714  1.00  0.00     0.068 A 
HETATM   18  C   UNL     1       6.272  30.352  57.328  1.00  0.00     0.046 A 
BRANCH  14  19
HETATM   19  O   UNL     1       8.918  30.146  59.837  1.00  0.00    -0.355 OA
HETATM   20  C   UNL     1       9.132  30.614  61.163  1.00  0.00     0.210 C 
ENDBRANCH  14  19
BRANCH  17  21
HETATM   21  O   UNL     1       4.480  32.029  57.098  1.00  0.00    -0.356 OA
HETATM   22  C   UNL     1       4.689  33.139  56.236  1.00  0.00     0.210 C 
ENDBRANCH  17  21
ENDBRANCH  12  13
ENDBRANCH  11  12
ENDBRANCH   8  11
ENDBRANCH   2   7
BRANCH   1  23
HETATM   23  N   UNL     1       6.203  25.548  53.557  1.00  0.00    -0.321 N 
HETATM   24  C   UNL     1       6.514  26.890  53.442  1.00  0.00     0.265 C 
HETATM   25  O   UNL     1       7.646  27.354  53.545  1.00  0.00    -0.267 OA
HETATM   26  H   UNL     1       5.343  25.268  53.100  1.00  0.00     0.169 HD
BRANCH  24  27
HETATM   27  C   UNL     1       5.328  27.747  53.031  1.00  0.00     0.097 C 
HETATM   28  C   UNL     1       4.847  27.710  51.766  1.00  0.00     0.064 C 
HETATM   29  C   UNL     1       5.497  26.937  50.647  1.00  0.00     0.078 C 
HETATM   30  O   UNL     1       3.740  28.408  51.304  1.00  0.00    -0.353 OA
HETATM   31  C   UNL     1       2.853  28.945  52.286  1.00  0.00     0.185 C 
HETATM   32  C   UNL     1       3.586  29.818  53.282  1.00  0.00     0.106 C 
HETATM   33  S   UNL     1       4.640  28.750  54.292  1.00  0.00    -0.120 SA
ENDBRANCH  24  27
ENDBRANCH   1  23
TORSDOF 8
ENDMDL
