MODEL 1
REMARK VINA RESULT:      -9.2      0.000      0.000
REMARK  9 active torsions:
REMARK  status: ('A' for Active; 'I' for Inactive)
REMARK    1  A    between atoms: C_5  and  N_6 
REMARK       I    between atoms: N_6  and  C_7 
REMARK    2  A    between atoms: C_7  and  C_8 
REMARK    3  A    between atoms: C_8  and  S_9 
REMARK    4  A    between atoms: S_9  and  C_10 
REMARK    5  A    between atoms: C_11  and  C_12 
REMARK       I    between atoms: C_12  and  N_13 
REMARK    6  A    between atoms: N_13  and  C_14 
REMARK    7  A    between atoms: C_14  and  C_15 
REMARK    8  A    between atoms: C_15  and  N_16 
REMARK    9  A    between atoms: C_15  and  C_22 
ROOT
HETATM    1  C   UNL     1       5.498  26.249  54.597  1.00  0.00     0.016 A 
HETATM    2  C   UNL     1       6.379  27.106  53.889  1.00  0.00     0.048 A 
HETATM    3  C   UNL     1       6.554  26.959  52.499  1.00  0.00     0.018 A 
HETATM    4  C   UNL     1       5.912  25.937  51.807  1.00  0.00     0.001 A 
HETATM    5  C   UNL     1       5.091  25.057  52.497  1.00  0.00     0.001 A 
HETATM    6  C   UNL     1       4.886  25.213  53.873  1.00  0.00     0.019 A 
ENDROOT
BRANCH   2   7
HETATM    7  C   UNL     1       7.270  28.129  54.519  1.00  0.00     0.253 C 
HETATM    8  N   UNL     1       6.801  28.688  55.679  1.00  0.00    -0.354 N 
HETATM    9  H   UNL     1       5.833  28.503  55.933  1.00  0.00     0.162 HD
HETATM   10  O   UNL     1       8.417  28.335  54.131  1.00  0.00    -0.268 OA
BRANCH   8  11
HETATM   11  C   UNL     1       7.562  29.606  56.497  1.00  0.00     0.161 C 
BRANCH  11  12
HETATM   12  C   UNL     1       6.759  30.717  57.242  1.00  0.00     0.245 C 
BRANCH  12  13
HETATM   13  N   UNL     1       6.944  30.680  58.759  1.00  0.00    -0.061 N 
HETATM   14  H   UNL     1       6.164  30.103  59.110  1.00  0.00     0.280 HD
HETATM   15  C   UNL     1       6.811  31.956  59.568  1.00  0.00     0.236 C 
HETATM   16  C   UNL     1       8.198  32.206  60.125  1.00  0.00     0.029 C 
HETATM   17  C   UNL     1       8.695  30.804  60.406  1.00  0.00     0.029 C 
HETATM   18  C   UNL     1       8.253  30.035  59.178  1.00  0.00     0.236 C 
ENDBRANCH  12  13
BRANCH  12  19
HETATM   19  C   UNL     1       5.342  30.931  56.733  1.00  0.00     0.015 A 
HETATM   20  S   UNL     1       3.965  30.233  57.490  1.00  0.00    -0.104 SA
HETATM   21  C   UNL     1       2.889  30.910  56.357  1.00  0.00     0.050 A 
HETATM   22  C   UNL     1       3.550  31.635  55.396  1.00  0.00     0.008 A 
HETATM   23  C   UNL     1       4.959  31.647  55.608  1.00  0.00     0.017 A 
ENDBRANCH  12  19
ENDBRANCH  11  12
ENDBRANCH   8  11
ENDBRANCH   2   7
BRANCH   1  24
HETATM   24  S   UNL     1       5.184  26.490  56.362  1.00  0.00    -0.120 SA
BRANCH  24  25
HETATM   25  C   UNL     1       6.196  25.242  57.245  1.00  0.00     0.182 C 
BRANCH  25  26
HETATM   26  C   UNL     1       7.690  25.538  57.186  1.00  0.00     0.231 C 
HETATM   27  N   UNL     1       8.557  24.652  56.611  1.00  0.00    -0.327 N 
HETATM   28  H   UNL     1       9.509  24.806  56.932  1.00  0.00     0.169 HD
HETATM   29  O   UNL     1       8.188  26.486  57.800  1.00  0.00    -0.272 OA
BRANCH  27  30
HETATM   30  C   UNL     1       8.401  23.660  55.633  1.00  0.00     0.034 A 
HETATM   31  C   UNL     1       8.254  23.924  54.272  1.00  0.00     0.030 A 
HETATM   32  C   UNL     1       8.174  22.870  53.352  1.00  0.00     0.009 A 
HETATM   33  C   UNL     1       8.243  21.540  53.781  1.00  0.00    -0.062 A 
HETATM   34  C   UNL     1       8.208  20.409  52.795  1.00  0.00     0.048 C 
HETATM   35  C   UNL     1       8.426  21.279  55.141  1.00  0.00     0.009 A 
HETATM   36  C   UNL     1       8.515  22.331  56.056  1.00  0.00     0.030 A 
ENDBRANCH  27  30
ENDBRANCH  25  26
ENDBRANCH  24  25
ENDBRANCH   1  24
TORSDOF 9
ENDMDL
MODEL 2
REMARK VINA RESULT:      -9.2      2.411      5.814
REMARK  9 active torsions:
REMARK  status: ('A' for Active; 'I' for Inactive)
REMARK    1  A    between atoms: C_5  and  N_6 
REMARK       I    between atoms: N_6  and  C_7 
REMARK    2  A    between atoms: C_7  and  C_8 
REMARK    3  A    between atoms: C_8  and  S_9 
REMARK    4  A    between atoms: S_9  and  C_10 
REMARK    5  A    between atoms: C_11  and  C_12 
REMARK       I    between atoms: C_12  and  N_13 
REMARK    6  A    between atoms: N_13  and  C_14 
REMARK    7  A    between atoms: C_14  and  C_15 
REMARK    8  A    between atoms: C_15  and  N_16 
REMARK    9  A    between atoms: C_15  and  C_22 
ROOT
HETATM    1  C   UNL     1       6.997  28.427  56.404  1.00  0.00     0.016 A 
HETATM    2  C   UNL     1       5.967  29.311  55.990  1.00  0.00     0.048 A 
HETATM    3  C   UNL     1       5.783  30.547  56.639  1.00  0.00     0.018 A 
HETATM    4  C   UNL     1       6.567  30.899  57.732  1.00  0.00     0.001 A 
HETATM    5  C   UNL     1       7.541  30.020  58.184  1.00  0.00     0.001 A 
HETATM    6  C   UNL     1       7.754  28.802  57.527  1.00  0.00     0.019 A 
ENDROOT
BRANCH   2   7
HETATM    7  C   UNL     1       4.936  28.997  54.954  1.00  0.00     0.253 C 
HETATM    8  N   UNL     1       5.229  29.414  53.681  1.00  0.00    -0.354 N 
HETATM    9  H   UNL     1       6.021  30.040  53.562  1.00  0.00     0.162 HD
HETATM   10  O   UNL     1       3.974  28.267  55.179  1.00  0.00    -0.268 OA
BRANCH   8  11
HETATM   11  C   UNL     1       4.418  29.105  52.524  1.00  0.00     0.161 C 
BRANCH  11  12
HETATM   12  C   UNL     1       4.605  27.692  51.890  1.00  0.00     0.245 C 
BRANCH  12  13
HETATM   13  N   UNL     1       5.517  26.779  52.709  1.00  0.00    -0.061 N 
HETATM   14  H   UNL     1       5.696  27.295  53.584  1.00  0.00     0.280 HD
HETATM   15  C   UNL     1       6.913  26.460  52.212  1.00  0.00     0.236 C 
HETATM   16  C   UNL     1       6.889  24.975  51.916  1.00  0.00     0.029 C 
HETATM   17  C   UNL     1       5.991  24.438  53.012  1.00  0.00     0.029 C 
HETATM   18  C   UNL     1       4.865  25.451  53.054  1.00  0.00     0.236 C 
ENDBRANCH  12  13
BRANCH  12  19
HETATM   19  C   UNL     1       4.814  27.691  50.384  1.00  0.00     0.015 A 
HETATM   20  S   UNL     1       5.469  29.034  49.533  1.00  0.00    -0.104 SA
HETATM   21  C   UNL     1       5.345  28.253  48.026  1.00  0.00     0.050 A 
HETATM   22  C   UNL     1       4.791  27.002  48.143  1.00  0.00     0.008 A 
HETATM   23  C   UNL     1       4.484  26.677  49.496  1.00  0.00     0.017 A 
ENDBRANCH  12  19
ENDBRANCH  11  12
ENDBRANCH   8  11
ENDBRANCH   2   7
BRANCH   1  24
HETATM   24  S   UNL     1       7.313  26.885  55.516  1.00  0.00    -0.120 SA
BRANCH  24  25
HETATM   25  C   UNL     1       6.712  25.531  56.597  1.00  0.00     0.182 C 
BRANCH  25  26
HETATM   26  C   UNL     1       7.790  24.991  57.528  1.00  0.00     0.231 C 
HETATM   27  N   UNL     1       8.249  23.710  57.399  1.00  0.00    -0.327 N 
HETATM   28  H   UNL     1       8.692  23.388  58.255  1.00  0.00     0.169 HD
HETATM   29  O   UNL     1       8.158  25.615  58.528  1.00  0.00    -0.272 OA
BRANCH  27  30
HETATM   30  C   UNL     1       8.298  22.817  56.319  1.00  0.00     0.034 A 
HETATM   31  C   UNL     1       7.756  21.534  56.343  1.00  0.00     0.030 A 
HETATM   32  C   UNL     1       7.786  20.731  55.195  1.00  0.00     0.009 A 
HETATM   33  C   UNL     1       8.357  21.203  54.008  1.00  0.00    -0.062 A 
HETATM   34  C   UNL     1       8.349  20.366  52.762  1.00  0.00     0.048 C 
HETATM   35  C   UNL     1       8.869  22.502  53.977  1.00  0.00     0.009 A 
HETATM   36  C   UNL     1       8.829  23.305  55.119  1.00  0.00     0.030 A 
ENDBRANCH  27  30
ENDBRANCH  25  26
ENDBRANCH  24  25
ENDBRANCH   1  24
TORSDOF 9
ENDMDL
MODEL 3
REMARK VINA RESULT:      -9.2      1.925      3.500
REMARK  9 active torsions:
REMARK  status: ('A' for Active; 'I' for Inactive)
REMARK    1  A    between atoms: C_5  and  N_6 
REMARK       I    between atoms: N_6  and  C_7 
REMARK    2  A    between atoms: C_7  and  C_8 
REMARK    3  A    between atoms: C_8  and  S_9 
REMARK    4  A    between atoms: S_9  and  C_10 
REMARK    5  A    between atoms: C_11  and  C_12 
REMARK       I    between atoms: C_12  and  N_13 
REMARK    6  A    between atoms: N_13  and  C_14 
REMARK    7  A    between atoms: C_14  and  C_15 
REMARK    8  A    between atoms: C_15  and  N_16 
REMARK    9  A    between atoms: C_15  and  C_22 
ROOT
HETATM    1  C   UNL     1       5.927  26.887  56.367  1.00  0.00     0.016 A 
HETATM    2  C   UNL     1       7.242  27.357  56.614  1.00  0.00     0.048 A 
HETATM    3  C   UNL     1       8.294  26.449  56.840  1.00  0.00     0.018 A 
HETATM    4  C   UNL     1       8.053  25.079  56.881  1.00  0.00     0.001 A 
HETATM    5  C   UNL     1       6.762  24.608  56.697  1.00  0.00     0.001 A 
HETATM    6  C   UNL     1       5.713  25.501  56.442  1.00  0.00     0.019 A 
ENDROOT
BRANCH   2   7
HETATM    7  C   UNL     1       7.621  28.795  56.778  1.00  0.00     0.253 C 
HETATM    8  N   UNL     1       7.453  29.312  58.037  1.00  0.00    -0.354 N 
HETATM    9  H   UNL     1       6.936  28.751  58.711  1.00  0.00     0.162 HD
HETATM   10  O   UNL     1       8.205  29.428  55.903  1.00  0.00    -0.268 OA
BRANCH   8  11
HETATM   11  C   UNL     1       7.869  30.641  58.425  1.00  0.00     0.161 C 
BRANCH  11  12
HETATM   12  C   UNL     1       6.744  31.631  58.862  1.00  0.00     0.245 C 
BRANCH  12  13
HETATM   13  N   UNL     1       6.495  31.632  60.370  1.00  0.00    -0.061 N 
HETATM   14  H   UNL     1       5.797  30.889  60.526  1.00  0.00     0.280 HD
HETATM   15  C   UNL     1       5.857  32.839  61.029  1.00  0.00     0.236 C 
HETATM   16  C   UNL     1       6.936  33.402  61.932  1.00  0.00     0.029 C 
HETATM   17  C   UNL     1       7.633  32.151  62.426  1.00  0.00     0.029 C 
HETATM   18  C   UNL     1       7.741  31.306  61.174  1.00  0.00     0.236 C 
ENDBRANCH  12  13
BRANCH  12  19
HETATM   19  C   UNL     1       5.515  31.635  57.967  1.00  0.00     0.015 A 
HETATM   20  S   UNL     1       3.974  31.088  58.498  1.00  0.00    -0.104 SA
HETATM   21  C   UNL     1       3.246  31.396  56.991  1.00  0.00     0.050 A 
HETATM   22  C   UNL     1       4.150  31.881  56.077  1.00  0.00     0.008 A 
HETATM   23  C   UNL     1       5.454  32.018  56.635  1.00  0.00     0.017 A 
ENDBRANCH  12  19
ENDBRANCH  11  12
ENDBRANCH   8  11
ENDBRANCH   2   7
BRANCH   1  24
HETATM   24  S   UNL     1       4.586  28.036  55.974  1.00  0.00    -0.120 SA
BRANCH  24  25
HETATM   25  C   UNL     1       4.947  28.702  54.304  1.00  0.00     0.182 C 
BRANCH  25  26
HETATM   26  C   UNL     1       4.089  28.070  53.214  1.00  0.00     0.231 C 
HETATM   27  N   UNL     1       4.583  27.066  52.429  1.00  0.00    -0.327 N 
HETATM   28  H   UNL     1       4.055  26.979  51.565  1.00  0.00     0.169 HD
HETATM   29  O   UNL     1       3.000  28.548  52.886  1.00  0.00    -0.272 OA
BRANCH  27  30
HETATM   30  C   UNL     1       5.591  26.111  52.621  1.00  0.00     0.034 A 
HETATM   31  C   UNL     1       6.947  26.417  52.714  1.00  0.00     0.030 A 
HETATM   32  C   UNL     1       7.884  25.409  52.977  1.00  0.00     0.009 A 
HETATM   33  C   UNL     1       7.476  24.083  53.153  1.00  0.00    -0.062 A 
HETATM   34  C   UNL     1       8.468  23.007  53.484  1.00  0.00     0.048 C 
HETATM   35  C   UNL     1       6.112  23.784  53.095  1.00  0.00     0.009 A 
HETATM   36  C   UNL     1       5.179  24.791  52.842  1.00  0.00     0.030 A 
ENDBRANCH  27  30
ENDBRANCH  25  26
ENDBRANCH  24  25
ENDBRANCH   1  24
TORSDOF 9
ENDMDL
MODEL 4
REMARK VINA RESULT:      -9.1      2.306      6.263
REMARK  9 active torsions:
REMARK  status: ('A' for Active; 'I' for Inactive)
REMARK    1  A    between atoms: C_5  and  N_6 
REMARK       I    between atoms: N_6  and  C_7 
REMARK    2  A    between atoms: C_7  and  C_8 
REMARK    3  A    between atoms: C_8  and  S_9 
REMARK    4  A    between atoms: S_9  and  C_10 
REMARK    5  A    between atoms: C_11  and  C_12 
REMARK       I    between atoms: C_12  and  N_13 
REMARK    6  A    between atoms: N_13  and  C_14 
REMARK    7  A    between atoms: C_14  and  C_15 
REMARK    8  A    between atoms: C_15  and  N_16 
REMARK    9  A    between atoms: C_15  and  C_22 
ROOT
HETATM    1  C   UNL     1       7.297  28.409  56.574  1.00  0.00     0.016 A 
HETATM    2  C   UNL     1       6.203  29.246  56.236  1.00  0.00     0.048 A 
HETATM    3  C   UNL     1       5.957  30.429  56.959  1.00  0.00     0.018 A 
HETATM    4  C   UNL     1       6.747  30.769  58.053  1.00  0.00     0.001 A 
HETATM    5  C   UNL     1       7.787  29.931  58.430  1.00  0.00     0.001 A 
HETATM    6  C   UNL     1       8.059  28.768  57.698  1.00  0.00     0.019 A 
ENDROOT
BRANCH   2   7
HETATM    7  C   UNL     1       5.165  28.924  55.208  1.00  0.00     0.253 C 
HETATM    8  N   UNL     1       5.516  29.191  53.909  1.00  0.00    -0.354 N 
HETATM    9  H   UNL     1       6.362  29.733  53.752  1.00  0.00     0.162 HD
HETATM   10  O   UNL     1       4.140  28.304  55.475  1.00  0.00    -0.268 OA
BRANCH   8  11
HETATM   11  C   UNL     1       4.701  28.844  52.766  1.00  0.00     0.161 C 
BRANCH  11  12
HETATM   12  C   UNL     1       5.377  27.984  51.654  1.00  0.00     0.245 C 
BRANCH  12  13
HETATM   13  N   UNL     1       4.682  28.098  50.297  1.00  0.00    -0.061 N 
HETATM   14  H   UNL     1       3.835  28.657  50.477  1.00  0.00     0.280 HD
HETATM   15  C   UNL     1       4.131  26.856  49.624  1.00  0.00     0.236 C 
HETATM   16  C   UNL     1       4.971  26.689  48.374  1.00  0.00     0.029 C 
HETATM   17  C   UNL     1       5.214  28.123  47.950  1.00  0.00     0.029 C 
HETATM   18  C   UNL     1       5.527  28.816  49.260  1.00  0.00     0.236 C 
ENDBRANCH  12  13
BRANCH  12  19
HETATM   19  C   UNL     1       5.796  26.590  52.091  1.00  0.00     0.015 A 
HETATM   20  S   UNL     1       4.821  25.598  53.102  1.00  0.00    -0.104 SA
HETATM   21  C   UNL     1       5.958  24.332  53.108  1.00  0.00     0.050 A 
HETATM   22  C   UNL     1       7.080  24.650  52.382  1.00  0.00     0.008 A 
HETATM   23  C   UNL     1       6.990  25.947  51.799  1.00  0.00     0.017 A 
ENDBRANCH  12  19
ENDBRANCH  11  12
ENDBRANCH   8  11
ENDBRANCH   2   7
BRANCH   1  24
HETATM   24  S   UNL     1       7.687  26.943  55.591  1.00  0.00    -0.120 SA
BRANCH  24  25
HETATM   25  C   UNL     1       6.955  25.514  56.476  1.00  0.00     0.182 C 
BRANCH  25  26
HETATM   26  C   UNL     1       7.912  24.884  57.481  1.00  0.00     0.231 C 
HETATM   27  N   UNL     1       8.271  23.569  57.375  1.00  0.00    -0.327 N 
HETATM   28  H   UNL     1       8.620  23.209  58.258  1.00  0.00     0.169 HD
HETATM   29  O   UNL     1       8.253  25.472  58.511  1.00  0.00    -0.272 OA
BRANCH  27  30
HETATM   30  C   UNL     1       8.328  22.679  56.294  1.00  0.00     0.034 A 
HETATM   31  C   UNL     1       7.635  21.471  56.241  1.00  0.00     0.030 A 
HETATM   32  C   UNL     1       7.692  20.672  55.091  1.00  0.00     0.009 A 
HETATM   33  C   UNL     1       8.439  21.072  53.979  1.00  0.00    -0.062 A 
HETATM   34  C   UNL     1       8.464  20.245  52.728  1.00  0.00     0.048 C 
HETATM   35  C   UNL     1       9.105  22.300  54.021  1.00  0.00     0.009 A 
HETATM   36  C   UNL     1       9.040  23.100  55.164  1.00  0.00     0.030 A 
ENDBRANCH  27  30
ENDBRANCH  25  26
ENDBRANCH  24  25
ENDBRANCH   1  24
TORSDOF 9
ENDMDL
MODEL 5
REMARK VINA RESULT:      -9.1      2.855      5.706
REMARK  9 active torsions:
REMARK  status: ('A' for Active; 'I' for Inactive)
REMARK    1  A    between atoms: C_5  and  N_6 
REMARK       I    between atoms: N_6  and  C_7 
REMARK    2  A    between atoms: C_7  and  C_8 
REMARK    3  A    between atoms: C_8  and  S_9 
REMARK    4  A    between atoms: S_9  and  C_10 
REMARK    5  A    between atoms: C_11  and  C_12 
REMARK       I    between atoms: C_12  and  N_13 
REMARK    6  A    between atoms: N_13  and  C_14 
REMARK    7  A    between atoms: C_14  and  C_15 
REMARK    8  A    between atoms: C_15  and  N_16 
REMARK    9  A    between atoms: C_15  and  C_22 
ROOT
HETATM    1  C   UNL     1       7.838  23.688  53.835  1.00  0.00     0.016 A 
HETATM    2  C   UNL     1       7.621  23.691  55.237  1.00  0.00     0.048 A 
HETATM    3  C   UNL     1       7.673  22.490  55.970  1.00  0.00     0.018 A 
HETATM    4  C   UNL     1       7.881  21.274  55.327  1.00  0.00     0.001 A 
HETATM    5  C   UNL     1       8.039  21.249  53.950  1.00  0.00     0.001 A 
HETATM    6  C   UNL     1       8.020  22.441  53.214  1.00  0.00     0.019 A 
ENDROOT
BRANCH   2   7
HETATM    7  C   UNL     1       7.212  24.886  56.037  1.00  0.00     0.253 C 
HETATM    8  N   UNL     1       8.216  25.770  56.337  1.00  0.00    -0.354 N 
HETATM    9  H   UNL     1       9.172  25.477  56.151  1.00  0.00     0.162 HD
HETATM   10  O   UNL     1       6.036  25.157  56.265  1.00  0.00    -0.268 OA
BRANCH   8  11
HETATM   11  C   UNL     1       8.003  27.038  56.999  1.00  0.00     0.161 C 
BRANCH  11  12
HETATM   12  C   UNL     1       7.722  28.271  56.084  1.00  0.00     0.245 C 
BRANCH  12  13
HETATM   13  N   UNL     1       8.612  29.473  56.402  1.00  0.00    -0.061 N 
HETATM   14  H   UNL     1       8.099  30.289  56.035  1.00  0.00     0.280 HD
HETATM   15  C   UNL     1       9.971  29.602  55.743  1.00  0.00     0.236 C 
HETATM   16  C   UNL     1      10.965  29.476  56.879  1.00  0.00     0.029 C 
HETATM   17  C   UNL     1      10.252  30.177  58.017  1.00  0.00     0.029 C 
HETATM   18  C   UNL     1       8.832  29.666  57.892  1.00  0.00     0.236 C 
ENDBRANCH  12  13
BRANCH  12  19
HETATM   19  C   UNL     1       6.251  28.559  55.835  1.00  0.00     0.015 A 
HETATM   20  S   UNL     1       5.196  29.146  57.059  1.00  0.00    -0.104 SA
HETATM   21  C   UNL     1       3.851  29.166  56.016  1.00  0.00     0.050 A 
HETATM   22  C   UNL     1       4.172  28.710  54.760  1.00  0.00     0.008 A 
HETATM   23  C   UNL     1       5.549  28.359  54.655  1.00  0.00     0.017 A 
ENDBRANCH  12  19
ENDBRANCH  11  12
ENDBRANCH   8  11
ENDBRANCH   2   7
BRANCH   1  24
HETATM   24  S   UNL     1       7.878  25.232  52.896  1.00  0.00    -0.120 SA
BRANCH  24  25
HETATM   25  C   UNL     1       6.560  25.103  51.628  1.00  0.00     0.182 C 
BRANCH  25  26
HETATM   26  C   UNL     1       5.182  25.472  52.163  1.00  0.00     0.231 C 
HETATM   27  N   UNL     1       4.532  26.587  51.713  1.00  0.00    -0.327 N 
HETATM   28  H   UNL     1       3.816  26.887  52.368  1.00  0.00     0.169 HD
HETATM   29  O   UNL     1       4.685  24.892  53.133  1.00  0.00    -0.272 OA
BRANCH  27  30
HETATM   30  C   UNL     1       4.606  27.319  50.519  1.00  0.00     0.034 A 
HETATM   31  C   UNL     1       4.364  26.779  49.257  1.00  0.00     0.030 A 
HETATM   32  C   UNL     1       4.390  27.598  48.121  1.00  0.00     0.009 A 
HETATM   33  C   UNL     1       4.654  28.967  48.232  1.00  0.00    -0.062 A 
HETATM   34  C   UNL     1       4.634  29.858  47.025  1.00  0.00     0.048 C 
HETATM   35  C   UNL     1       4.861  29.513  49.502  1.00  0.00     0.009 A 
HETATM   36  C   UNL     1       4.826  28.697  50.635  1.00  0.00     0.030 A 
ENDBRANCH  27  30
ENDBRANCH  25  26
ENDBRANCH  24  25
ENDBRANCH   1  24
TORSDOF 9
ENDMDL
MODEL 6
REMARK VINA RESULT:      -9.1      0.962      3.108
REMARK  9 active torsions:
REMARK  status: ('A' for Active; 'I' for Inactive)
REMARK    1  A    between atoms: C_5  and  N_6 
REMARK       I    between atoms: N_6  and  C_7 
REMARK    2  A    between atoms: C_7  and  C_8 
REMARK    3  A    between atoms: C_8  and  S_9 
REMARK    4  A    between atoms: S_9  and  C_10 
REMARK    5  A    between atoms: C_11  and  C_12 
REMARK       I    between atoms: C_12  and  N_13 
REMARK    6  A    between atoms: N_13  and  C_14 
REMARK    7  A    between atoms: C_14  and  C_15 
REMARK    8  A    between atoms: C_15  and  N_16 
REMARK    9  A    between atoms: C_15  and  C_22 
ROOT
HETATM    1  C   UNL     1       5.485  26.133  54.556  1.00  0.00     0.016 A 
HETATM    2  C   UNL     1       6.333  27.027  53.852  1.00  0.00     0.048 A 
HETATM    3  C   UNL     1       6.588  26.838  52.480  1.00  0.00     0.018 A 
HETATM    4  C   UNL     1       6.061  25.742  51.804  1.00  0.00     0.001 A 
HETATM    5  C   UNL     1       5.276  24.829  52.493  1.00  0.00     0.001 A 
HETATM    6  C   UNL     1       4.991  25.024  53.850  1.00  0.00     0.019 A 
ENDROOT
BRANCH   2   7
HETATM    7  C   UNL     1       7.110  28.141  54.478  1.00  0.00     0.253 C 
HETATM    8  N   UNL     1       6.484  28.794  55.508  1.00  0.00    -0.354 N 
HETATM    9  H   UNL     1       5.497  28.599  55.659  1.00  0.00     0.162 HD
HETATM   10  O   UNL     1       8.291  28.352  54.215  1.00  0.00    -0.268 OA
BRANCH   8  11
HETATM   11  C   UNL     1       7.112  29.817  56.314  1.00  0.00     0.161 C 
BRANCH  11  12
HETATM   12  C   UNL     1       6.396  30.202  57.646  1.00  0.00     0.245 C 
BRANCH  12  13
HETATM   13  N   UNL     1       5.118  31.013  57.431  1.00  0.00    -0.061 N 
HETATM   14  H   UNL     1       4.996  31.554  58.301  1.00  0.00     0.280 HD
HETATM   15  C   UNL     1       3.787  30.301  57.285  1.00  0.00     0.236 C 
HETATM   16  C   UNL     1       3.352  30.586  55.862  1.00  0.00     0.029 C 
HETATM   17  C   UNL     1       3.840  32.003  55.648  1.00  0.00     0.029 C 
HETATM   18  C   UNL     1       5.223  31.982  56.267  1.00  0.00     0.236 C 
ENDBRANCH  12  13
BRANCH  12  19
HETATM   19  C   UNL     1       7.323  30.671  58.756  1.00  0.00     0.015 A 
HETATM   20  S   UNL     1       6.994  32.055  59.722  1.00  0.00    -0.104 SA
HETATM   21  C   UNL     1       8.430  31.880  60.620  1.00  0.00     0.050 A 
HETATM   22  C   UNL     1       9.174  30.809  60.188  1.00  0.00     0.008 A 
HETATM   23  C   UNL     1       8.542  30.114  59.117  1.00  0.00     0.017 A 
ENDBRANCH  12  19
ENDBRANCH  11  12
ENDBRANCH   8  11
ENDBRANCH   2   7
BRANCH   1  24
HETATM   24  S   UNL     1       5.065  26.421  56.291  1.00  0.00    -0.120 SA
BRANCH  24  25
HETATM   25  C   UNL     1       6.129  25.298  57.276  1.00  0.00     0.182 C 
BRANCH  25  26
HETATM   26  C   UNL     1       7.606  25.666  57.207  1.00  0.00     0.231 C 
HETATM   27  N   UNL     1       8.529  24.771  56.744  1.00  0.00    -0.327 N 
HETATM   28  H   UNL     1       9.465  25.010  57.059  1.00  0.00     0.169 HD
HETATM   29  O   UNL     1       8.042  26.700  57.720  1.00  0.00    -0.272 OA
BRANCH  27  30
HETATM   30  C   UNL     1       8.444  23.673  55.877  1.00  0.00     0.034 A 
HETATM   31  C   UNL     1       8.324  22.351  56.302  1.00  0.00     0.030 A 
HETATM   32  C   UNL     1       8.173  21.318  55.367  1.00  0.00     0.009 A 
HETATM   33  C   UNL     1       8.138  21.594  53.997  1.00  0.00    -0.062 A 
HETATM   34  C   UNL     1       7.927  20.498  52.994  1.00  0.00     0.048 C 
HETATM   35  C   UNL     1       8.222  22.923  53.574  1.00  0.00     0.009 A 
HETATM   36  C   UNL     1       8.363  23.953  54.507  1.00  0.00     0.030 A 
ENDBRANCH  27  30
ENDBRANCH  25  26
ENDBRANCH  24  25
ENDBRANCH   1  24
TORSDOF 9
ENDMDL
MODEL 7
REMARK VINA RESULT:      -9.0      2.796      4.885
REMARK  9 active torsions:
REMARK  status: ('A' for Active; 'I' for Inactive)
REMARK    1  A    between atoms: C_5  and  N_6 
REMARK       I    between atoms: N_6  and  C_7 
REMARK    2  A    between atoms: C_7  and  C_8 
REMARK    3  A    between atoms: C_8  and  S_9 
REMARK    4  A    between atoms: S_9  and  C_10 
REMARK    5  A    between atoms: C_11  and  C_12 
REMARK       I    between atoms: C_12  and  N_13 
REMARK    6  A    between atoms: N_13  and  C_14 
REMARK    7  A    between atoms: C_14  and  C_15 
REMARK    8  A    between atoms: C_15  and  N_16 
REMARK    9  A    between atoms: C_15  and  C_22 
ROOT
HETATM    1  C   UNL     1       5.818  28.209  56.071  1.00  0.00     0.016 A 
HETATM    2  C   UNL     1       6.440  29.226  56.840  1.00  0.00     0.048 A 
HETATM    3  C   UNL     1       7.707  29.012  57.418  1.00  0.00     0.018 A 
HETATM    4  C   UNL     1       8.345  27.782  57.293  1.00  0.00     0.001 A 
HETATM    5  C   UNL     1       7.723  26.759  56.591  1.00  0.00     0.001 A 
HETATM    6  C   UNL     1       6.478  26.972  55.987  1.00  0.00     0.019 A 
ENDROOT
BRANCH   2   7
HETATM    7  C   UNL     1       5.805  30.528  57.211  1.00  0.00     0.253 C 
HETATM    8  N   UNL     1       5.687  30.768  58.556  1.00  0.00    -0.354 N 
HETATM    9  H   UNL     1       5.875  29.994  59.190  1.00  0.00     0.162 HD
HETATM   10  O   UNL     1       5.561  31.404  56.385  1.00  0.00    -0.268 OA
BRANCH   8  11
HETATM   11  C   UNL     1       5.209  32.013  59.115  1.00  0.00     0.161 C 
BRANCH  11  12
HETATM   12  C   UNL     1       6.037  32.621  60.289  1.00  0.00     0.245 C 
BRANCH  12  13
HETATM   13  N   UNL     1       7.139  31.691  60.796  1.00  0.00    -0.061 N 
HETATM   14  H   UNL     1       6.928  30.773  60.375  1.00  0.00     0.280 HD
HETATM   15  C   UNL     1       7.237  31.371  62.275  1.00  0.00     0.236 C 
HETATM   16  C   UNL     1       8.547  31.990  62.718  1.00  0.00     0.029 C 
HETATM   17  C   UNL     1       9.436  31.772  61.511  1.00  0.00     0.029 C 
HETATM   18  C   UNL     1       8.526  32.122  60.352  1.00  0.00     0.236 C 
ENDBRANCH  12  13
BRANCH  12  19
HETATM   19  C   UNL     1       5.214  33.342  61.344  1.00  0.00     0.015 A 
HETATM   20  S   UNL     1       3.694  32.761  61.898  1.00  0.00    -0.104 SA
HETATM   21  C   UNL     1       3.480  34.071  62.963  1.00  0.00     0.050 A 
HETATM   22  C   UNL     1       4.523  34.962  62.893  1.00  0.00     0.008 A 
HETATM   23  C   UNL     1       5.520  34.546  61.962  1.00  0.00     0.017 A 
ENDBRANCH  12  19
ENDBRANCH  11  12
ENDBRANCH   8  11
ENDBRANCH   2   7
BRANCH   1  24
HETATM   24  S   UNL     1       4.241  28.505  55.238  1.00  0.00    -0.120 SA
BRANCH  24  25
HETATM   25  C   UNL     1       4.648  29.064  53.540  1.00  0.00     0.182 C 
BRANCH  25  26
HETATM   26  C   UNL     1       3.849  28.333  52.467  1.00  0.00     0.231 C 
HETATM   27  N   UNL     1       4.335  27.194  51.888  1.00  0.00    -0.327 N 
HETATM   28  H   UNL     1       3.886  27.013  50.995  1.00  0.00     0.169 HD
HETATM   29  O   UNL     1       2.838  28.827  51.961  1.00  0.00    -0.272 OA
BRANCH  27  30
HETATM   30  C   UNL     1       5.241  26.215  52.319  1.00  0.00     0.034 A 
HETATM   31  C   UNL     1       4.929  25.212  53.235  1.00  0.00     0.030 A 
HETATM   32  C   UNL     1       5.874  24.229  53.558  1.00  0.00     0.009 A 
HETATM   33  C   UNL     1       7.142  24.235  52.967  1.00  0.00    -0.062 A 
HETATM   34  C   UNL     1       8.140  23.158  53.272  1.00  0.00     0.048 C 
HETATM   35  C   UNL     1       7.440  25.221  52.022  1.00  0.00     0.009 A 
HETATM   36  C   UNL     1       6.494  26.194  51.694  1.00  0.00     0.030 A 
ENDBRANCH  27  30
ENDBRANCH  25  26
ENDBRANCH  24  25
ENDBRANCH   1  24
TORSDOF 9
ENDMDL
MODEL 8
REMARK VINA RESULT:      -8.9      2.899      6.274
REMARK  9 active torsions:
REMARK  status: ('A' for Active; 'I' for Inactive)
REMARK    1  A    between atoms: C_5  and  N_6 
REMARK       I    between atoms: N_6  and  C_7 
REMARK    2  A    between atoms: C_7  and  C_8 
REMARK    3  A    between atoms: C_8  and  S_9 
REMARK    4  A    between atoms: S_9  and  C_10 
REMARK    5  A    between atoms: C_11  and  C_12 
REMARK       I    between atoms: C_12  and  N_13 
REMARK    6  A    between atoms: N_13  and  C_14 
REMARK    7  A    between atoms: C_14  and  C_15 
REMARK    8  A    between atoms: C_15  and  N_16 
REMARK    9  A    between atoms: C_15  and  C_22 
ROOT
HETATM    1  C   UNL     1       7.658  24.208  53.880  1.00  0.00     0.016 A 
HETATM    2  C   UNL     1       7.583  23.775  55.229  1.00  0.00     0.048 A 
HETATM    3  C   UNL     1       7.880  22.441  55.568  1.00  0.00     0.018 A 
HETATM    4  C   UNL     1       8.196  21.511  54.583  1.00  0.00     0.001 A 
HETATM    5  C   UNL     1       8.218  21.907  53.254  1.00  0.00     0.001 A 
HETATM    6  C   UNL     1       7.955  23.238  52.908  1.00  0.00     0.019 A 
ENDROOT
BRANCH   2   7
HETATM    7  C   UNL     1       7.087  24.607  56.368  1.00  0.00     0.253 C 
HETATM    8  N   UNL     1       8.013  25.441  56.940  1.00  0.00    -0.354 N 
HETATM    9  H   UNL     1       8.987  25.316  56.673  1.00  0.00     0.162 HD
HETATM   10  O   UNL     1       5.898  24.676  56.667  1.00  0.00    -0.268 OA
BRANCH   8  11
HETATM   11  C   UNL     1       7.703  26.404  57.972  1.00  0.00     0.161 C 
BRANCH  11  12
HETATM   12  C   UNL     1       7.414  27.866  57.507  1.00  0.00     0.245 C 
BRANCH  12  13
HETATM   13  N   UNL     1       6.458  27.942  56.316  1.00  0.00    -0.061 N 
HETATM   14  H   UNL     1       6.704  27.135  55.724  1.00  0.00     0.280 HD
HETATM   15  C   UNL     1       6.545  29.109  55.352  1.00  0.00     0.236 C 
HETATM   16  C   UNL     1       5.238  29.855  55.530  1.00  0.00     0.029 C 
HETATM   17  C   UNL     1       4.251  28.732  55.772  1.00  0.00     0.029 C 
HETATM   18  C   UNL     1       5.000  27.821  56.722  1.00  0.00     0.236 C 
ENDBRANCH  12  13
BRANCH  12  19
HETATM   19  C   UNL     1       8.632  28.774  57.463  1.00  0.00     0.015 A 
HETATM   20  S   UNL     1       8.743  30.229  58.373  1.00  0.00    -0.104 SA
HETATM   21  C   UNL     1      10.291  30.595  57.766  1.00  0.00     0.050 A 
HETATM   22  C   UNL     1      10.722  29.653  56.864  1.00  0.00     0.008 A 
HETATM   23  C   UNL     1       9.770  28.607  56.687  1.00  0.00     0.017 A 
ENDBRANCH  12  19
ENDBRANCH  11  12
ENDBRANCH   8  11
ENDBRANCH   2   7
BRANCH   1  24
HETATM   24  S   UNL     1       7.382  25.940  53.441  1.00  0.00    -0.120 SA
BRANCH  24  25
HETATM   25  C   UNL     1       5.564  26.176  53.377  1.00  0.00     0.182 C 
BRANCH  25  26
HETATM   26  C   UNL     1       4.944  25.662  52.083  1.00  0.00     0.231 C 
HETATM   27  N   UNL     1       4.468  26.532  51.143  1.00  0.00    -0.327 N 
HETATM   28  H   UNL     1       3.805  26.077  50.521  1.00  0.00     0.169 HD
HETATM   29  O   UNL     1       4.690  24.466  51.915  1.00  0.00    -0.272 OA
BRANCH  27  30
HETATM   30  C   UNL     1       4.775  27.864  50.831  1.00  0.00     0.034 A 
HETATM   31  C   UNL     1       4.694  28.916  51.741  1.00  0.00     0.030 A 
HETATM   32  C   UNL     1       5.087  30.208  51.365  1.00  0.00     0.009 A 
HETATM   33  C   UNL     1       5.569  30.462  50.077  1.00  0.00    -0.062 A 
HETATM   34  C   UNL     1       6.038  31.833  49.685  1.00  0.00     0.048 C 
HETATM   35  C   UNL     1       5.682  29.399  49.177  1.00  0.00     0.009 A 
HETATM   36  C   UNL     1       5.299  28.110  49.556  1.00  0.00     0.030 A 
ENDBRANCH  27  30
ENDBRANCH  25  26
ENDBRANCH  24  25
ENDBRANCH   1  24
TORSDOF 9
ENDMDL
MODEL 9
REMARK VINA RESULT:      -8.9      3.169      5.207
REMARK  9 active torsions:
REMARK  status: ('A' for Active; 'I' for Inactive)
REMARK    1  A    between atoms: C_5  and  N_6 
REMARK       I    between atoms: N_6  and  C_7 
REMARK    2  A    between atoms: C_7  and  C_8 
REMARK    3  A    between atoms: C_8  and  S_9 
REMARK    4  A    between atoms: S_9  and  C_10 
REMARK    5  A    between atoms: C_11  and  C_12 
REMARK       I    between atoms: C_12  and  N_13 
REMARK    6  A    between atoms: N_13  and  C_14 
REMARK    7  A    between atoms: C_14  and  C_15 
REMARK    8  A    between atoms: C_15  and  N_16 
REMARK    9  A    between atoms: C_15  and  C_22 
ROOT
HETATM    1  C   UNL     1       8.558  29.375  57.679  1.00  0.00     0.016 A 
HETATM    2  C   UNL     1       8.747  30.504  58.516  1.00  0.00     0.048 A 
HETATM    3  C   UNL     1       9.930  31.264  58.436  1.00  0.00     0.018 A 
HETATM    4  C   UNL     1      10.957  30.889  57.576  1.00  0.00     0.001 A 
HETATM    5  C   UNL     1      10.809  29.754  56.791  1.00  0.00     0.001 A 
HETATM    6  C   UNL     1       9.625  29.009  56.841  1.00  0.00     0.019 A 
ENDROOT
BRANCH   2   7
HETATM    7  C   UNL     1       7.816  30.924  59.610  1.00  0.00     0.253 C 
HETATM    8  N   UNL     1       6.671  31.557  59.202  1.00  0.00    -0.354 N 
HETATM    9  H   UNL     1       6.614  31.845  58.227  1.00  0.00     0.162 HD
HETATM   10  O   UNL     1       7.971  30.578  60.778  1.00  0.00    -0.268 OA
BRANCH   8  11
HETATM   11  C   UNL     1       5.597  31.935  60.093  1.00  0.00     0.161 C 
BRANCH  11  12
HETATM   12  C   UNL     1       5.916  33.034  61.154  1.00  0.00     0.245 C 
BRANCH  12  13
HETATM   13  N   UNL     1       6.313  32.462  62.514  1.00  0.00    -0.061 N 
HETATM   14  H   UNL     1       6.442  31.451  62.352  1.00  0.00     0.280 HD
HETATM   15  C   UNL     1       5.328  32.497  63.666  1.00  0.00     0.236 C 
HETATM   16  C   UNL     1       5.953  33.434  64.680  1.00  0.00     0.029 C 
HETATM   17  C   UNL     1       7.430  33.129  64.540  1.00  0.00     0.029 C 
HETATM   18  C   UNL     1       7.616  33.039  63.039  1.00  0.00     0.236 C 
ENDBRANCH  12  13
BRANCH  12  19
HETATM   19  C   UNL     1       4.952  34.210  61.163  1.00  0.00     0.015 A 
HETATM   20  S   UNL     1       3.394  34.144  60.440  1.00  0.00    -0.104 SA
HETATM   21  C   UNL     1       3.034  35.754  60.859  1.00  0.00     0.050 A 
HETATM   22  C   UNL     1       4.080  36.358  61.515  1.00  0.00     0.008 A 
HETATM   23  C   UNL     1       5.183  35.473  61.689  1.00  0.00     0.017 A 
ENDBRANCH  12  19
ENDBRANCH  11  12
ENDBRANCH   8  11
ENDBRANCH   2   7
BRANCH   1  24
HETATM   24  S   UNL     1       7.004  28.452  57.697  1.00  0.00    -0.120 SA
BRANCH  24  25
HETATM   25  C   UNL     1       7.171  27.129  56.438  1.00  0.00     0.182 C 
BRANCH  25  26
HETATM   26  C   UNL     1       5.859  26.815  55.728  1.00  0.00     0.231 C 
HETATM   27  N   UNL     1       5.799  25.845  54.767  1.00  0.00    -0.327 N 
HETATM   28  H   UNL     1       4.990  25.971  54.166  1.00  0.00     0.169 HD
HETATM   29  O   UNL     1       4.861  27.529  55.862  1.00  0.00    -0.272 OA
BRANCH  27  30
HETATM   30  C   UNL     1       6.568  24.701  54.515  1.00  0.00     0.034 A 
HETATM   31  C   UNL     1       6.899  23.755  55.483  1.00  0.00     0.030 A 
HETATM   32  C   UNL     1       7.613  22.602  55.131  1.00  0.00     0.009 A 
HETATM   33  C   UNL     1       8.001  22.379  53.806  1.00  0.00    -0.062 A 
HETATM   34  C   UNL     1       8.723  21.122  53.415  1.00  0.00     0.048 C 
HETATM   35  C   UNL     1       7.638  23.311  52.831  1.00  0.00     0.009 A 
HETATM   36  C   UNL     1       6.919  24.455  53.181  1.00  0.00     0.030 A 
ENDBRANCH  27  30
ENDBRANCH  25  26
ENDBRANCH  24  25
ENDBRANCH   1  24
TORSDOF 9
ENDMDL
MODEL 10
REMARK VINA RESULT:      -8.9      2.189      3.412
REMARK  9 active torsions:
REMARK  status: ('A' for Active; 'I' for Inactive)
REMARK    1  A    between atoms: C_5  and  N_6 
REMARK       I    between atoms: N_6  and  C_7 
REMARK    2  A    between atoms: C_7  and  C_8 
REMARK    3  A    between atoms: C_8  and  S_9 
REMARK    4  A    between atoms: S_9  and  C_10 
REMARK    5  A    between atoms: C_11  and  C_12 
REMARK       I    between atoms: C_12  and  N_13 
REMARK    6  A    between atoms: N_13  and  C_14 
REMARK    7  A    between atoms: C_14  and  C_15 
REMARK    8  A    between atoms: C_15  and  N_16 
REMARK    9  A    between atoms: C_15  and  C_22 
ROOT
HETATM    1  C   UNL     1       4.503  28.011  55.105  1.00  0.00     0.016 A 
HETATM    2  C   UNL     1       4.325  29.368  55.477  1.00  0.00     0.048 A 
HETATM    3  C   UNL     1       3.848  30.309  54.543  1.00  0.00     0.018 A 
HETATM    4  C   UNL     1       3.597  29.937  53.226  1.00  0.00     0.001 A 
HETATM    5  C   UNL     1       3.821  28.626  52.833  1.00  0.00     0.001 A 
HETATM    6  C   UNL     1       4.266  27.676  53.761  1.00  0.00     0.019 A 
ENDROOT
BRANCH   2   7
HETATM    7  C   UNL     1       4.718  29.953  56.796  1.00  0.00     0.253 C 
HETATM    8  N   UNL     1       5.990  30.461  56.863  1.00  0.00    -0.354 N 
HETATM    9  H   UNL     1       6.619  30.257  56.090  1.00  0.00     0.162 HD
HETATM   10  O   UNL     1       3.913  30.129  57.707  1.00  0.00    -0.268 OA
BRANCH   8  11
HETATM   11  C   UNL     1       6.516  31.169  58.009  1.00  0.00     0.161 C 
BRANCH  11  12
HETATM   12  C   UNL     1       7.566  30.414  58.881  1.00  0.00     0.245 C 
BRANCH  12  13
HETATM   13  N   UNL     1       7.576  30.869  60.341  1.00  0.00    -0.061 N 
HETATM   14  H   UNL     1       6.809  30.345  60.789  1.00  0.00     0.280 HD
HETATM   15  C   UNL     1       7.252  32.309  60.687  1.00  0.00     0.236 C 
HETATM   16  C   UNL     1       8.540  32.871  61.251  1.00  0.00     0.029 C 
HETATM   17  C   UNL     1       9.109  31.687  62.007  1.00  0.00     0.029 C 
HETATM   18  C   UNL     1       8.875  30.533  61.054  1.00  0.00     0.236 C 
ENDBRANCH  12  13
BRANCH  12  19
HETATM   19  C   UNL     1       8.921  30.215  58.220  1.00  0.00     0.015 A 
HETATM   20  S   UNL     1      10.175  31.388  58.293  1.00  0.00    -0.104 SA
HETATM   21  C   UNL     1      11.235  30.444  57.353  1.00  0.00     0.050 A 
HETATM   22  C   UNL     1      10.653  29.264  56.958  1.00  0.00     0.008 A 
HETATM   23  C   UNL     1       9.323  29.131  57.453  1.00  0.00     0.017 A 
ENDBRANCH  12  19
ENDBRANCH  11  12
ENDBRANCH   8  11
ENDBRANCH   2   7
BRANCH   1  24
HETATM   24  S   UNL     1       5.015  26.772  56.318  1.00  0.00    -0.120 SA
BRANCH  24  25
HETATM   25  C   UNL     1       6.745  26.325  55.905  1.00  0.00     0.182 C 
BRANCH  25  26
HETATM   26  C   UNL     1       7.447  25.568  57.026  1.00  0.00     0.231 C 
HETATM   27  N   UNL     1       7.638  24.217  56.944  1.00  0.00    -0.327 N 
HETATM   28  H   UNL     1       7.798  23.811  57.861  1.00  0.00     0.169 HD
HETATM   29  O   UNL     1       7.706  26.102  58.107  1.00  0.00    -0.272 OA
BRANCH  27  30
HETATM   30  C   UNL     1       7.735  23.329  55.863  1.00  0.00     0.034 A 
HETATM   31  C   UNL     1       7.817  23.729  54.531  1.00  0.00     0.030 A 
HETATM   32  C   UNL     1       7.983  22.778  53.516  1.00  0.00     0.009 A 
HETATM   33  C   UNL     1       8.073  21.416  53.821  1.00  0.00    -0.062 A 
HETATM   34  C   UNL     1       8.301  20.397  52.742  1.00  0.00     0.048 C 
HETATM   35  C   UNL     1       8.027  21.020  55.160  1.00  0.00     0.009 A 
HETATM   36  C   UNL     1       7.870  21.970  56.171  1.00  0.00     0.030 A 
ENDBRANCH  27  30
ENDBRANCH  25  26
ENDBRANCH  24  25
ENDBRANCH   1  24
TORSDOF 9
ENDMDL
