MODEL 1
REMARK VINA RESULT:     -10.3      0.000      0.000
REMARK  5 active torsions:
REMARK  status: ('A' for Active; 'I' for Inactive)
REMARK    1  A    between atoms: C_2  and  N_3 
REMARK    2  A    between atoms: C_7  and  N_8 
REMARK       I    between atoms: N_8  and  C_9 
REMARK    3  A    between atoms: C_9  and  C_10 
REMARK    4  A    between atoms: C_10  and  C_11 
REMARK    5  A    between atoms: C_11  and  C_12 
ROOT
HETATM    1  C   UNL     1       6.847  32.621  61.464  1.00  0.00    -0.028 A 
HETATM    2  C   UNL     1       5.739  32.612  60.679  1.00  0.00     0.015 A 
HETATM    3  C   UNL     1       5.685  32.382  59.192  1.00  0.00     0.069 C 
HETATM    4  N   UNL     1       4.500  32.855  61.236  1.00  0.00    -0.326 N 
HETATM    5  C   UNL     1       4.252  33.123  62.552  1.00  0.00     0.266 A 
HETATM    6  O   UNL     1       3.114  33.325  62.959  1.00  0.00    -0.267 OA
HETATM    7  C   UNL     1       5.438  33.152  63.433  1.00  0.00     0.105 A 
HETATM    8  C   UNL     1       5.194  33.439  64.906  1.00  0.00     0.026 C 
HETATM    9  N   UNL     1       4.992  33.676  66.127  1.00  0.00    -0.096 N 
HETATM   10  C   UNL     1       6.670  32.916  62.924  1.00  0.00    -0.029 A 
HETATM   11  C   UNL     1       7.901  32.953  63.807  1.00  0.00     0.050 C 
HETATM   12  H   UNL     1       3.671  32.854  60.653  1.00  0.00     0.169 HD
ENDROOT
BRANCH   1  13
HETATM   13  C   UNL     1       8.295  32.369  61.021  1.00  0.00     0.050 C 
BRANCH  13  14
HETATM   14  C   UNL     1       8.871  30.954  60.936  1.00  0.00     0.108 C 
BRANCH  14  15
HETATM   15  C   UNL     1       8.885  30.440  59.504  1.00  0.00     0.222 C 
HETATM   16  N   UNL     1       7.840  29.578  59.223  1.00  0.00    -0.327 N 
HETATM   17  H   UNL     1       7.227  29.330  59.989  1.00  0.00     0.169 HD
HETATM   18  O   UNL     1       9.771  30.793  58.732  1.00  0.00    -0.273 OA
BRANCH  16  19
HETATM   19  C   UNL     1       7.532  28.980  57.981  1.00  0.00     0.035 A 
HETATM   20  C   UNL     1       7.748  27.629  57.694  1.00  0.00     0.044 A 
HETATM   21  C   UNL     1       7.445  27.115  56.409  1.00  0.00     0.005 A 
HETATM   22  C   UNL     1       6.914  27.973  55.445  1.00  0.00     0.046 A 
HETATM   23  C   UNL     1       7.576  25.821  55.814  1.00  0.00     0.003 A 
HETATM   24  N   UNL     1       6.713  27.221  54.303  1.00  0.00    -0.346 N 
HETATM   25  C   UNL     1       6.676  29.327  55.718  1.00  0.00     0.033 A 
HETATM   26  C   UNL     1       7.116  25.912  54.499  1.00  0.00     0.046 A 
HETATM   27  C   UNL     1       7.112  24.802  53.636  1.00  0.00     0.030 A 
HETATM   28  C   UNL     1       7.596  23.584  54.123  1.00  0.00     0.002 A 
HETATM   29  C   UNL     1       8.063  23.472  55.428  1.00  0.00     0.001 A 
HETATM   30  C   UNL     1       8.057  24.580  56.281  1.00  0.00     0.014 A 
HETATM   31  C   UNL     1       7.004  29.813  56.990  1.00  0.00     0.032 A 
BRANCH  24  32
HETATM   32  C   UNL     1       6.167  27.734  53.056  1.00  0.00     0.125 C 
HETATM   33  C   UNL     1       4.654  27.616  53.000  1.00  0.00     0.027 C 
ENDBRANCH  24  32
ENDBRANCH  16  19
ENDBRANCH  14  15
ENDBRANCH  13  14
ENDBRANCH   1  13
TORSDOF 5
ENDMDL
MODEL 2
REMARK VINA RESULT:     -10.3      2.976      9.841
REMARK  5 active torsions:
REMARK  status: ('A' for Active; 'I' for Inactive)
REMARK    1  A    between atoms: C_2  and  N_3 
REMARK    2  A    between atoms: C_7  and  N_8 
REMARK       I    between atoms: N_8  and  C_9 
REMARK    3  A    between atoms: C_9  and  C_10 
REMARK    4  A    between atoms: C_10  and  C_11 
REMARK    5  A    between atoms: C_11  and  C_12 
ROOT
HETATM    1  C   UNL     1       7.357  24.864  55.003  1.00  0.00    -0.028 A 
HETATM    2  C   UNL     1       7.622  24.678  56.323  1.00  0.00     0.015 A 
HETATM    3  C   UNL     1       7.476  25.692  57.427  1.00  0.00     0.069 C 
HETATM    4  N   UNL     1       8.101  23.462  56.763  1.00  0.00    -0.326 N 
HETATM    5  C   UNL     1       8.356  22.370  55.982  1.00  0.00     0.266 A 
HETATM    6  O   UNL     1       8.779  21.326  56.463  1.00  0.00    -0.267 OA
HETATM    7  C   UNL     1       8.090  22.542  54.539  1.00  0.00     0.105 A 
HETATM    8  C   UNL     1       8.356  21.342  53.643  1.00  0.00     0.026 C 
HETATM    9  N   UNL     1       8.576  20.348  52.901  1.00  0.00    -0.096 N 
HETATM   10  C   UNL     1       7.618  23.720  54.069  1.00  0.00    -0.029 A 
HETATM   11  C   UNL     1       7.350  23.921  52.590  1.00  0.00     0.050 C 
HETATM   12  H   UNL     1       8.304  23.320  57.746  1.00  0.00     0.169 HD
ENDROOT
BRANCH   1  13
HETATM   13  C   UNL     1       6.820  26.139  54.340  1.00  0.00     0.050 C 
BRANCH  13  14
HETATM   14  C   UNL     1       7.762  27.208  53.781  1.00  0.00     0.108 C 
BRANCH  14  15
HETATM   15  C   UNL     1       7.915  28.377  54.742  1.00  0.00     0.222 C 
HETATM   16  N   UNL     1       6.775  28.629  55.482  1.00  0.00    -0.327 N 
HETATM   17  H   UNL     1       5.956  28.073  55.272  1.00  0.00     0.169 HD
HETATM   18  O   UNL     1       8.975  28.994  54.796  1.00  0.00    -0.273 OA
BRANCH  16  19
HETATM   19  C   UNL     1       6.607  29.596  56.498  1.00  0.00     0.035 A 
HETATM   20  C   UNL     1       7.461  29.724  57.598  1.00  0.00     0.044 A 
HETATM   21  C   UNL     1       7.201  30.697  58.593  1.00  0.00     0.005 A 
HETATM   22  C   UNL     1       6.094  31.533  58.450  1.00  0.00     0.046 A 
HETATM   23  C   UNL     1       7.853  31.047  59.818  1.00  0.00     0.003 A 
HETATM   24  N   UNL     1       6.080  32.377  59.545  1.00  0.00    -0.346 N 
HETATM   25  C   UNL     1       5.233  31.431  57.348  1.00  0.00     0.033 A 
HETATM   26  C   UNL     1       7.134  32.095  60.396  1.00  0.00     0.046 A 
HETATM   27  C   UNL     1       7.519  32.673  61.618  1.00  0.00     0.030 A 
HETATM   28  C   UNL     1       8.649  32.164  62.264  1.00  0.00     0.002 A 
HETATM   29  C   UNL     1       9.378  31.117  61.709  1.00  0.00     0.001 A 
HETATM   30  C   UNL     1       8.992  30.553  60.489  1.00  0.00     0.014 A 
HETATM   31  C   UNL     1       5.502  30.447  56.389  1.00  0.00     0.032 A 
BRANCH  24  32
HETATM   32  C   UNL     1       5.086  33.411  59.785  1.00  0.00     0.125 C 
HETATM   33  C   UNL     1       3.832  32.862  60.441  1.00  0.00     0.027 C 
ENDBRANCH  24  32
ENDBRANCH  16  19
ENDBRANCH  14  15
ENDBRANCH  13  14
ENDBRANCH   1  13
TORSDOF 5
ENDMDL
MODEL 3
REMARK VINA RESULT:     -10.2      1.581      2.126
REMARK  5 active torsions:
REMARK  status: ('A' for Active; 'I' for Inactive)
REMARK    1  A    between atoms: C_2  and  N_3 
REMARK    2  A    between atoms: C_7  and  N_8 
REMARK       I    between atoms: N_8  and  C_9 
REMARK    3  A    between atoms: C_9  and  C_10 
REMARK    4  A    between atoms: C_10  and  C_11 
REMARK    5  A    between atoms: C_11  and  C_12 
ROOT
HETATM    1  C   UNL     1       7.296  31.598  60.096  1.00  0.00    -0.028 A 
HETATM    2  C   UNL     1       6.294  31.993  59.269  1.00  0.00     0.015 A 
HETATM    3  C   UNL     1       6.028  31.503  57.870  1.00  0.00     0.069 C 
HETATM    4  N   UNL     1       5.402  32.960  59.684  1.00  0.00    -0.326 N 
HETATM    5  C   UNL     1       5.417  33.600  60.891  1.00  0.00     0.266 A 
HETATM    6  O   UNL     1       4.579  34.448  61.174  1.00  0.00    -0.267 OA
HETATM    7  C   UNL     1       6.503  33.202  61.811  1.00  0.00     0.105 A 
HETATM    8  C   UNL     1       6.543  33.890  63.166  1.00  0.00     0.026 C 
HETATM    9  N   UNL     1       6.576  34.460  64.290  1.00  0.00    -0.096 N 
HETATM   10  C   UNL     1       7.396  32.255  61.440  1.00  0.00    -0.029 A 
HETATM   11  C   UNL     1       8.524  31.841  62.364  1.00  0.00     0.050 C 
HETATM   12  H   UNL     1       4.655  33.262  59.068  1.00  0.00     0.169 HD
ENDROOT
BRANCH   1  13
HETATM   13  C   UNL     1       8.369  30.540  59.806  1.00  0.00     0.050 C 
BRANCH  13  14
HETATM   14  C   UNL     1       9.476  30.784  58.779  1.00  0.00     0.108 C 
BRANCH  14  15
HETATM   15  C   UNL     1       9.506  29.694  57.718  1.00  0.00     0.222 C 
HETATM   16  N   UNL     1       8.341  28.950  57.666  1.00  0.00    -0.327 N 
HETATM   17  H   UNL     1       7.632  29.153  58.359  1.00  0.00     0.169 HD
HETATM   18  O   UNL     1      10.503  29.544  57.017  1.00  0.00    -0.273 OA
BRANCH  16  19
HETATM   19  C   UNL     1       8.024  27.914  56.759  1.00  0.00     0.035 A 
HETATM   20  C   UNL     1       8.193  26.555  57.041  1.00  0.00     0.044 A 
HETATM   21  C   UNL     1       7.885  25.579  56.062  1.00  0.00     0.005 A 
HETATM   22  C   UNL     1       7.396  25.995  54.823  1.00  0.00     0.046 A 
HETATM   23  C   UNL     1       7.975  24.152  56.037  1.00  0.00     0.003 A 
HETATM   24  N   UNL     1       7.180  24.854  54.072  1.00  0.00    -0.346 N 
HETATM   25  C   UNL     1       7.205  27.352  54.525  1.00  0.00     0.033 A 
HETATM   26  C   UNL     1       7.532  23.722  54.784  1.00  0.00     0.046 A 
HETATM   27  C   UNL     1       7.497  22.361  54.437  1.00  0.00     0.030 A 
HETATM   28  C   UNL     1       7.930  21.426  55.382  1.00  0.00     0.002 A 
HETATM   29  C   UNL     1       8.379  21.831  56.634  1.00  0.00     0.001 A 
HETATM   30  C   UNL     1       8.404  23.188  56.973  1.00  0.00     0.014 A 
HETATM   31  C   UNL     1       7.537  28.295  55.505  1.00  0.00     0.032 A 
BRANCH  24  32
HETATM   32  C   UNL     1       6.666  24.841  52.711  1.00  0.00     0.125 C 
HETATM   33  C   UNL     1       5.149  24.782  52.670  1.00  0.00     0.027 C 
ENDBRANCH  24  32
ENDBRANCH  16  19
ENDBRANCH  14  15
ENDBRANCH  13  14
ENDBRANCH   1  13
TORSDOF 5
ENDMDL
MODEL 4
REMARK VINA RESULT:     -10.1      7.683     11.666
REMARK  5 active torsions:
REMARK  status: ('A' for Active; 'I' for Inactive)
REMARK    1  A    between atoms: C_2  and  N_3 
REMARK    2  A    between atoms: C_7  and  N_8 
REMARK       I    between atoms: N_8  and  C_9 
REMARK    3  A    between atoms: C_9  and  C_10 
REMARK    4  A    between atoms: C_10  and  C_11 
REMARK    5  A    between atoms: C_11  and  C_12 
ROOT
HETATM    1  C   UNL     1       3.394  27.368  47.602  1.00  0.00    -0.028 A 
HETATM    2  C   UNL     1       2.578  26.294  47.443  1.00  0.00     0.015 A 
HETATM    3  C   UNL     1       2.911  24.853  47.730  1.00  0.00     0.069 C 
HETATM    4  N   UNL     1       1.302  26.468  46.948  1.00  0.00    -0.326 N 
HETATM    5  C   UNL     1       0.742  27.657  46.576  1.00  0.00     0.266 A 
HETATM    6  O   UNL     1      -0.405  27.716  46.147  1.00  0.00    -0.267 OA
HETATM    7  C   UNL     1       1.607  28.845  46.725  1.00  0.00     0.105 A 
HETATM    8  C   UNL     1       1.010  30.186  46.327  1.00  0.00     0.026 C 
HETATM    9  N   UNL     1       0.514  31.297  45.999  1.00  0.00    -0.096 N 
HETATM   10  C   UNL     1       2.865  28.715  47.209  1.00  0.00    -0.029 A 
HETATM   11  C   UNL     1       3.773  29.919  47.358  1.00  0.00     0.050 C 
HETATM   12  H   UNL     1       0.691  25.669  46.823  1.00  0.00     0.169 HD
ENDROOT
BRANCH   1  13
HETATM   13  C   UNL     1       4.832  27.364  48.138  1.00  0.00     0.050 C 
BRANCH  13  14
HETATM   14  C   UNL     1       5.162  27.862  49.547  1.00  0.00     0.108 C 
BRANCH  14  15
HETATM   15  C   UNL     1       5.356  26.707  50.518  1.00  0.00     0.222 C 
HETATM   16  N   UNL     1       6.379  26.921  51.424  1.00  0.00    -0.327 N 
HETATM   17  H   UNL     1       6.923  27.767  51.314  1.00  0.00     0.169 HD
HETATM   18  O   UNL     1       4.642  25.712  50.442  1.00  0.00    -0.273 OA
BRANCH  16  19
HETATM   19  C   UNL     1       6.772  26.081  52.489  1.00  0.00     0.035 A 
HETATM   20  C   UNL     1       7.157  24.746  52.326  1.00  0.00     0.044 A 
HETATM   21  C   UNL     1       7.502  23.960  53.451  1.00  0.00     0.005 A 
HETATM   22  C   UNL     1       7.469  24.542  54.719  1.00  0.00     0.046 A 
HETATM   23  C   UNL     1       7.897  22.594  53.611  1.00  0.00     0.003 A 
HETATM   24  N   UNL     1       7.848  23.565  55.621  1.00  0.00    -0.346 N 
HETATM   25  C   UNL     1       7.101  25.882  54.904  1.00  0.00     0.033 A 
HETATM   26  C   UNL     1       8.106  22.370  54.973  1.00  0.00     0.046 A 
HETATM   27  C   UNL     1       8.506  21.117  55.466  1.00  0.00     0.030 A 
HETATM   28  C   UNL     1       8.686  20.073  54.553  1.00  0.00     0.002 A 
HETATM   29  C   UNL     1       8.480  20.273  53.192  1.00  0.00     0.001 A 
HETATM   30  C   UNL     1       8.089  21.526  52.710  1.00  0.00     0.014 A 
HETATM   31  C   UNL     1       6.745  26.630  53.775  1.00  0.00     0.032 A 
BRANCH  24  32
HETATM   32  C   UNL     1       7.950  23.758  57.059  1.00  0.00     0.125 C 
HETATM   33  C   UNL     1       9.149  24.608  57.442  1.00  0.00     0.027 C 
ENDBRANCH  24  32
ENDBRANCH  16  19
ENDBRANCH  14  15
ENDBRANCH  13  14
ENDBRANCH   1  13
TORSDOF 5
ENDMDL
MODEL 5
REMARK VINA RESULT:      -9.7      2.990     10.189
REMARK  5 active torsions:
REMARK  status: ('A' for Active; 'I' for Inactive)
REMARK    1  A    between atoms: C_2  and  N_3 
REMARK    2  A    between atoms: C_7  and  N_8 
REMARK       I    between atoms: N_8  and  C_9 
REMARK    3  A    between atoms: C_9  and  C_10 
REMARK    4  A    between atoms: C_10  and  C_11 
REMARK    5  A    between atoms: C_11  and  C_12 
ROOT
HETATM    1  C   UNL     1       7.449  24.720  55.118  1.00  0.00    -0.028 A 
HETATM    2  C   UNL     1       7.910  24.477  56.373  1.00  0.00     0.015 A 
HETATM    3  C   UNL     1       7.933  25.439  57.531  1.00  0.00     0.069 C 
HETATM    4  N   UNL     1       8.449  23.245  56.680  1.00  0.00    -0.326 N 
HETATM    5  C   UNL     1       8.582  22.191  55.821  1.00  0.00     0.266 A 
HETATM    6  O   UNL     1       9.073  21.129  56.184  1.00  0.00    -0.267 OA
HETATM    7  C   UNL     1       8.101  22.426  54.444  1.00  0.00     0.105 A 
HETATM    8  C   UNL     1       8.228  21.270  53.464  1.00  0.00     0.026 C 
HETATM    9  N   UNL     1       8.332  20.311  52.653  1.00  0.00    -0.096 N 
HETATM   10  C   UNL     1       7.564  23.621  54.104  1.00  0.00    -0.029 A 
HETATM   11  C   UNL     1       7.076  23.887  52.694  1.00  0.00     0.050 C 
HETATM   12  H   UNL     1       8.799  23.060  57.614  1.00  0.00     0.169 HD
ENDROOT
BRANCH   1  13
HETATM   13  C   UNL     1       6.818  26.021  54.603  1.00  0.00     0.050 C 
BRANCH  13  14
HETATM   14  C   UNL     1       7.662  27.111  53.939  1.00  0.00     0.108 C 
BRANCH  14  15
HETATM   15  C   UNL     1       7.990  28.235  54.911  1.00  0.00     0.222 C 
HETATM   16  N   UNL     1       7.096  28.325  55.963  1.00  0.00    -0.327 N 
HETATM   17  H   UNL     1       6.301  27.699  55.948  1.00  0.00     0.169 HD
HETATM   18  O   UNL     1       8.964  28.954  54.714  1.00  0.00    -0.273 OA
BRANCH  16  19
HETATM   19  C   UNL     1       7.150  29.211  57.061  1.00  0.00     0.035 A 
HETATM   20  C   UNL     1       6.134  30.116  57.382  1.00  0.00     0.044 A 
HETATM   21  C   UNL     1       6.283  30.997  58.481  1.00  0.00     0.005 A 
HETATM   22  C   UNL     1       7.449  30.935  59.244  1.00  0.00     0.046 A 
HETATM   23  C   UNL     1       5.458  32.028  59.031  1.00  0.00     0.003 A 
HETATM   24  N   UNL     1       7.331  31.889  60.239  1.00  0.00    -0.346 N 
HETATM   25  C   UNL     1       8.474  30.026  58.949  1.00  0.00     0.033 A 
HETATM   26  C   UNL     1       6.133  32.572  60.125  1.00  0.00     0.046 A 
HETATM   27  C   UNL     1       5.586  33.617  60.890  1.00  0.00     0.030 A 
HETATM   28  C   UNL     1       4.334  34.119  60.524  1.00  0.00     0.002 A 
HETATM   29  C   UNL     1       3.645  33.595  59.436  1.00  0.00     0.001 A 
HETATM   30  C   UNL     1       4.194  32.551  58.684  1.00  0.00     0.014 A 
HETATM   31  C   UNL     1       8.308  29.180  57.845  1.00  0.00     0.032 A 
BRANCH  24  32
HETATM   32  C   UNL     1       8.333  32.153  61.259  1.00  0.00     0.125 C 
HETATM   33  C   UNL     1       8.060  31.389  62.543  1.00  0.00     0.027 C 
ENDBRANCH  24  32
ENDBRANCH  16  19
ENDBRANCH  14  15
ENDBRANCH  13  14
ENDBRANCH   1  13
TORSDOF 5
ENDMDL
MODEL 6
REMARK VINA RESULT:      -9.4      6.461     11.954
REMARK  5 active torsions:
REMARK  status: ('A' for Active; 'I' for Inactive)
REMARK    1  A    between atoms: C_2  and  N_3 
REMARK    2  A    between atoms: C_7  and  N_8 
REMARK       I    between atoms: N_8  and  C_9 
REMARK    3  A    between atoms: C_9  and  C_10 
REMARK    4  A    between atoms: C_10  and  C_11 
REMARK    5  A    between atoms: C_11  and  C_12 
ROOT
HETATM    1  C   UNL     1       1.447  28.636  47.645  1.00  0.00    -0.028 A 
HETATM    2  C   UNL     1       1.725  27.401  47.150  1.00  0.00     0.015 A 
HETATM    3  C   UNL     1       2.875  26.509  47.537  1.00  0.00     0.069 C 
HETATM    4  N   UNL     1       0.921  26.857  46.170  1.00  0.00    -0.326 N 
HETATM    5  C   UNL     1      -0.173  27.451  45.609  1.00  0.00     0.266 A 
HETATM    6  O   UNL     1      -0.831  26.889  44.742  1.00  0.00    -0.267 OA
HETATM    7  C   UNL     1      -0.497  28.801  46.116  1.00  0.00     0.105 A 
HETATM    8  C   UNL     1      -1.716  29.487  45.518  1.00  0.00     0.026 C 
HETATM    9  N   UNL     1      -2.726  30.055  45.023  1.00  0.00    -0.096 N 
HETATM   10  C   UNL     1       0.266  29.368  47.080  1.00  0.00    -0.029 A 
HETATM   11  C   UNL     1      -0.041  30.756  47.605  1.00  0.00     0.050 C 
HETATM   12  H   UNL     1       1.127  25.938  45.794  1.00  0.00     0.169 HD
ENDROOT
BRANCH   1  13
HETATM   13  C   UNL     1       2.223  29.391  48.732  1.00  0.00     0.050 C 
BRANCH  13  14
HETATM   14  C   UNL     1       1.978  29.128  50.219  1.00  0.00     0.108 C 
BRANCH  14  15
HETATM   15  C   UNL     1       3.250  28.688  50.928  1.00  0.00     0.222 C 
HETATM   16  N   UNL     1       3.032  28.257  52.224  1.00  0.00    -0.327 N 
HETATM   17  H   UNL     1       2.089  28.337  52.585  1.00  0.00     0.169 HD
HETATM   18  O   UNL     1       4.329  28.742  50.346  1.00  0.00    -0.273 OA
BRANCH  16  19
HETATM   19  C   UNL     1       3.983  27.728  53.124  1.00  0.00     0.035 A 
HETATM   20  C   UNL     1       4.760  26.596  52.858  1.00  0.00     0.044 A 
HETATM   21  C   UNL     1       5.666  26.107  53.831  1.00  0.00     0.005 A 
HETATM   22  C   UNL     1       5.783  26.782  55.046  1.00  0.00     0.046 A 
HETATM   23  C   UNL     1       6.554  24.987  53.870  1.00  0.00     0.003 A 
HETATM   24  N   UNL     1       6.725  26.103  55.796  1.00  0.00    -0.346 N 
HETATM   25  C   UNL     1       5.024  27.928  55.327  1.00  0.00     0.033 A 
HETATM   26  C   UNL     1       7.202  25.003  55.106  1.00  0.00     0.046 A 
HETATM   27  C   UNL     1       8.148  24.026  55.461  1.00  0.00     0.030 A 
HETATM   28  C   UNL     1       8.428  23.011  54.540  1.00  0.00     0.002 A 
HETATM   29  C   UNL     1       7.792  22.973  53.304  1.00  0.00     0.001 A 
HETATM   30  C   UNL     1       6.857  23.954  52.957  1.00  0.00     0.014 A 
HETATM   31  C   UNL     1       4.121  28.376  54.355  1.00  0.00     0.032 A 
BRANCH  24  32
HETATM   32  C   UNL     1       7.150  26.480  57.135  1.00  0.00     0.125 C 
HETATM   33  C   UNL     1       8.337  27.427  57.116  1.00  0.00     0.027 C 
ENDBRANCH  24  32
ENDBRANCH  16  19
ENDBRANCH  14  15
ENDBRANCH  13  14
ENDBRANCH   1  13
TORSDOF 5
ENDMDL
MODEL 7
REMARK VINA RESULT:      -9.3      7.607     11.278
REMARK  5 active torsions:
REMARK  status: ('A' for Active; 'I' for Inactive)
REMARK    1  A    between atoms: C_2  and  N_3 
REMARK    2  A    between atoms: C_7  and  N_8 
REMARK       I    between atoms: N_8  and  C_9 
REMARK    3  A    between atoms: C_9  and  C_10 
REMARK    4  A    between atoms: C_10  and  C_11 
REMARK    5  A    between atoms: C_11  and  C_12 
ROOT
HETATM    1  C   UNL     1       3.325  29.269  47.962  1.00  0.00    -0.028 A 
HETATM    2  C   UNL     1       2.308  29.023  47.096  1.00  0.00     0.015 A 
HETATM    3  C   UNL     1       1.458  27.782  47.025  1.00  0.00     0.069 C 
HETATM    4  N   UNL     1       1.981  29.960  46.137  1.00  0.00    -0.326 N 
HETATM    5  C   UNL     1       2.600  31.163  45.948  1.00  0.00     0.266 A 
HETATM    6  O   UNL     1       2.238  31.936  45.068  1.00  0.00    -0.267 OA
HETATM    7  C   UNL     1       3.719  31.457  46.866  1.00  0.00     0.105 A 
HETATM    8  C   UNL     1       4.423  32.793  46.688  1.00  0.00     0.026 C 
HETATM    9  N   UNL     1       5.006  33.901  46.541  1.00  0.00    -0.096 N 
HETATM   10  C   UNL     1       4.068  30.564  47.822  1.00  0.00    -0.029 A 
HETATM   11  C   UNL     1       5.221  30.840  48.767  1.00  0.00     0.050 C 
HETATM   12  H   UNL     1       1.226  29.779  45.485  1.00  0.00     0.169 HD
ENDROOT
BRANCH   1  13
HETATM   13  C   UNL     1       3.821  28.350  49.087  1.00  0.00     0.050 C 
BRANCH  13  14
HETATM   14  C   UNL     1       4.904  27.298  48.842  1.00  0.00     0.108 C 
BRANCH  14  15
HETATM   15  C   UNL     1       5.020  26.331  50.010  1.00  0.00     0.222 C 
HETATM   16  N   UNL     1       6.098  26.597  50.835  1.00  0.00    -0.327 N 
HETATM   17  H   UNL     1       6.721  27.343  50.554  1.00  0.00     0.169 HD
HETATM   18  O   UNL     1       4.204  25.423  50.141  1.00  0.00    -0.273 OA
BRANCH  16  19
HETATM   19  C   UNL     1       6.448  25.932  52.031  1.00  0.00     0.035 A 
HETATM   20  C   UNL     1       6.893  24.607  52.083  1.00  0.00     0.044 A 
HETATM   21  C   UNL     1       7.188  24.002  53.329  1.00  0.00     0.005 A 
HETATM   22  C   UNL     1       7.046  24.752  54.497  1.00  0.00     0.046 A 
HETATM   23  C   UNL     1       7.624  22.692  53.705  1.00  0.00     0.003 A 
HETATM   24  N   UNL     1       7.398  23.929  55.550  1.00  0.00    -0.346 N 
HETATM   25  C   UNL     1       6.615  26.086  54.466  1.00  0.00     0.033 A 
HETATM   26  C   UNL     1       7.745  22.669  55.095  1.00  0.00     0.046 A 
HETATM   27  C   UNL     1       8.157  21.516  55.785  1.00  0.00     0.030 A 
HETATM   28  C   UNL     1       8.440  20.366  55.042  1.00  0.00     0.002 A 
HETATM   29  C   UNL     1       8.322  20.365  53.656  1.00  0.00     0.001 A 
HETATM   30  C   UNL     1       7.918  21.519  52.978  1.00  0.00     0.014 A 
HETATM   31  C   UNL     1       6.310  26.652  53.222  1.00  0.00     0.032 A 
BRANCH  24  32
HETATM   32  C   UNL     1       7.393  24.324  56.950  1.00  0.00     0.125 C 
HETATM   33  C   UNL     1       8.741  24.856  57.402  1.00  0.00     0.027 C 
ENDBRANCH  24  32
ENDBRANCH  16  19
ENDBRANCH  14  15
ENDBRANCH  13  14
ENDBRANCH   1  13
TORSDOF 5
ENDMDL
MODEL 8
REMARK VINA RESULT:      -9.2      1.413      2.450
REMARK  5 active torsions:
REMARK  status: ('A' for Active; 'I' for Inactive)
REMARK    1  A    between atoms: C_2  and  N_3 
REMARK    2  A    between atoms: C_7  and  N_8 
REMARK       I    between atoms: N_8  and  C_9 
REMARK    3  A    between atoms: C_9  and  C_10 
REMARK    4  A    between atoms: C_10  and  C_11 
REMARK    5  A    between atoms: C_11  and  C_12 
ROOT
HETATM    1  C   UNL     1       6.583  32.895  61.769  1.00  0.00    -0.028 A 
HETATM    2  C   UNL     1       6.800  33.389  63.016  1.00  0.00     0.015 A 
HETATM    3  C   UNL     1       7.856  32.947  63.994  1.00  0.00     0.069 C 
HETATM    4  N   UNL     1       5.986  34.388  63.510  1.00  0.00    -0.326 N 
HETATM    5  C   UNL     1       4.932  34.960  62.856  1.00  0.00     0.266 A 
HETATM    6  O   UNL     1       4.265  35.847  63.375  1.00  0.00    -0.267 OA
HETATM    7  C   UNL     1       4.662  34.438  61.501  1.00  0.00     0.105 A 
HETATM    8  C   UNL     1       3.500  35.060  60.742  1.00  0.00     0.026 C 
HETATM    9  N   UNL     1       2.538  35.577  60.113  1.00  0.00    -0.096 N 
HETATM   10  C   UNL     1       5.440  33.459  60.980  1.00  0.00    -0.029 A 
HETATM   11  C   UNL     1       5.172  32.900  59.597  1.00  0.00     0.050 C 
HETATM   12  H   UNL     1       6.141  34.756  64.442  1.00  0.00     0.169 HD
ENDROOT
BRANCH   1  13
HETATM   13  C   UNL     1       7.385  31.795  61.060  1.00  0.00     0.050 C 
BRANCH  13  14
HETATM   14  C   UNL     1       8.491  32.130  60.058  1.00  0.00     0.108 C 
BRANCH  14  15
HETATM   15  C   UNL     1       8.522  31.138  58.905  1.00  0.00     0.222 C 
HETATM   16  N   UNL     1       7.396  30.336  58.844  1.00  0.00    -0.327 N 
HETATM   17  H   UNL     1       6.715  30.439  59.586  1.00  0.00     0.169 HD
HETATM   18  O   UNL     1       9.486  31.105  58.147  1.00  0.00    -0.273 OA
BRANCH  16  19
HETATM   19  C   UNL     1       7.086  29.365  57.866  1.00  0.00     0.035 A 
HETATM   20  C   UNL     1       7.616  28.071  57.860  1.00  0.00     0.044 A 
HETATM   21  C   UNL     1       7.282  27.168  56.822  1.00  0.00     0.005 A 
HETATM   22  C   UNL     1       6.407  27.584  55.818  1.00  0.00     0.046 A 
HETATM   23  C   UNL     1       7.672  25.823  56.527  1.00  0.00     0.003 A 
HETATM   24  N   UNL     1       6.256  26.521  54.948  1.00  0.00    -0.346 N 
HETATM   25  C   UNL     1       5.854  28.873  55.813  1.00  0.00     0.033 A 
HETATM   26  C   UNL     1       7.021  25.442  55.352  1.00  0.00     0.046 A 
HETATM   27  C   UNL     1       7.194  24.165  54.790  1.00  0.00     0.030 A 
HETATM   28  C   UNL     1       8.053  23.269  55.433  1.00  0.00     0.002 A 
HETATM   29  C   UNL     1       8.715  23.629  56.602  1.00  0.00     0.001 A 
HETATM   30  C   UNL     1       8.531  24.899  57.159  1.00  0.00     0.014 A 
HETATM   31  C   UNL     1       6.217  29.751  56.841  1.00  0.00     0.032 A 
BRANCH  24  32
HETATM   32  C   UNL     1       5.419  26.534  53.758  1.00  0.00     0.125 C 
HETATM   33  C   UNL     1       6.203  26.889  52.507  1.00  0.00     0.027 C 
ENDBRANCH  24  32
ENDBRANCH  16  19
ENDBRANCH  14  15
ENDBRANCH  13  14
ENDBRANCH   1  13
TORSDOF 5
ENDMDL
MODEL 9
REMARK VINA RESULT:      -8.9      1.586      3.524
REMARK  5 active torsions:
REMARK  status: ('A' for Active; 'I' for Inactive)
REMARK    1  A    between atoms: C_2  and  N_3 
REMARK    2  A    between atoms: C_7  and  N_8 
REMARK       I    between atoms: N_8  and  C_9 
REMARK    3  A    between atoms: C_9  and  C_10 
REMARK    4  A    between atoms: C_10  and  C_11 
REMARK    5  A    between atoms: C_11  and  C_12 
ROOT
HETATM    1  C   UNL     1       6.969  32.136  60.784  1.00  0.00    -0.028 A 
HETATM    2  C   UNL     1       7.157  32.691  62.009  1.00  0.00     0.015 A 
HETATM    3  C   UNL     1       8.204  32.313  63.024  1.00  0.00     0.069 C 
HETATM    4  N   UNL     1       6.320  33.698  62.443  1.00  0.00    -0.326 N 
HETATM    5  C   UNL     1       5.268  34.222  61.747  1.00  0.00     0.266 A 
HETATM    6  O   UNL     1       4.578  35.121  62.213  1.00  0.00    -0.267 OA
HETATM    7  C   UNL     1       5.028  33.633  60.414  1.00  0.00     0.105 A 
HETATM    8  C   UNL     1       3.869  34.200  59.608  1.00  0.00     0.026 C 
HETATM    9  N   UNL     1       2.909  34.671  58.941  1.00  0.00    -0.096 N 
HETATM   10  C   UNL     1       5.829  32.644  59.952  1.00  0.00    -0.029 A 
HETATM   11  C   UNL     1       5.593  32.017  58.592  1.00  0.00     0.050 C 
HETATM   12  H   UNL     1       6.453  34.112  63.359  1.00  0.00     0.169 HD
ENDROOT
BRANCH   1  13
HETATM   13  C   UNL     1       7.799  31.018  60.140  1.00  0.00     0.050 C 
BRANCH  13  14
HETATM   14  C   UNL     1       8.901  31.323  59.123  1.00  0.00     0.108 C 
BRANCH  14  15
HETATM   15  C   UNL     1       9.009  30.231  58.070  1.00  0.00     0.222 C 
HETATM   16  N   UNL     1       7.910  29.391  58.038  1.00  0.00    -0.327 N 
HETATM   17  H   UNL     1       7.196  29.539  58.739  1.00  0.00     0.169 HD
HETATM   18  O   UNL     1      10.006  30.159  57.357  1.00  0.00    -0.273 OA
BRANCH  16  19
HETATM   19  C   UNL     1       7.671  28.325  57.143  1.00  0.00     0.035 A 
HETATM   20  C   UNL     1       7.194  28.495  55.840  1.00  0.00     0.044 A 
HETATM   21  C   UNL     1       6.945  27.370  55.018  1.00  0.00     0.005 A 
HETATM   22  C   UNL     1       7.198  26.094  55.522  1.00  0.00     0.046 A 
HETATM   23  C   UNL     1       6.442  27.218  53.687  1.00  0.00     0.003 A 
HETATM   24  N   UNL     1       6.874  25.194  54.524  1.00  0.00    -0.346 N 
HETATM   25  C   UNL     1       7.689  25.901  56.821  1.00  0.00     0.033 A 
HETATM   26  C   UNL     1       6.405  25.852  53.402  1.00  0.00     0.046 A 
HETATM   27  C   UNL     1       5.955  25.365  52.163  1.00  0.00     0.030 A 
HETATM   28  C   UNL     1       5.528  26.289  51.204  1.00  0.00     0.002 A 
HETATM   29  C   UNL     1       5.553  27.654  51.468  1.00  0.00     0.001 A 
HETATM   30  C   UNL     1       6.008  28.130  52.701  1.00  0.00     0.014 A 
HETATM   31  C   UNL     1       7.908  27.031  57.619  1.00  0.00     0.032 A 
BRANCH  24  32
HETATM   32  C   UNL     1       6.995  23.749  54.638  1.00  0.00     0.125 C 
HETATM   33  C   UNL     1       8.215  23.214  53.909  1.00  0.00     0.027 C 
ENDBRANCH  24  32
ENDBRANCH  16  19
ENDBRANCH  14  15
ENDBRANCH  13  14
ENDBRANCH   1  13
TORSDOF 5
ENDMDL
MODEL 10
REMARK VINA RESULT:      -8.8      1.721      3.781
REMARK  5 active torsions:
REMARK  status: ('A' for Active; 'I' for Inactive)
REMARK    1  A    between atoms: C_2  and  N_3 
REMARK    2  A    between atoms: C_7  and  N_8 
REMARK       I    between atoms: N_8  and  C_9 
REMARK    3  A    between atoms: C_9  and  C_10 
REMARK    4  A    between atoms: C_10  and  C_11 
REMARK    5  A    between atoms: C_11  and  C_12 
ROOT
HETATM    1  C   UNL     1       6.302  33.217  62.390  1.00  0.00    -0.028 A 
HETATM    2  C   UNL     1       6.465  33.808  63.602  1.00  0.00     0.015 A 
HETATM    3  C   UNL     1       7.482  33.451  64.655  1.00  0.00     0.069 C 
HETATM    4  N   UNL     1       5.629  34.836  63.983  1.00  0.00    -0.326 N 
HETATM    5  C   UNL     1       4.600  35.349  63.244  1.00  0.00     0.266 A 
HETATM    6  O   UNL     1       3.908  36.268  63.665  1.00  0.00    -0.267 OA
HETATM    7  C   UNL     1       4.388  34.720  61.924  1.00  0.00     0.105 A 
HETATM    8  C   UNL     1       3.256  35.274  61.073  1.00  0.00     0.026 C 
HETATM    9  N   UNL     1       2.318  35.733  60.367  1.00  0.00    -0.096 N 
HETATM   10  C   UNL     1       5.190  33.710  61.514  1.00  0.00    -0.029 A 
HETATM   11  C   UNL     1       4.981  33.043  60.169  1.00  0.00     0.050 C 
HETATM   12  H   UNL     1       5.743  35.277  64.889  1.00  0.00     0.169 HD
ENDROOT
BRANCH   1  13
HETATM   13  C   UNL     1       7.137  32.070  61.802  1.00  0.00     0.050 C 
BRANCH  13  14
HETATM   14  C   UNL     1       8.504  32.321  61.164  1.00  0.00     0.108 C 
BRANCH  14  15
HETATM   15  C   UNL     1       8.574  31.762  59.751  1.00  0.00     0.222 C 
HETATM   16  N   UNL     1       7.688  30.723  59.530  1.00  0.00    -0.327 N 
HETATM   17  H   UNL     1       7.145  30.403  60.322  1.00  0.00     0.169 HD
HETATM   18  O   UNL     1       9.367  32.233  58.941  1.00  0.00    -0.273 OA
BRANCH  16  19
HETATM   19  C   UNL     1       7.458  30.034  58.319  1.00  0.00     0.035 A 
HETATM   20  C   UNL     1       6.425  30.345  57.430  1.00  0.00     0.044 A 
HETATM   21  C   UNL     1       6.241  29.579  56.253  1.00  0.00     0.005 A 
HETATM   22  C   UNL     1       7.115  28.525  55.988  1.00  0.00     0.046 A 
HETATM   23  C   UNL     1       5.284  29.627  55.190  1.00  0.00     0.003 A 
HETATM   24  N   UNL     1       6.714  27.958  54.792  1.00  0.00    -0.346 N 
HETATM   25  C   UNL     1       8.167  28.205  56.858  1.00  0.00     0.033 A 
HETATM   26  C   UNL     1       5.598  28.605  54.292  1.00  0.00     0.046 A 
HETATM   27  C   UNL     1       4.842  28.383  53.129  1.00  0.00     0.030 A 
HETATM   28  C   UNL     1       3.742  29.211  52.886  1.00  0.00     0.002 A 
HETATM   29  C   UNL     1       3.409  30.233  53.768  1.00  0.00     0.001 A 
HETATM   30  C   UNL     1       4.171  30.452  54.920  1.00  0.00     0.014 A 
HETATM   31  C   UNL     1       8.313  28.966  58.025  1.00  0.00     0.032 A 
BRANCH  24  32
HETATM   32  C   UNL     1       7.363  26.827  54.150  1.00  0.00     0.125 C 
HETATM   33  C   UNL     1       6.796  25.498  54.618  1.00  0.00     0.027 C 
ENDBRANCH  24  32
ENDBRANCH  16  19
ENDBRANCH  14  15
ENDBRANCH  13  14
ENDBRANCH   1  13
TORSDOF 5
ENDMDL
