MODEL 1
REMARK VINA RESULT:      -9.2      0.000      0.000
REMARK  6 active torsions:
REMARK  status: ('A' for Active; 'I' for Inactive)
REMARK    1  A    between atoms: C_3  and  C_4 
REMARK    2  A    between atoms: C_4  and  N_5 
REMARK    3  A    between atoms: N_5  and  C_6 
REMARK    4  A    between atoms: C_8  and  N_9 
REMARK    5  A    between atoms: C_11  and  N_12 
REMARK    6  A    between atoms: C_18  and  N_19 
ROOT
HETATM    1  C   UNL     1       7.232  25.386  57.136  1.00  0.00     0.110 A 
HETATM    2  N   UNL     1       5.941  25.659  56.898  1.00  0.00    -0.206 NA
HETATM    3  C   UNL     1       5.562  26.937  56.943  1.00  0.00     0.202 A 
HETATM    4  N   UNL     1       6.373  27.964  57.181  1.00  0.00    -0.199 NA
HETATM    5  C   UNL     1       7.673  27.661  57.406  1.00  0.00     0.156 A 
HETATM    6  C   UNL     1       8.158  26.370  57.382  1.00  0.00     0.096 A 
ENDROOT
BRANCH   1   7
HETATM    7  N   UNL     1       7.565  24.028  57.071  1.00  0.00    -0.273 NA
HETATM    8  H   UNL     1       7.719  23.800  58.054  1.00  0.00     0.129 HD
BRANCH   7   9
HETATM    9  C   UNL     1       8.758  23.738  56.274  1.00  0.00     0.134 C 
BRANCH   9  10
HETATM   10  C   UNL     1       8.547  22.665  55.208  1.00  0.00    -0.018 A 
HETATM   11  C   UNL     1       9.034  21.355  55.431  1.00  0.00     0.011 A 
HETATM   12  C   UNL     1       8.838  20.320  54.514  1.00  0.00     0.001 A 
HETATM   13  C   UNL     1       8.143  20.560  53.342  1.00  0.00     0.002 A 
HETATM   14  C   UNL     1       7.644  21.836  53.087  1.00  0.00     0.030 A 
HETATM   15  C   UNL     1       7.844  22.900  53.995  1.00  0.00     0.047 A 
BRANCH  15  16
HETATM   16  N   UNL     1       7.300  24.168  53.617  1.00  0.00    -0.315 N 
HETATM   17  C   UNL     1       7.940  25.268  53.090  1.00  0.00     0.214 A 
HETATM   18  N   UNL     1       7.128  26.278  52.867  1.00  0.00    -0.254 NA
HETATM   19  C   UNL     1       5.893  25.823  53.217  1.00  0.00     0.135 A 
HETATM   20  C   UNL     1       5.964  24.524  53.659  1.00  0.00     0.117 A 
ENDBRANCH  15  16
ENDBRANCH   9  10
ENDBRANCH   7   9
ENDBRANCH   1   7
BRANCH   3  21
HETATM   21  N   UNL     1       4.238  27.218  56.684  1.00  0.00    -0.271 NA
HETATM   22  H   UNL     1       3.656  26.814  57.406  1.00  0.00     0.127 HD
HETATM   23  H   UNL     1       4.016  26.980  55.728  1.00  0.00     0.127 HD
ENDBRANCH   3  21
BRANCH   5  24
HETATM   24  N   UNL     1       8.570  28.733  57.685  1.00  0.00    -0.227 N 
HETATM   25  N   UNL     1       8.405  29.565  58.750  1.00  0.00    -0.179 NA
HETATM   26  C   UNL     1       9.415  30.431  58.653  1.00  0.00     0.141 A 
HETATM   27  C   UNL     1      10.244  30.178  57.549  1.00  0.00     0.040 A 
HETATM   28  C   UNL     1       9.681  29.080  56.943  1.00  0.00     0.122 A 
ENDBRANCH   5  24
TORSDOF 6
ENDMDL
MODEL 2
REMARK VINA RESULT:      -8.4      2.821      6.043
REMARK  6 active torsions:
REMARK  status: ('A' for Active; 'I' for Inactive)
REMARK    1  A    between atoms: C_3  and  C_4 
REMARK    2  A    between atoms: C_4  and  N_5 
REMARK    3  A    between atoms: N_5  and  C_6 
REMARK    4  A    between atoms: C_8  and  N_9 
REMARK    5  A    between atoms: C_11  and  N_12 
REMARK    6  A    between atoms: C_18  and  N_19 
ROOT
HETATM    1  C   UNL     1       5.972  25.677  52.478  1.00  0.00     0.110 A 
HETATM    2  N   UNL     1       6.131  26.677  53.355  1.00  0.00    -0.206 NA
HETATM    3  C   UNL     1       5.935  27.922  52.915  1.00  0.00     0.202 A 
HETATM    4  N   UNL     1       5.570  28.243  51.677  1.00  0.00    -0.199 NA
HETATM    5  C   UNL     1       5.405  27.213  50.815  1.00  0.00     0.156 A 
HETATM    6  C   UNL     1       5.586  25.894  51.178  1.00  0.00     0.096 A 
ENDROOT
BRANCH   1   7
HETATM    7  N   UNL     1       6.189  24.397  53.002  1.00  0.00    -0.273 NA
HETATM    8  H   UNL     1       5.616  24.413  53.846  1.00  0.00     0.129 HD
BRANCH   7   9
HETATM    9  C   UNL     1       7.588  24.107  53.324  1.00  0.00     0.134 C 
BRANCH   9  10
HETATM   10  C   UNL     1       7.789  22.813  54.107  1.00  0.00    -0.018 A 
HETATM   11  C   UNL     1       7.919  21.587  53.410  1.00  0.00     0.011 A 
HETATM   12  C   UNL     1       8.145  20.376  54.065  1.00  0.00     0.001 A 
HETATM   13  C   UNL     1       8.252  20.348  55.444  1.00  0.00     0.002 A 
HETATM   14  C   UNL     1       8.132  21.532  56.168  1.00  0.00     0.030 A 
HETATM   15  C   UNL     1       7.890  22.767  55.524  1.00  0.00     0.047 A 
BRANCH  15  16
HETATM   16  N   UNL     1       7.770  23.912  56.373  1.00  0.00    -0.315 N 
HETATM   17  C   UNL     1       8.741  24.555  57.110  1.00  0.00     0.214 A 
HETATM   18  N   UNL     1       8.276  25.579  57.792  1.00  0.00    -0.254 NA
HETATM   19  C   UNL     1       6.955  25.650  57.467  1.00  0.00     0.135 A 
HETATM   20  C   UNL     1       6.621  24.655  56.580  1.00  0.00     0.117 A 
ENDBRANCH  15  16
ENDBRANCH   9  10
ENDBRANCH   7   9
ENDBRANCH   1   7
BRANCH   3  21
HETATM   21  N   UNL     1       6.085  28.949  53.822  1.00  0.00    -0.271 NA
HETATM   22  H   UNL     1       7.060  29.045  54.071  1.00  0.00     0.127 HD
HETATM   23  H   UNL     1       5.426  28.838  54.580  1.00  0.00     0.127 HD
ENDBRANCH   3  21
BRANCH   5  24
HETATM   24  N   UNL     1       5.033  27.517  49.474  1.00  0.00    -0.227 N 
HETATM   25  N   UNL     1       4.187  26.729  48.754  1.00  0.00    -0.179 NA
HETATM   26  C   UNL     1       4.111  27.326  47.563  1.00  0.00     0.141 A 
HETATM   27  C   UNL     1       4.884  28.495  47.492  1.00  0.00     0.040 A 
HETATM   28  C   UNL     1       5.466  28.598  48.732  1.00  0.00     0.122 A 
ENDBRANCH   5  24
TORSDOF 6
ENDMDL
MODEL 3
REMARK VINA RESULT:      -8.3      1.600      3.231
REMARK  6 active torsions:
REMARK  status: ('A' for Active; 'I' for Inactive)
REMARK    1  A    between atoms: C_3  and  C_4 
REMARK    2  A    between atoms: C_4  and  N_5 
REMARK    3  A    between atoms: N_5  and  C_6 
REMARK    4  A    between atoms: C_8  and  N_9 
REMARK    5  A    between atoms: C_11  and  N_12 
REMARK    6  A    between atoms: C_18  and  N_19 
ROOT
HETATM    1  C   UNL     1       7.093  26.671  57.257  1.00  0.00     0.110 A 
HETATM    2  N   UNL     1       5.824  27.087  57.142  1.00  0.00    -0.206 NA
HETATM    3  C   UNL     1       5.591  28.396  57.254  1.00  0.00     0.202 A 
HETATM    4  N   UNL     1       6.525  29.322  57.447  1.00  0.00    -0.199 NA
HETATM    5  C   UNL     1       7.799  28.876  57.547  1.00  0.00     0.156 A 
HETATM    6  C   UNL     1       8.138  27.542  57.446  1.00  0.00     0.096 A 
ENDROOT
BRANCH   1   7
HETATM    7  N   UNL     1       7.271  25.289  57.128  1.00  0.00    -0.273 NA
HETATM    8  H   UNL     1       8.228  25.229  56.779  1.00  0.00     0.129 HD
BRANCH   7   9
HETATM    9  C   UNL     1       6.336  24.644  56.203  1.00  0.00     0.134 C 
BRANCH   9  10
HETATM   10  C   UNL     1       6.881  24.476  54.787  1.00  0.00    -0.018 A 
HETATM   11  C   UNL     1       6.679  25.503  53.834  1.00  0.00     0.011 A 
HETATM   12  C   UNL     1       7.186  25.428  52.536  1.00  0.00     0.001 A 
HETATM   13  C   UNL     1       7.919  24.320  52.146  1.00  0.00     0.002 A 
HETATM   14  C   UNL     1       8.142  23.288  53.054  1.00  0.00     0.030 A 
HETATM   15  C   UNL     1       7.625  23.339  54.369  1.00  0.00     0.047 A 
BRANCH  15  16
HETATM   16  N   UNL     1       7.907  22.214  55.206  1.00  0.00    -0.315 N 
HETATM   17  C   UNL     1       8.500  22.180  56.449  1.00  0.00     0.214 A 
HETATM   18  N   UNL     1       8.613  20.962  56.933  1.00  0.00    -0.254 NA
HETATM   19  C   UNL     1       8.037  20.156  55.998  1.00  0.00     0.135 A 
HETATM   20  C   UNL     1       7.575  20.897  54.938  1.00  0.00     0.117 A 
ENDBRANCH  15  16
ENDBRANCH   9  10
ENDBRANCH   7   9
ENDBRANCH   1   7
BRANCH   3  21
HETATM   21  N   UNL     1       4.287  28.823  57.121  1.00  0.00    -0.271 NA
HETATM   22  H   UNL     1       3.821  28.781  58.017  1.00  0.00     0.127 HD
HETATM   23  H   UNL     1       3.844  28.344  56.349  1.00  0.00     0.127 HD
ENDBRANCH   3  21
BRANCH   5  24
HETATM   24  N   UNL     1       8.827  29.836  57.774  1.00  0.00    -0.227 N 
HETATM   25  N   UNL     1       9.995  29.835  57.074  1.00  0.00    -0.179 NA
HETATM   26  C   UNL     1      10.690  30.852  57.586  1.00  0.00     0.141 A 
HETATM   27  C   UNL     1       9.996  31.525  58.603  1.00  0.00     0.040 A 
HETATM   28  C   UNL     1       8.801  30.855  58.705  1.00  0.00     0.122 A 
ENDBRANCH   5  24
TORSDOF 6
ENDMDL
MODEL 4
REMARK VINA RESULT:      -8.3      4.252      9.657
REMARK  6 active torsions:
REMARK  status: ('A' for Active; 'I' for Inactive)
REMARK    1  A    between atoms: C_3  and  C_4 
REMARK    2  A    between atoms: C_4  and  N_5 
REMARK    3  A    between atoms: N_5  and  C_6 
REMARK    4  A    between atoms: C_8  and  N_9 
REMARK    5  A    between atoms: C_11  and  N_12 
REMARK    6  A    between atoms: C_18  and  N_19 
ROOT
HETATM    1  C   UNL     1       9.004  31.081  58.600  1.00  0.00     0.110 A 
HETATM    2  N   UNL     1      10.278  31.066  58.183  1.00  0.00    -0.206 NA
HETATM    3  C   UNL     1      10.693  29.992  57.508  1.00  0.00     0.202 A 
HETATM    4  N   UNL     1       9.932  28.946  57.197  1.00  0.00    -0.199 NA
HETATM    5  C   UNL     1       8.648  28.994  57.620  1.00  0.00     0.156 A 
HETATM    6  C   UNL     1       8.128  30.060  58.325  1.00  0.00     0.096 A 
ENDROOT
BRANCH   1   7
HETATM    7  N   UNL     1       8.630  32.235  59.299  1.00  0.00    -0.273 NA
HETATM    8  H   UNL     1       9.272  32.221  60.092  1.00  0.00     0.129 HD
BRANCH   7   9
HETATM    9  C   UNL     1       7.238  32.240  59.752  1.00  0.00     0.134 C 
BRANCH   9  10
HETATM   10  C   UNL     1       7.072  32.518  61.244  1.00  0.00    -0.018 A 
HETATM   11  C   UNL     1       8.167  32.315  62.118  1.00  0.00     0.011 A 
HETATM   12  C   UNL     1       8.091  32.588  63.485  1.00  0.00     0.001 A 
HETATM   13  C   UNL     1       6.916  33.079  64.026  1.00  0.00     0.002 A 
HETATM   14  C   UNL     1       5.815  33.294  63.199  1.00  0.00     0.030 A 
HETATM   15  C   UNL     1       5.867  33.011  61.815  1.00  0.00     0.047 A 
BRANCH  15  16
HETATM   16  N   UNL     1       4.670  33.258  61.071  1.00  0.00    -0.315 N 
HETATM   17  C   UNL     1       3.689  32.373  60.681  1.00  0.00     0.214 A 
HETATM   18  N   UNL     1       2.723  32.945  59.995  1.00  0.00    -0.254 NA
HETATM   19  C   UNL     1       3.049  34.267  59.960  1.00  0.00     0.135 A 
HETATM   20  C   UNL     1       4.225  34.493  60.632  1.00  0.00     0.117 A 
ENDBRANCH  15  16
ENDBRANCH   9  10
ENDBRANCH   7   9
ENDBRANCH   1   7
BRANCH   3  21
HETATM   21  N   UNL     1      11.999  29.984  57.066  1.00  0.00    -0.271 NA
HETATM   22  H   UNL     1      12.603  30.365  57.781  1.00  0.00     0.127 HD
HETATM   23  H   UNL     1      12.054  30.400  56.148  1.00  0.00     0.127 HD
ENDBRANCH   3  21
BRANCH   5  24
HETATM   24  N   UNL     1       7.805  27.883  57.324  1.00  0.00    -0.227 N 
HETATM   25  N   UNL     1       7.836  26.730  58.046  1.00  0.00    -0.179 NA
HETATM   26  C   UNL     1       6.937  25.943  57.453  1.00  0.00     0.141 A 
HETATM   27  C   UNL     1       6.311  26.562  56.361  1.00  0.00     0.040 A 
HETATM   28  C   UNL     1       6.884  27.809  56.298  1.00  0.00     0.122 A 
ENDBRANCH   5  24
TORSDOF 6
ENDMDL
MODEL 5
REMARK VINA RESULT:      -8.2      1.808      3.204
REMARK  6 active torsions:
REMARK  status: ('A' for Active; 'I' for Inactive)
REMARK    1  A    between atoms: C_3  and  C_4 
REMARK    2  A    between atoms: C_4  and  N_5 
REMARK    3  A    between atoms: N_5  and  C_6 
REMARK    4  A    between atoms: C_8  and  N_9 
REMARK    5  A    between atoms: C_11  and  N_12 
REMARK    6  A    between atoms: C_18  and  N_19 
ROOT
HETATM    1  C   UNL     1       6.953  26.237  57.138  1.00  0.00     0.110 A 
HETATM    2  N   UNL     1       7.573  27.026  58.027  1.00  0.00    -0.206 NA
HETATM    3  C   UNL     1       7.350  28.340  57.947  1.00  0.00     0.202 A 
HETATM    4  N   UNL     1       6.540  28.923  57.069  1.00  0.00    -0.199 NA
HETATM    5  C   UNL     1       5.918  28.102  56.191  1.00  0.00     0.156 A 
HETATM    6  C   UNL     1       6.087  26.732  56.194  1.00  0.00     0.096 A 
ENDROOT
BRANCH   1   7
HETATM    7  N   UNL     1       7.226  24.871  57.276  1.00  0.00    -0.273 NA
HETATM    8  H   UNL     1       7.398  24.789  58.278  1.00  0.00     0.129 HD
BRANCH   7   9
HETATM    9  C   UNL     1       8.383  24.408  56.507  1.00  0.00     0.134 C 
BRANCH   9  10
HETATM   10  C   UNL     1       8.235  22.992  55.957  1.00  0.00    -0.018 A 
HETATM   11  C   UNL     1       8.541  21.885  56.786  1.00  0.00     0.011 A 
HETATM   12  C   UNL     1       8.388  20.566  56.356  1.00  0.00     0.001 A 
HETATM   13  C   UNL     1       7.919  20.306  55.080  1.00  0.00     0.002 A 
HETATM   14  C   UNL     1       7.605  21.367  54.234  1.00  0.00     0.030 A 
HETATM   15  C   UNL     1       7.766  22.710  54.645  1.00  0.00     0.047 A 
BRANCH  15  16
HETATM   16  N   UNL     1       7.424  23.713  53.684  1.00  0.00    -0.315 N 
HETATM   17  C   UNL     1       8.196  24.254  52.678  1.00  0.00     0.214 A 
HETATM   18  N   UNL     1       7.562  25.170  51.980  1.00  0.00    -0.254 NA
HETATM   19  C   UNL     1       6.308  25.215  52.509  1.00  0.00     0.135 A 
HETATM   20  C   UNL     1       6.187  24.315  53.541  1.00  0.00     0.117 A 
ENDBRANCH  15  16
ENDBRANCH   9  10
ENDBRANCH   7   9
ENDBRANCH   1   7
BRANCH   3  21
HETATM   21  N   UNL     1       7.976  29.148  58.871  1.00  0.00    -0.271 NA
HETATM   22  H   UNL     1       7.530  29.046  59.773  1.00  0.00     0.127 HD
HETATM   23  H   UNL     1       8.063  30.086  58.505  1.00  0.00     0.127 HD
ENDBRANCH   3  21
BRANCH   5  24
HETATM   24  N   UNL     1       5.056  28.691  55.220  1.00  0.00    -0.227 N 
HETATM   25  N   UNL     1       4.697  30.003  55.264  1.00  0.00    -0.179 NA
HETATM   26  C   UNL     1       3.881  30.158  54.219  1.00  0.00     0.141 A 
HETATM   27  C   UNL     1       3.706  28.974  53.487  1.00  0.00     0.040 A 
HETATM   28  C   UNL     1       4.473  28.045  54.149  1.00  0.00     0.122 A 
ENDBRANCH   5  24
TORSDOF 6
ENDMDL
MODEL 6
REMARK VINA RESULT:      -8.1      2.446      7.214
REMARK  6 active torsions:
REMARK  status: ('A' for Active; 'I' for Inactive)
REMARK    1  A    between atoms: C_3  and  C_4 
REMARK    2  A    between atoms: C_4  and  N_5 
REMARK    3  A    between atoms: N_5  and  C_6 
REMARK    4  A    between atoms: C_8  and  N_9 
REMARK    5  A    between atoms: C_11  and  N_12 
REMARK    6  A    between atoms: C_18  and  N_19 
ROOT
HETATM    1  C   UNL     1       6.036  25.449  55.316  1.00  0.00     0.110 A 
HETATM    2  N   UNL     1       6.589  25.761  56.496  1.00  0.00    -0.206 NA
HETATM    3  C   UNL     1       7.474  24.904  57.009  1.00  0.00     0.202 A 
HETATM    4  N   UNL     1       7.868  23.776  56.425  1.00  0.00    -0.199 NA
HETATM    5  C   UNL     1       7.303  23.492  55.229  1.00  0.00     0.156 A 
HETATM    6  C   UNL     1       6.377  24.315  54.621  1.00  0.00     0.096 A 
ENDROOT
BRANCH   1   7
HETATM    7  N   UNL     1       5.118  26.389  54.832  1.00  0.00    -0.273 NA
HETATM    8  H   UNL     1       4.533  25.819  54.220  1.00  0.00     0.129 HD
BRANCH   7   9
HETATM    9  C   UNL     1       5.724  27.498  54.093  1.00  0.00     0.134 C 
BRANCH   9  10
HETATM   10  C   UNL     1       5.189  28.872  54.487  1.00  0.00    -0.018 A 
HETATM   11  C   UNL     1       4.092  29.423  53.780  1.00  0.00     0.011 A 
HETATM   12  C   UNL     1       3.531  30.656  54.117  1.00  0.00     0.001 A 
HETATM   13  C   UNL     1       4.046  31.381  55.177  1.00  0.00     0.002 A 
HETATM   14  C   UNL     1       5.124  30.873  55.900  1.00  0.00     0.030 A 
HETATM   15  C   UNL     1       5.715  29.633  55.566  1.00  0.00     0.047 A 
BRANCH  15  16
HETATM   16  N   UNL     1       6.825  29.223  56.370  1.00  0.00    -0.315 N 
HETATM   17  C   UNL     1       6.845  28.835  57.692  1.00  0.00     0.214 A 
HETATM   18  N   UNL     1       8.051  28.528  58.119  1.00  0.00    -0.254 NA
HETATM   19  C   UNL     1       8.860  28.676  57.033  1.00  0.00     0.135 A 
HETATM   20  C   UNL     1       8.132  29.078  55.940  1.00  0.00     0.117 A 
ENDBRANCH  15  16
ENDBRANCH   9  10
ENDBRANCH   7   9
ENDBRANCH   1   7
BRANCH   3  21
HETATM   21  N   UNL     1       8.054  25.233  58.215  1.00  0.00    -0.271 NA
HETATM   22  H   UNL     1       8.155  26.237  58.283  1.00  0.00     0.127 HD
HETATM   23  H   UNL     1       8.884  24.677  58.362  1.00  0.00     0.127 HD
ENDBRANCH   3  21
BRANCH   5  24
HETATM   24  N   UNL     1       7.684  22.281  54.580  1.00  0.00    -0.227 N 
HETATM   25  N   UNL     1       8.024  21.158  55.271  1.00  0.00    -0.179 NA
HETATM   26  C   UNL     1       8.334  20.269  54.326  1.00  0.00     0.141 A 
HETATM   27  C   UNL     1       8.196  20.785  53.029  1.00  0.00     0.040 A 
HETATM   28  C   UNL     1       7.776  22.080  53.218  1.00  0.00     0.122 A 
ENDBRANCH   5  24
TORSDOF 6
ENDMDL
MODEL 7
REMARK VINA RESULT:      -8.0      2.411      4.740
REMARK  6 active torsions:
REMARK  status: ('A' for Active; 'I' for Inactive)
REMARK    1  A    between atoms: C_3  and  C_4 
REMARK    2  A    between atoms: C_4  and  N_5 
REMARK    3  A    between atoms: N_5  and  C_6 
REMARK    4  A    between atoms: C_8  and  N_9 
REMARK    5  A    between atoms: C_11  and  N_12 
REMARK    6  A    between atoms: C_18  and  N_19 
ROOT
HETATM    1  C   UNL     1       5.565  25.653  52.514  1.00  0.00     0.110 A 
HETATM    2  N   UNL     1       5.702  26.021  51.233  1.00  0.00    -0.206 NA
HETATM    3  C   UNL     1       5.382  27.276  50.913  1.00  0.00     0.202 A 
HETATM    4  N   UNL     1       4.961  28.198  51.774  1.00  0.00    -0.199 NA
HETATM    5  C   UNL     1       4.844  27.804  53.063  1.00  0.00     0.156 A 
HETATM    6  C   UNL     1       5.149  26.527  53.489  1.00  0.00     0.096 A 
ENDROOT
BRANCH   1   7
HETATM    7  N   UNL     1       5.919  24.327  52.785  1.00  0.00    -0.273 NA
HETATM    8  H   UNL     1       5.349  24.117  53.604  1.00  0.00     0.129 HD
BRANCH   7   9
HETATM    9  C   UNL     1       7.341  24.129  53.072  1.00  0.00     0.134 C 
BRANCH   9  10
HETATM   10  C   UNL     1       7.648  22.838  53.827  1.00  0.00    -0.018 A 
HETATM   11  C   UNL     1       7.858  21.639  53.104  1.00  0.00     0.011 A 
HETATM   12  C   UNL     1       8.181  20.435  53.732  1.00  0.00     0.001 A 
HETATM   13  C   UNL     1       8.311  20.390  55.109  1.00  0.00     0.002 A 
HETATM   14  C   UNL     1       8.115  21.549  55.857  1.00  0.00     0.030 A 
HETATM   15  C   UNL     1       7.773  22.774  55.242  1.00  0.00     0.047 A 
BRANCH  15  16
HETATM   16  N   UNL     1       7.582  23.891  56.114  1.00  0.00    -0.315 N 
HETATM   17  C   UNL     1       6.419  24.558  56.434  1.00  0.00     0.214 A 
HETATM   18  N   UNL     1       6.611  25.555  57.270  1.00  0.00    -0.254 NA
HETATM   19  C   UNL     1       7.943  25.529  57.552  1.00  0.00     0.135 A 
HETATM   20  C   UNL     1       8.561  24.505  56.876  1.00  0.00     0.117 A 
ENDBRANCH  15  16
ENDBRANCH   9  10
ENDBRANCH   7   9
ENDBRANCH   1   7
BRANCH   3  21
HETATM   21  N   UNL     1       5.537  27.657  49.597  1.00  0.00    -0.271 NA
HETATM   22  H   UNL     1       5.801  28.633  49.553  1.00  0.00     0.127 HD
HETATM   23  H   UNL     1       4.730  27.375  49.059  1.00  0.00     0.127 HD
ENDBRANCH   3  21
BRANCH   5  24
HETATM   24  N   UNL     1       4.376  28.757  54.014  1.00  0.00    -0.227 N 
HETATM   25  N   UNL     1       4.381  28.514  55.354  1.00  0.00    -0.179 NA
HETATM   26  C   UNL     1       3.855  29.616  55.892  1.00  0.00     0.141 A 
HETATM   27  C   UNL     1       3.513  30.580  54.930  1.00  0.00     0.040 A 
HETATM   28  C   UNL     1       3.860  30.005  53.731  1.00  0.00     0.122 A 
ENDBRANCH   5  24
TORSDOF 6
ENDMDL
MODEL 8
REMARK VINA RESULT:      -7.8      3.865      7.178
REMARK  6 active torsions:
REMARK  status: ('A' for Active; 'I' for Inactive)
REMARK    1  A    between atoms: C_3  and  C_4 
REMARK    2  A    between atoms: C_4  and  N_5 
REMARK    3  A    between atoms: N_5  and  C_6 
REMARK    4  A    between atoms: C_8  and  N_9 
REMARK    5  A    between atoms: C_11  and  N_12 
REMARK    6  A    between atoms: C_18  and  N_19 
ROOT
HETATM    1  C   UNL     1       5.196  25.608  52.991  1.00  0.00     0.110 A 
HETATM    2  N   UNL     1       5.171  26.372  54.092  1.00  0.00    -0.206 NA
HETATM    3  C   UNL     1       5.844  25.939  55.160  1.00  0.00     0.202 A 
HETATM    4  N   UNL     1       6.559  24.819  55.207  1.00  0.00    -0.199 NA
HETATM    5  C   UNL     1       6.578  24.073  54.078  1.00  0.00     0.156 A 
HETATM    6  C   UNL     1       5.912  24.437  52.925  1.00  0.00     0.096 A 
ENDROOT
BRANCH   1   7
HETATM    7  N   UNL     1       4.474  26.118  51.906  1.00  0.00    -0.273 NA
HETATM    8  H   UNL     1       3.686  25.471  51.853  1.00  0.00     0.129 HD
BRANCH   7   9
HETATM    9  C   UNL     1       5.217  26.142  50.645  1.00  0.00     0.134 C 
BRANCH   9  10
HETATM   10  C   UNL     1       4.364  26.490  49.428  1.00  0.00    -0.018 A 
HETATM   11  C   UNL     1       3.749  25.453  48.687  1.00  0.00     0.011 A 
HETATM   12  C   UNL     1       2.925  25.707  47.589  1.00  0.00     0.001 A 
HETATM   13  C   UNL     1       2.683  27.012  47.196  1.00  0.00     0.002 A 
HETATM   14  C   UNL     1       3.268  28.062  47.901  1.00  0.00     0.030 A 
HETATM   15  C   UNL     1       4.117  27.825  49.006  1.00  0.00     0.047 A 
BRANCH  15  16
HETATM   16  N   UNL     1       4.671  28.982  49.640  1.00  0.00    -0.315 N 
HETATM   17  C   UNL     1       5.876  29.608  49.409  1.00  0.00     0.214 A 
HETATM   18  N   UNL     1       6.071  30.650  50.187  1.00  0.00    -0.254 NA
HETATM   19  C   UNL     1       4.939  30.750  50.937  1.00  0.00     0.135 A 
HETATM   20  C   UNL     1       4.052  29.754  50.608  1.00  0.00     0.117 A 
ENDBRANCH  15  16
ENDBRANCH   9  10
ENDBRANCH   7   9
ENDBRANCH   1   7
BRANCH   3  21
HETATM   21  N   UNL     1       5.829  26.733  56.286  1.00  0.00    -0.271 NA
HETATM   22  H   UNL     1       6.650  26.546  56.846  1.00  0.00     0.127 HD
HETATM   23  H   UNL     1       4.933  26.661  56.747  1.00  0.00     0.127 HD
ENDBRANCH   3  21
BRANCH   5  24
HETATM   24  N   UNL     1       7.317  22.854  54.094  1.00  0.00    -0.227 N 
HETATM   25  N   UNL     1       7.561  22.163  55.242  1.00  0.00    -0.179 NA
HETATM   26  C   UNL     1       8.287  21.115  54.850  1.00  0.00     0.141 A 
HETATM   27  C   UNL     1       8.517  21.102  53.465  1.00  0.00     0.040 A 
HETATM   28  C   UNL     1       7.882  22.228  53.001  1.00  0.00     0.122 A 
ENDBRANCH   5  24
TORSDOF 6
ENDMDL
MODEL 9
REMARK VINA RESULT:      -7.8      3.563      7.079
REMARK  6 active torsions:
REMARK  status: ('A' for Active; 'I' for Inactive)
REMARK    1  A    between atoms: C_3  and  C_4 
REMARK    2  A    between atoms: C_4  and  N_5 
REMARK    3  A    between atoms: N_5  and  C_6 
REMARK    4  A    between atoms: C_8  and  N_9 
REMARK    5  A    between atoms: C_11  and  N_12 
REMARK    6  A    between atoms: C_18  and  N_19 
ROOT
HETATM    1  C   UNL     1       5.803  27.258  51.728  1.00  0.00     0.110 A 
HETATM    2  N   UNL     1       6.097  28.565  51.736  1.00  0.00    -0.206 NA
HETATM    3  C   UNL     1       5.561  29.325  50.779  1.00  0.00     0.202 A 
HETATM    4  N   UNL     1       4.736  28.887  49.832  1.00  0.00    -0.199 NA
HETATM    5  C   UNL     1       4.446  27.566  49.855  1.00  0.00     0.156 A 
HETATM    6  C   UNL     1       4.953  26.701  50.803  1.00  0.00     0.096 A 
ENDROOT
BRANCH   1   7
HETATM    7  N   UNL     1       6.394  26.517  52.759  1.00  0.00    -0.273 NA
HETATM    8  H   UNL     1       7.387  26.616  52.548  1.00  0.00     0.129 HD
BRANCH   7   9
HETATM    9  C   UNL     1       6.002  25.107  52.788  1.00  0.00     0.134 C 
BRANCH   9  10
HETATM   10  C   UNL     1       6.971  24.209  53.553  1.00  0.00    -0.018 A 
HETATM   11  C   UNL     1       7.653  23.175  52.869  1.00  0.00     0.011 A 
HETATM   12  C   UNL     1       8.581  22.346  53.503  1.00  0.00     0.001 A 
HETATM   13  C   UNL     1       8.863  22.527  54.845  1.00  0.00     0.002 A 
HETATM   14  C   UNL     1       8.214  23.536  55.554  1.00  0.00     0.030 A 
HETATM   15  C   UNL     1       7.261  24.376  54.935  1.00  0.00     0.047 A 
BRANCH  15  16
HETATM   16  N   UNL     1       6.650  25.366  55.768  1.00  0.00    -0.315 N 
HETATM   17  C   UNL     1       5.392  25.375  56.329  1.00  0.00     0.214 A 
HETATM   18  N   UNL     1       5.153  26.456  57.039  1.00  0.00    -0.254 NA
HETATM   19  C   UNL     1       6.307  27.177  56.985  1.00  0.00     0.135 A 
HETATM   20  C   UNL     1       7.252  26.522  56.232  1.00  0.00     0.117 A 
ENDBRANCH  15  16
ENDBRANCH   9  10
ENDBRANCH   7   9
ENDBRANCH   1   7
BRANCH   3  21
HETATM   21  N   UNL     1       5.853  30.672  50.797  1.00  0.00    -0.271 NA
HETATM   22  H   UNL     1       5.083  31.193  50.400  1.00  0.00     0.127 HD
HETATM   23  H   UNL     1       6.769  30.831  50.399  1.00  0.00     0.127 HD
ENDBRANCH   3  21
BRANCH   5  24
HETATM   24  N   UNL     1       3.581  27.054  48.845  1.00  0.00    -0.227 N 
HETATM   25  N   UNL     1       2.297  27.482  48.697  1.00  0.00    -0.179 NA
HETATM   26  C   UNL     1       1.822  26.761  47.680  1.00  0.00     0.141 A 
HETATM   27  C   UNL     1       2.772  25.873  47.153  1.00  0.00     0.040 A 
HETATM   28  C   UNL     1       3.896  26.081  47.917  1.00  0.00     0.122 A 
ENDBRANCH   5  24
TORSDOF 6
ENDMDL
MODEL 10
REMARK VINA RESULT:      -7.5      9.074     12.591
REMARK  6 active torsions:
REMARK  status: ('A' for Active; 'I' for Inactive)
REMARK    1  A    between atoms: C_3  and  C_4 
REMARK    2  A    between atoms: C_4  and  N_5 
REMARK    3  A    between atoms: N_5  and  C_6 
REMARK    4  A    between atoms: C_8  and  N_9 
REMARK    5  A    between atoms: C_11  and  N_12 
REMARK    6  A    between atoms: C_18  and  N_19 
ROOT
HETATM    1  C   UNL     1       5.939  34.364  65.505  1.00  0.00     0.110 A 
HETATM    2  N   UNL     1       4.665  34.778  65.466  1.00  0.00    -0.206 NA
HETATM    3  C   UNL     1       4.049  34.992  66.630  1.00  0.00     0.202 A 
HETATM    4  N   UNL     1       4.612  34.851  67.827  1.00  0.00    -0.199 NA
HETATM    5  C   UNL     1       5.903  34.444  67.837  1.00  0.00     0.156 A 
HETATM    6  C   UNL     1       6.621  34.195  66.685  1.00  0.00     0.096 A 
ENDROOT
BRANCH   1   7
HETATM    7  N   UNL     1       6.528  34.159  64.252  1.00  0.00    -0.273 NA
HETATM    8  H   UNL     1       5.852  34.598  63.625  1.00  0.00     0.129 HD
BRANCH   7   9
HETATM    9  C   UNL     1       6.727  32.751  63.903  1.00  0.00     0.134 C 
BRANCH   9  10
HETATM   10  C   UNL     1       7.446  32.537  62.573  1.00  0.00    -0.018 A 
HETATM   11  C   UNL     1       8.803  32.135  62.570  1.00  0.00     0.011 A 
HETATM   12  C   UNL     1       9.505  31.884  61.389  1.00  0.00     0.001 A 
HETATM   13  C   UNL     1       8.870  32.024  60.168  1.00  0.00     0.002 A 
HETATM   14  C   UNL     1       7.534  32.417  60.128  1.00  0.00     0.030 A 
HETATM   15  C   UNL     1       6.810  32.689  61.311  1.00  0.00     0.047 A 
BRANCH  15  16
HETATM   16  N   UNL     1       5.450  33.099  61.143  1.00  0.00    -0.315 N 
HETATM   17  C   UNL     1       4.308  32.329  61.096  1.00  0.00     0.214 A 
HETATM   18  N   UNL     1       3.216  33.039  60.920  1.00  0.00    -0.254 NA
HETATM   19  C   UNL     1       3.636  34.334  60.888  1.00  0.00     0.135 A 
HETATM   20  C   UNL     1       4.999  34.403  61.046  1.00  0.00     0.117 A 
ENDBRANCH  15  16
ENDBRANCH   9  10
ENDBRANCH   7   9
ENDBRANCH   1   7
BRANCH   3  21
HETATM   21  N   UNL     1       2.744  35.432  66.589  1.00  0.00    -0.271 NA
HETATM   22  H   UNL     1       2.686  36.279  66.039  1.00  0.00     0.127 HD
HETATM   23  H   UNL     1       2.361  35.464  67.523  1.00  0.00     0.127 HD
ENDBRANCH   3  21
BRANCH   5  24
HETATM   24  N   UNL     1       6.536  34.261  69.100  1.00  0.00    -0.227 N 
HETATM   25  N   UNL     1       5.928  33.619  70.136  1.00  0.00    -0.179 NA
HETATM   26  C   UNL     1       6.818  33.675  71.129  1.00  0.00     0.141 A 
HETATM   27  C   UNL     1       8.001  34.333  70.761  1.00  0.00     0.040 A 
HETATM   28  C   UNL     1       7.797  34.699  69.452  1.00  0.00     0.122 A 
ENDBRANCH   5  24
TORSDOF 6
ENDMDL
