MODEL 1
REMARK VINA RESULT:      -9.5      0.000      0.000
REMARK  6 active torsions:
REMARK  status: ('A' for Active; 'I' for Inactive)
REMARK    1  A    between atoms: C_4  and  C_5 
REMARK    2  A    between atoms: C_5  and  O_6 
REMARK    3  A    between atoms: O_6  and  C_7 
REMARK    4  A    between atoms: C_10  and  C_11 
REMARK    5  A    between atoms: C_17  and  C_18 
REMARK    6  A    between atoms: C_27  and  N_28 
ROOT
HETATM    1  C   UNL     1       5.264  28.168  56.136  1.00  0.00     0.072 A 
HETATM    2  N   UNL     1       4.292  28.685  56.966  1.00  0.00    -0.274 N 
HETATM    3  H   UNL     1       4.147  28.482  57.950  1.00  0.00     0.189 HD
HETATM    4  N   UNL     1       3.456  29.551  56.357  1.00  0.00    -0.148 NA
HETATM    5  C   UNL     1       3.927  29.577  55.116  1.00  0.00     0.199 A 
HETATM    6  C   UNL     1       5.031  28.750  54.902  1.00  0.00     0.040 A 
HETATM    7  C   UNL     1       5.657  28.648  53.555  1.00  0.00     0.107 A 
HETATM    8  C   UNL     1       4.937  29.543  52.552  1.00  0.00     0.081 A 
HETATM    9  C   UNL     1       5.479  29.590  51.233  1.00  0.00     0.100 C 
HETATM   10  N   UNL     1       5.921  29.622  50.161  1.00  0.00    -0.191 NA
HETATM   11  C   UNL     1       3.864  30.311  52.883  1.00  0.00     0.140 A 
HETATM   12  O   UNL     1       3.328  30.330  54.177  1.00  0.00    -0.277 OA
ENDROOT
BRANCH   7  13
HETATM   13  C   UNL     1       5.634  27.177  53.183  1.00  0.00    -0.027 A 
HETATM   14  C   UNL     1       6.829  26.518  52.891  1.00  0.00     0.124 A 
HETATM   15  N   UNL     1       6.923  25.211  52.561  1.00  0.00    -0.273 NA
HETATM   16  C   UNL     1       5.770  24.514  52.510  1.00  0.00     0.116 A 
HETATM   17  C   UNL     1       4.527  25.067  52.768  1.00  0.00     0.020 A 
HETATM   18  C   UNL     1       4.459  26.416  53.105  1.00  0.00     0.011 A 
ENDBRANCH   7  13
BRANCH  11  19
HETATM   19  N   UNL     1       3.190  31.145  52.017  1.00  0.00    -0.282 NA
HETATM   20  H   UNL     1       3.342  32.142  52.147  1.00  0.00     0.126 HD
HETATM   21  H   UNL     1       3.284  30.847  51.049  1.00  0.00     0.126 HD
ENDBRANCH  11  19
BRANCH   1  22
HETATM   22  C   UNL     1       6.226  27.159  56.552  1.00  0.00    -0.007 A 
HETATM   23  C   UNL     1       5.825  25.826  56.705  1.00  0.00     0.016 A 
HETATM   24  C   UNL     1       6.771  24.832  56.953  1.00  0.00     0.037 A 
HETATM   25  C   UNL     1       8.122  25.163  57.025  1.00  0.00     0.069 A 
HETATM   26  C   UNL     1       8.526  26.496  56.949  1.00  0.00     0.037 A 
HETATM   27  C   UNL     1       7.577  27.492  56.709  1.00  0.00     0.016 A 
BRANCH  25  28
HETATM   28  O   UNL     1       9.000  24.126  57.182  1.00  0.00    -0.347 OA
BRANCH  28  29
HETATM   29  C   UNL     1       8.341  22.853  57.249  1.00  0.00     0.214 C 
BRANCH  29  30
HETATM   30  C   UNL     1       8.522  22.128  55.937  1.00  0.00    -0.034 A 
HETATM   31  C   UNL     1       8.507  20.724  55.898  1.00  0.00     0.009 A 
HETATM   32  C   UNL     1       8.626  20.046  54.684  1.00  0.00     0.001 A 
HETATM   33  C   UNL     1       8.753  20.762  53.496  1.00  0.00     0.000 A 
HETATM   34  C   UNL     1       8.762  22.156  53.520  1.00  0.00     0.001 A 
HETATM   35  C   UNL     1       8.645  22.837  54.734  1.00  0.00     0.009 A 
ENDBRANCH  29  30
ENDBRANCH  28  29
ENDBRANCH  25  28
ENDBRANCH   1  22
TORSDOF 6
ENDMDL
MODEL 2
REMARK VINA RESULT:      -9.4      2.165      4.500
REMARK  6 active torsions:
REMARK  status: ('A' for Active; 'I' for Inactive)
REMARK    1  A    between atoms: C_4  and  C_5 
REMARK    2  A    between atoms: C_5  and  O_6 
REMARK    3  A    between atoms: O_6  and  C_7 
REMARK    4  A    between atoms: C_10  and  C_11 
REMARK    5  A    between atoms: C_17  and  C_18 
REMARK    6  A    between atoms: C_27  and  N_28 
ROOT
HETATM    1  C   UNL     1       4.713  29.444  53.612  1.00  0.00     0.072 A 
HETATM    2  N   UNL     1       4.662  30.335  52.562  1.00  0.00    -0.274 N 
HETATM    3  H   UNL     1       4.907  30.163  51.592  1.00  0.00     0.189 HD
HETATM    4  N   UNL     1       4.236  31.568  52.908  1.00  0.00    -0.148 NA
HETATM    5  C   UNL     1       4.011  31.435  54.210  1.00  0.00     0.199 A 
HETATM    6  C   UNL     1       4.286  30.163  54.716  1.00  0.00     0.040 A 
HETATM    7  C   UNL     1       4.111  29.865  56.164  1.00  0.00     0.107 A 
HETATM    8  C   UNL     1       3.610  31.094  56.915  1.00  0.00     0.081 A 
HETATM    9  C   UNL     1       3.335  30.925  58.305  1.00  0.00     0.100 C 
HETATM   10  N   UNL     1       3.117  30.784  59.435  1.00  0.00    -0.191 NA
HETATM   11  C   UNL     1       3.375  32.287  56.307  1.00  0.00     0.140 A 
HETATM   12  O   UNL     1       3.587  32.484  54.936  1.00  0.00    -0.277 OA
ENDROOT
BRANCH   7  13
HETATM   13  C   UNL     1       5.450  29.353  56.660  1.00  0.00    -0.027 A 
HETATM   14  C   UNL     1       6.546  30.215  56.712  1.00  0.00     0.124 A 
HETATM   15  N   UNL     1       7.777  29.867  57.147  1.00  0.00    -0.273 NA
HETATM   16  C   UNL     1       7.938  28.590  57.550  1.00  0.00     0.116 A 
HETATM   17  C   UNL     1       6.925  27.645  57.532  1.00  0.00     0.020 A 
HETATM   18  C   UNL     1       5.667  28.032  57.078  1.00  0.00     0.011 A 
ENDBRANCH   7  13
BRANCH  11  19
HETATM   19  N   UNL     1       2.909  33.420  56.940  1.00  0.00    -0.282 NA
HETATM   20  H   UNL     1       3.223  34.308  56.556  1.00  0.00     0.126 HD
HETATM   21  H   UNL     1       1.904  33.384  57.098  1.00  0.00     0.126 HD
ENDBRANCH  11  19
BRANCH   1  22
HETATM   22  C   UNL     1       5.213  28.084  53.493  1.00  0.00    -0.007 A 
HETATM   23  C   UNL     1       4.322  27.021  53.295  1.00  0.00     0.016 A 
HETATM   24  C   UNL     1       4.805  25.741  53.027  1.00  0.00     0.037 A 
HETATM   25  C   UNL     1       6.178  25.522  52.934  1.00  0.00     0.069 A 
HETATM   26  C   UNL     1       7.075  26.555  53.204  1.00  0.00     0.037 A 
HETATM   27  C   UNL     1       6.591  27.836  53.480  1.00  0.00     0.016 A 
BRANCH  25  28
HETATM   28  O   UNL     1       6.575  24.262  52.583  1.00  0.00    -0.347 OA
BRANCH  28  29
HETATM   29  C   UNL     1       7.931  23.987  52.961  1.00  0.00     0.214 C 
BRANCH  29  30
HETATM   30  C   UNL     1       7.978  22.709  53.764  1.00  0.00    -0.034 A 
HETATM   31  C   UNL     1       8.251  21.486  53.130  1.00  0.00     0.009 A 
HETATM   32  C   UNL     1       8.342  20.307  53.871  1.00  0.00     0.001 A 
HETATM   33  C   UNL     1       8.170  20.339  55.254  1.00  0.00     0.000 A 
HETATM   34  C   UNL     1       7.906  21.548  55.895  1.00  0.00     0.001 A 
HETATM   35  C   UNL     1       7.812  22.729  55.155  1.00  0.00     0.009 A 
ENDBRANCH  29  30
ENDBRANCH  28  29
ENDBRANCH  25  28
ENDBRANCH   1  22
TORSDOF 6
ENDMDL
MODEL 3
REMARK VINA RESULT:      -9.0      3.693      5.828
REMARK  6 active torsions:
REMARK  status: ('A' for Active; 'I' for Inactive)
REMARK    1  A    between atoms: C_4  and  C_5 
REMARK    2  A    between atoms: C_5  and  O_6 
REMARK    3  A    between atoms: O_6  and  C_7 
REMARK    4  A    between atoms: C_10  and  C_11 
REMARK    5  A    between atoms: C_17  and  C_18 
REMARK    6  A    between atoms: C_27  and  N_28 
ROOT
HETATM    1  C   UNL     1       5.621  30.439  57.043  1.00  0.00     0.072 A 
HETATM    2  N   UNL     1       4.829  31.524  56.735  1.00  0.00    -0.274 N 
HETATM    3  H   UNL     1       4.174  31.614  55.964  1.00  0.00     0.189 HD
HETATM    4  N   UNL     1       4.976  32.568  57.577  1.00  0.00    -0.148 NA
HETATM    5  C   UNL     1       5.881  32.114  58.436  1.00  0.00     0.199 A 
HETATM    6  C   UNL     1       6.329  30.819  58.171  1.00  0.00     0.040 A 
HETATM    7  C   UNL     1       7.365  30.180  59.028  1.00  0.00     0.107 A 
HETATM    8  C   UNL     1       7.794  31.118  60.152  1.00  0.00     0.081 A 
HETATM    9  C   UNL     1       8.737  30.601  61.089  1.00  0.00     0.100 C 
HETATM   10  N   UNL     1       9.507  30.179  61.846  1.00  0.00    -0.191 NA
HETATM   11  C   UNL     1       7.279  32.367  60.310  1.00  0.00     0.140 A 
HETATM   12  O   UNL     1       6.317  32.896  59.439  1.00  0.00    -0.277 OA
ENDROOT
BRANCH   7  13
HETATM   13  C   UNL     1       8.499  29.782  58.103  1.00  0.00    -0.027 A 
HETATM   14  C   UNL     1       9.471  30.720  57.753  1.00  0.00     0.124 A 
HETATM   15  N   UNL     1      10.527  30.468  56.948  1.00  0.00    -0.273 NA
HETATM   16  C   UNL     1      10.627  29.218  56.454  1.00  0.00     0.116 A 
HETATM   17  C   UNL     1       9.716  28.210  56.723  1.00  0.00     0.020 A 
HETATM   18  C   UNL     1       8.638  28.499  57.555  1.00  0.00     0.011 A 
ENDBRANCH   7  13
BRANCH  11  19
HETATM   19  N   UNL     1       7.624  33.244  61.316  1.00  0.00    -0.282 NA
HETATM   20  H   UNL     1       8.154  34.064  61.033  1.00  0.00     0.126 HD
HETATM   21  H   UNL     1       6.833  33.464  61.918  1.00  0.00     0.126 HD
ENDBRANCH  11  19
BRANCH   1  22
HETATM   22  C   UNL     1       5.689  29.234  56.232  1.00  0.00    -0.007 A 
HETATM   23  C   UNL     1       6.375  29.245  55.011  1.00  0.00     0.016 A 
HETATM   24  C   UNL     1       6.573  28.058  54.307  1.00  0.00     0.037 A 
HETATM   25  C   UNL     1       6.106  26.854  54.830  1.00  0.00     0.069 A 
HETATM   26  C   UNL     1       5.356  26.841  56.005  1.00  0.00     0.037 A 
HETATM   27  C   UNL     1       5.152  28.031  56.707  1.00  0.00     0.016 A 
BRANCH  25  28
HETATM   28  O   UNL     1       6.413  25.721  54.129  1.00  0.00    -0.347 OA
BRANCH  28  29
HETATM   29  C   UNL     1       7.740  25.248  54.401  1.00  0.00     0.214 C 
BRANCH  29  30
HETATM   30  C   UNL     1       7.756  23.739  54.340  1.00  0.00    -0.034 A 
HETATM   31  C   UNL     1       7.931  23.084  53.111  1.00  0.00     0.009 A 
HETATM   32  C   UNL     1       7.994  21.691  53.051  1.00  0.00     0.001 A 
HETATM   33  C   UNL     1       7.890  20.939  54.220  1.00  0.00     0.000 A 
HETATM   34  C   UNL     1       7.723  21.578  55.447  1.00  0.00     0.001 A 
HETATM   35  C   UNL     1       7.658  22.972  55.509  1.00  0.00     0.009 A 
ENDBRANCH  29  30
ENDBRANCH  28  29
ENDBRANCH  25  28
ENDBRANCH   1  22
TORSDOF 6
ENDMDL
MODEL 4
REMARK VINA RESULT:      -8.9      3.152      5.415
REMARK  6 active torsions:
REMARK  status: ('A' for Active; 'I' for Inactive)
REMARK    1  A    between atoms: C_4  and  C_5 
REMARK    2  A    between atoms: C_5  and  O_6 
REMARK    3  A    between atoms: O_6  and  C_7 
REMARK    4  A    between atoms: C_10  and  C_11 
REMARK    5  A    between atoms: C_17  and  C_18 
REMARK    6  A    between atoms: C_27  and  N_28 
ROOT
HETATM    1  C   UNL     1       4.664  26.812  49.544  1.00  0.00     0.072 A 
HETATM    2  N   UNL     1       5.361  26.353  48.446  1.00  0.00    -0.274 N 
HETATM    3  H   UNL     1       6.130  25.690  48.434  1.00  0.00     0.189 HD
HETATM    4  N   UNL     1       4.943  26.874  47.274  1.00  0.00    -0.148 NA
HETATM    5  C   UNL     1       3.955  27.674  47.656  1.00  0.00     0.199 A 
HETATM    6  C   UNL     1       3.728  27.694  49.033  1.00  0.00     0.040 A 
HETATM    7  C   UNL     1       2.672  28.565  49.619  1.00  0.00     0.107 A 
HETATM    8  C   UNL     1       1.946  29.347  48.529  1.00  0.00     0.081 A 
HETATM    9  C   UNL     1       0.861  30.172  48.951  1.00  0.00     0.100 C 
HETATM   10  N   UNL     1      -0.018  30.845  49.298  1.00  0.00    -0.191 NA
HETATM   11  C   UNL     1       2.258  29.241  47.210  1.00  0.00     0.140 A 
HETATM   12  O   UNL     1       3.286  28.407  46.748  1.00  0.00    -0.277 OA
ENDROOT
BRANCH   7  13
HETATM   13  C   UNL     1       3.363  29.446  50.642  1.00  0.00    -0.027 A 
HETATM   14  C   UNL     1       4.321  30.371  50.226  1.00  0.00     0.124 A 
HETATM   15  N   UNL     1       4.986  31.211  51.050  1.00  0.00    -0.273 NA
HETATM   16  C   UNL     1       4.693  31.129  52.363  1.00  0.00     0.116 A 
HETATM   17  C   UNL     1       3.770  30.242  52.890  1.00  0.00     0.020 A 
HETATM   18  C   UNL     1       3.099  29.388  52.018  1.00  0.00     0.011 A 
ENDBRANCH   7  13
BRANCH  11  19
HETATM   19  N   UNL     1       1.623  29.915  46.189  1.00  0.00    -0.282 NA
HETATM   20  H   UNL     1       1.739  30.925  46.179  1.00  0.00     0.126 HD
HETATM   21  H   UNL     1       1.790  29.482  45.283  1.00  0.00     0.126 HD
ENDBRANCH  11  19
BRANCH   1  22
HETATM   22  C   UNL     1       4.989  26.449  50.914  1.00  0.00    -0.007 A 
HETATM   23  C   UNL     1       4.554  25.226  51.440  1.00  0.00     0.016 A 
HETATM   24  C   UNL     1       4.990  24.808  52.697  1.00  0.00     0.037 A 
HETATM   25  C   UNL     1       5.879  25.599  53.422  1.00  0.00     0.069 A 
HETATM   26  C   UNL     1       6.259  26.851  52.942  1.00  0.00     0.037 A 
HETATM   27  C   UNL     1       5.816  27.274  51.687  1.00  0.00     0.016 A 
BRANCH  25  28
HETATM   28  O   UNL     1       6.331  25.084  54.605  1.00  0.00    -0.347 OA
BRANCH  28  29
HETATM   29  C   UNL     1       7.703  24.669  54.536  1.00  0.00     0.214 C 
BRANCH  29  30
HETATM   30  C   UNL     1       7.765  23.166  54.407  1.00  0.00    -0.034 A 
HETATM   31  C   UNL     1       7.986  22.574  53.153  1.00  0.00     0.009 A 
HETATM   32  C   UNL     1       8.092  21.188  53.032  1.00  0.00     0.001 A 
HETATM   33  C   UNL     1       7.986  20.379  54.162  1.00  0.00     0.000 A 
HETATM   34  C   UNL     1       7.774  20.956  55.413  1.00  0.00     0.001 A 
HETATM   35  C   UNL     1       7.666  22.343  55.537  1.00  0.00     0.009 A 
ENDBRANCH  29  30
ENDBRANCH  28  29
ENDBRANCH  25  28
ENDBRANCH   1  22
TORSDOF 6
ENDMDL
MODEL 5
REMARK VINA RESULT:      -8.8      1.982      2.757
REMARK  6 active torsions:
REMARK  status: ('A' for Active; 'I' for Inactive)
REMARK    1  A    between atoms: C_4  and  C_5 
REMARK    2  A    between atoms: C_5  and  O_6 
REMARK    3  A    between atoms: O_6  and  C_7 
REMARK    4  A    between atoms: C_10  and  C_11 
REMARK    5  A    between atoms: C_17  and  C_18 
REMARK    6  A    between atoms: C_27  and  N_28 
ROOT
HETATM    1  C   UNL     1       4.805  29.629  57.354  1.00  0.00     0.072 A 
HETATM    2  N   UNL     1       4.009  29.837  58.461  1.00  0.00    -0.274 N 
HETATM    3  H   UNL     1       3.963  29.274  59.304  1.00  0.00     0.189 HD
HETATM    4  N   UNL     1       3.212  30.922  58.368  1.00  0.00    -0.148 NA
HETATM    5  C   UNL     1       3.527  31.404  57.171  1.00  0.00     0.199 A 
HETATM    6  C   UNL     1       4.492  30.662  56.487  1.00  0.00     0.040 A 
HETATM    7  C   UNL     1       4.930  31.059  55.120  1.00  0.00     0.107 A 
HETATM    8  C   UNL     1       4.202  32.318  54.661  1.00  0.00     0.081 A 
HETATM    9  C   UNL     1       4.580  32.846  53.390  1.00  0.00     0.100 C 
HETATM   10  N   UNL     1       4.887  33.269  52.355  1.00  0.00    -0.191 NA
HETATM   11  C   UNL     1       3.276  32.958  55.424  1.00  0.00     0.140 A 
HETATM   12  O   UNL     1       2.910  32.499  56.696  1.00  0.00    -0.277 OA
ENDROOT
BRANCH   7  13
HETATM   13  C   UNL     1       4.689  29.857  54.227  1.00  0.00    -0.027 A 
HETATM   14  C   UNL     1       3.393  29.552  53.811  1.00  0.00     0.124 A 
HETATM   15  N   UNL     1       3.068  28.514  53.008  1.00  0.00    -0.273 NA
HETATM   16  C   UNL     1       4.083  27.727  52.596  1.00  0.00     0.116 A 
HETATM   17  C   UNL     1       5.405  27.928  52.955  1.00  0.00     0.020 A 
HETATM   18  C   UNL     1       5.710  29.005  53.784  1.00  0.00     0.011 A 
ENDBRANCH   7  13
BRANCH  11  19
HETATM   19  N   UNL     1       2.604  34.104  55.058  1.00  0.00    -0.282 NA
HETATM   20  H   UNL     1       2.887  34.959  55.531  1.00  0.00     0.126 HD
HETATM   21  H   UNL     1       2.543  34.206  54.048  1.00  0.00     0.126 HD
ENDBRANCH  11  19
BRANCH   1  22
HETATM   22  C   UNL     1       5.685  28.482  57.197  1.00  0.00    -0.007 A 
HETATM   23  C   UNL     1       5.156  27.233  56.846  1.00  0.00     0.016 A 
HETATM   24  C   UNL     1       6.008  26.171  56.545  1.00  0.00     0.037 A 
HETATM   25  C   UNL     1       7.388  26.358  56.572  1.00  0.00     0.069 A 
HETATM   26  C   UNL     1       7.925  27.574  56.993  1.00  0.00     0.037 A 
HETATM   27  C   UNL     1       7.072  28.636  57.301  1.00  0.00     0.016 A 
BRANCH  25  28
HETATM   28  O   UNL     1       8.158  25.298  56.181  1.00  0.00    -0.347 OA
BRANCH  28  29
HETATM   29  C   UNL     1       7.561  24.035  56.506  1.00  0.00     0.214 C 
BRANCH  29  30
HETATM   30  C   UNL     1       7.728  23.088  55.341  1.00  0.00    -0.034 A 
HETATM   31  C   UNL     1       7.778  21.702  55.559  1.00  0.00     0.009 A 
HETATM   32  C   UNL     1       7.885  20.817  54.485  1.00  0.00     0.001 A 
HETATM   33  C   UNL     1       7.935  21.308  53.182  1.00  0.00     0.000 A 
HETATM   34  C   UNL     1       7.878  22.681  52.951  1.00  0.00     0.001 A 
HETATM   35  C   UNL     1       7.773  23.568  54.025  1.00  0.00     0.009 A 
ENDBRANCH  29  30
ENDBRANCH  28  29
ENDBRANCH  25  28
ENDBRANCH   1  22
TORSDOF 6
ENDMDL
MODEL 6
REMARK VINA RESULT:      -8.7     10.988     13.763
REMARK  6 active torsions:
REMARK  status: ('A' for Active; 'I' for Inactive)
REMARK    1  A    between atoms: C_4  and  C_5 
REMARK    2  A    between atoms: C_5  and  O_6 
REMARK    3  A    between atoms: O_6  and  C_7 
REMARK    4  A    between atoms: C_10  and  C_11 
REMARK    5  A    between atoms: C_17  and  C_18 
REMARK    6  A    between atoms: C_27  and  N_28 
ROOT
HETATM    1  C   UNL     1       6.683  33.030  63.382  1.00  0.00     0.072 A 
HETATM    2  N   UNL     1       7.900  32.424  63.154  1.00  0.00    -0.274 N 
HETATM    3  H   UNL     1       8.612  32.190  63.838  1.00  0.00     0.189 HD
HETATM    4  N   UNL     1       8.133  32.131  61.857  1.00  0.00    -0.148 NA
HETATM    5  C   UNL     1       7.025  32.562  61.266  1.00  0.00     0.199 A 
HETATM    6  C   UNL     1       6.092  33.132  62.133  1.00  0.00     0.040 A 
HETATM    7  C   UNL     1       4.811  33.688  61.617  1.00  0.00     0.107 A 
HETATM    8  C   UNL     1       4.717  33.521  60.104  1.00  0.00     0.081 A 
HETATM    9  C   UNL     1       3.505  33.953  59.488  1.00  0.00     0.100 C 
HETATM   10  N   UNL     1       2.520  34.309  58.991  1.00  0.00    -0.191 NA
HETATM   11  C   UNL     1       5.699  32.944  59.361  1.00  0.00     0.140 A 
HETATM   12  O   UNL     1       6.885  32.464  59.932  1.00  0.00    -0.277 OA
ENDROOT
BRANCH   7  13
HETATM   13  C   UNL     1       4.757  35.133  62.074  1.00  0.00    -0.027 A 
HETATM   14  C   UNL     1       3.573  35.648  62.603  1.00  0.00     0.124 A 
HETATM   15  N   UNL     1       3.418  36.915  63.050  1.00  0.00    -0.273 NA
HETATM   16  C   UNL     1       4.495  37.722  62.964  1.00  0.00     0.116 A 
HETATM   17  C   UNL     1       5.716  37.322  62.448  1.00  0.00     0.020 A 
HETATM   18  C   UNL     1       5.846  36.012  61.994  1.00  0.00     0.011 A 
ENDBRANCH   7  13
BRANCH  11  19
HETATM   19  N   UNL     1       5.654  32.758  57.996  1.00  0.00    -0.282 NA
HETATM   20  H   UNL     1       5.285  31.866  57.678  1.00  0.00     0.126 HD
HETATM   21  H   UNL     1       5.245  33.556  57.515  1.00  0.00     0.126 HD
ENDBRANCH  11  19
BRANCH   1  22
HETATM   22  C   UNL     1       6.250  33.506  64.686  1.00  0.00    -0.007 A 
HETATM   23  C   UNL     1       4.893  33.473  65.032  1.00  0.00     0.016 A 
HETATM   24  C   UNL     1       4.493  33.782  66.331  1.00  0.00     0.037 A 
HETATM   25  C   UNL     1       5.447  34.104  67.294  1.00  0.00     0.069 A 
HETATM   26  C   UNL     1       6.792  34.214  66.943  1.00  0.00     0.037 A 
HETATM   27  C   UNL     1       7.192  33.911  65.639  1.00  0.00     0.016 A 
BRANCH  25  28
HETATM   28  O   UNL     1       4.989  34.309  68.566  1.00  0.00    -0.347 OA
BRANCH  28  29
HETATM   29  C   UNL     1       5.952  34.972  69.397  1.00  0.00     0.214 C 
BRANCH  29  30
HETATM   30  C   UNL     1       6.596  33.964  70.319  1.00  0.00    -0.034 A 
HETATM   31  C   UNL     1       7.738  34.311  71.059  1.00  0.00     0.009 A 
HETATM   32  C   UNL     1       8.311  33.401  71.948  1.00  0.00     0.001 A 
HETATM   33  C   UNL     1       7.746  32.138  72.113  1.00  0.00     0.000 A 
HETATM   34  C   UNL     1       6.608  31.785  71.391  1.00  0.00     0.001 A 
HETATM   35  C   UNL     1       6.033  32.693  70.498  1.00  0.00     0.009 A 
ENDBRANCH  29  30
ENDBRANCH  28  29
ENDBRANCH  25  28
ENDBRANCH   1  22
TORSDOF 6
ENDMDL
MODEL 7
REMARK VINA RESULT:      -8.5      2.474      3.559
REMARK  6 active torsions:
REMARK  status: ('A' for Active; 'I' for Inactive)
REMARK    1  A    between atoms: C_4  and  C_5 
REMARK    2  A    between atoms: C_5  and  O_6 
REMARK    3  A    between atoms: O_6  and  C_7 
REMARK    4  A    between atoms: C_10  and  C_11 
REMARK    5  A    between atoms: C_17  and  C_18 
REMARK    6  A    between atoms: C_27  and  N_28 
ROOT
HETATM    1  C   UNL     1       4.430  29.538  53.121  1.00  0.00     0.072 A 
HETATM    2  N   UNL     1       3.647  30.132  54.088  1.00  0.00    -0.274 N 
HETATM    3  H   UNL     1       3.467  29.798  55.029  1.00  0.00     0.189 HD
HETATM    4  N   UNL     1       3.066  31.284  53.692  1.00  0.00    -0.148 NA
HETATM    5  C   UNL     1       3.507  31.411  52.446  1.00  0.00     0.199 A 
HETATM    6  C   UNL     1       4.344  30.377  52.022  1.00  0.00     0.040 A 
HETATM    7  C   UNL     1       4.897  30.362  50.640  1.00  0.00     0.107 A 
HETATM    8  C   UNL     1       4.430  31.582  49.855  1.00  0.00     0.081 A 
HETATM    9  C   UNL     1       4.944  31.725  48.532  1.00  0.00     0.100 C 
HETATM   10  N   UNL     1       5.361  31.836  47.455  1.00  0.00    -0.191 NA
HETATM   11  C   UNL     1       3.610  32.531  50.381  1.00  0.00     0.140 A 
HETATM   12  O   UNL     1       3.119  32.453  51.691  1.00  0.00    -0.277 OA
ENDROOT
BRANCH   7  13
HETATM   13  C   UNL     1       4.472  29.043  50.024  1.00  0.00    -0.027 A 
HETATM   14  C   UNL     1       3.139  28.843  49.664  1.00  0.00     0.124 A 
HETATM   15  N   UNL     1       2.657  27.714  49.098  1.00  0.00    -0.273 NA
HETATM   16  C   UNL     1       3.541  26.721  48.880  1.00  0.00     0.116 A 
HETATM   17  C   UNL     1       4.885  26.803  49.206  1.00  0.00     0.020 A 
HETATM   18  C   UNL     1       5.354  27.978  49.789  1.00  0.00     0.011 A 
ENDBRANCH   7  13
BRANCH  11  19
HETATM   19  N   UNL     1       3.173  33.657  49.717  1.00  0.00    -0.282 NA
HETATM   20  H   UNL     1       2.165  33.768  49.639  1.00  0.00     0.126 HD
HETATM   21  H   UNL     1       3.646  34.499  50.039  1.00  0.00     0.126 HD
ENDBRANCH  11  19
BRANCH   1  22
HETATM   22  C   UNL     1       5.090  28.254  53.294  1.00  0.00    -0.007 A 
HETATM   23  C   UNL     1       4.342  27.070  53.266  1.00  0.00     0.016 A 
HETATM   24  C   UNL     1       4.986  25.833  53.277  1.00  0.00     0.037 A 
HETATM   25  C   UNL     1       6.378  25.775  53.294  1.00  0.00     0.069 A 
HETATM   26  C   UNL     1       7.130  26.944  53.399  1.00  0.00     0.037 A 
HETATM   27  C   UNL     1       6.484  28.183  53.395  1.00  0.00     0.016 A 
BRANCH  25  28
HETATM   28  O   UNL     1       6.940  24.531  53.216  1.00  0.00    -0.347 OA
BRANCH  28  29
HETATM   29  C   UNL     1       7.039  23.890  54.495  1.00  0.00     0.214 C 
BRANCH  29  30
HETATM   30  C   UNL     1       7.666  22.526  54.325  1.00  0.00    -0.034 A 
HETATM   31  C   UNL     1       7.938  21.729  55.447  1.00  0.00     0.009 A 
HETATM   32  C   UNL     1       8.473  20.449  55.297  1.00  0.00     0.001 A 
HETATM   33  C   UNL     1       8.736  19.950  54.022  1.00  0.00     0.000 A 
HETATM   34  C   UNL     1       8.463  20.729  52.899  1.00  0.00     0.001 A 
HETATM   35  C   UNL     1       7.929  22.011  53.048  1.00  0.00     0.009 A 
ENDBRANCH  29  30
ENDBRANCH  28  29
ENDBRANCH  25  28
ENDBRANCH   1  22
TORSDOF 6
ENDMDL
MODEL 8
REMARK VINA RESULT:      -8.2      6.990     10.090
REMARK  6 active torsions:
REMARK  status: ('A' for Active; 'I' for Inactive)
REMARK    1  A    between atoms: C_4  and  C_5 
REMARK    2  A    between atoms: C_5  and  O_6 
REMARK    3  A    between atoms: O_6  and  C_7 
REMARK    4  A    between atoms: C_10  and  C_11 
REMARK    5  A    between atoms: C_17  and  C_18 
REMARK    6  A    between atoms: C_27  and  N_28 
ROOT
HETATM    1  C   UNL     1       8.680  31.040  58.969  1.00  0.00     0.072 A 
HETATM    2  N   UNL     1       9.948  31.471  58.642  1.00  0.00    -0.274 N 
HETATM    3  H   UNL     1      10.565  32.055  59.196  1.00  0.00     0.189 HD
HETATM    4  N   UNL     1      10.377  31.047  57.434  1.00  0.00    -0.148 NA
HETATM    5  C   UNL     1       9.347  30.328  57.003  1.00  0.00     0.199 A 
HETATM    6  C   UNL     1       8.267  30.282  57.886  1.00  0.00     0.040 A 
HETATM    7  C   UNL     1       7.026  29.539  57.533  1.00  0.00     0.107 A 
HETATM    8  C   UNL     1       7.153  28.889  56.159  1.00  0.00     0.081 A 
HETATM    9  C   UNL     1       6.055  28.088  55.728  1.00  0.00     0.100 C 
HETATM   10  N   UNL     1       5.158  27.441  55.379  1.00  0.00    -0.191 NA
HETATM   11  C   UNL     1       8.266  29.005  55.387  1.00  0.00     0.140 A 
HETATM   12  O   UNL     1       9.386  29.744  55.793  1.00  0.00    -0.277 OA
ENDROOT
BRANCH   7  13
HETATM   13  C   UNL     1       5.887  30.536  57.631  1.00  0.00    -0.027 A 
HETATM   14  C   UNL     1       5.939  31.721  56.896  1.00  0.00     0.124 A 
HETATM   15  N   UNL     1       4.976  32.670  56.900  1.00  0.00    -0.273 NA
HETATM   16  C   UNL     1       3.902  32.439  57.682  1.00  0.00     0.116 A 
HETATM   17  C   UNL     1       3.749  31.306  58.462  1.00  0.00     0.020 A 
HETATM   18  C   UNL     1       4.757  30.345  58.438  1.00  0.00     0.011 A 
ENDBRANCH   7  13
BRANCH  11  19
HETATM   19  N   UNL     1       8.434  28.426  54.147  1.00  0.00    -0.282 NA
HETATM   20  H   UNL     1       9.318  28.614  53.681  1.00  0.00     0.126 HD
HETATM   21  H   UNL     1       8.183  27.440  54.149  1.00  0.00     0.126 HD
ENDBRANCH  11  19
BRANCH   1  22
HETATM   22  C   UNL     1       7.982  31.435  60.182  1.00  0.00    -0.007 A 
HETATM   23  C   UNL     1       6.957  32.387  60.125  1.00  0.00     0.016 A 
HETATM   24  C   UNL     1       6.184  32.655  61.254  1.00  0.00     0.037 A 
HETATM   25  C   UNL     1       6.419  31.957  62.437  1.00  0.00     0.069 A 
HETATM   26  C   UNL     1       7.484  31.062  62.527  1.00  0.00     0.037 A 
HETATM   27  C   UNL     1       8.263  30.800  61.397  1.00  0.00     0.016 A 
BRANCH  25  28
HETATM   28  O   UNL     1       5.567  32.208  63.476  1.00  0.00    -0.347 OA
BRANCH  28  29
HETATM   29  C   UNL     1       5.444  33.609  63.760  1.00  0.00     0.214 C 
BRANCH  29  30
HETATM   30  C   UNL     1       5.531  33.827  65.252  1.00  0.00    -0.034 A 
HETATM   31  C   UNL     1       6.783  33.935  65.878  1.00  0.00     0.009 A 
HETATM   32  C   UNL     1       6.873  34.183  67.248  1.00  0.00     0.001 A 
HETATM   33  C   UNL     1       5.713  34.333  68.006  1.00  0.00     0.000 A 
HETATM   34  C   UNL     1       4.464  34.236  67.395  1.00  0.00     0.001 A 
HETATM   35  C   UNL     1       4.372  33.986  66.024  1.00  0.00     0.009 A 
ENDBRANCH  29  30
ENDBRANCH  28  29
ENDBRANCH  25  28
ENDBRANCH   1  22
TORSDOF 6
ENDMDL
MODEL 9
REMARK VINA RESULT:      -8.2      3.143      7.744
REMARK  6 active torsions:
REMARK  status: ('A' for Active; 'I' for Inactive)
REMARK    1  A    between atoms: C_4  and  C_5 
REMARK    2  A    between atoms: C_5  and  O_6 
REMARK    3  A    between atoms: O_6  and  C_7 
REMARK    4  A    between atoms: C_10  and  C_11 
REMARK    5  A    between atoms: C_17  and  C_18 
REMARK    6  A    between atoms: C_27  and  N_28 
ROOT
HETATM    1  C   UNL     1       5.264  26.973  53.812  1.00  0.00     0.072 A 
HETATM    2  N   UNL     1       4.940  25.639  53.685  1.00  0.00    -0.274 N 
HETATM    3  H   UNL     1       4.414  25.198  52.938  1.00  0.00     0.189 HD
HETATM    4  N   UNL     1       5.390  24.867  54.697  1.00  0.00    -0.148 NA
HETATM    5  C   UNL     1       6.016  25.747  55.469  1.00  0.00     0.199 A 
HETATM    6  C   UNL     1       5.977  27.060  54.996  1.00  0.00     0.040 A 
HETATM    7  C   UNL     1       6.608  28.166  55.766  1.00  0.00     0.107 A 
HETATM    8  C   UNL     1       7.257  27.639  57.042  1.00  0.00     0.081 A 
HETATM    9  C   UNL     1       7.959  28.590  57.841  1.00  0.00     0.100 C 
HETATM   10  N   UNL     1       8.525  29.367  58.490  1.00  0.00    -0.191 NA
HETATM   11  C   UNL     1       7.231  26.327  57.397  1.00  0.00     0.140 A 
HETATM   12  O   UNL     1       6.592  25.353  56.618  1.00  0.00    -0.277 OA
ENDROOT
BRANCH   7  13
HETATM   13  C   UNL     1       5.519  29.191  56.016  1.00  0.00    -0.027 A 
HETATM   14  C   UNL     1       5.735  30.528  55.681  1.00  0.00     0.124 A 
HETATM   15  N   UNL     1       4.830  31.518  55.849  1.00  0.00    -0.273 NA
HETATM   16  C   UNL     1       3.644  31.169  56.387  1.00  0.00     0.116 A 
HETATM   17  C   UNL     1       3.324  29.876  56.768  1.00  0.00     0.020 A 
HETATM   18  C   UNL     1       4.275  28.877  56.583  1.00  0.00     0.011 A 
ENDBRANCH   7  13
BRANCH  11  19
HETATM   19  N   UNL     1       7.813  25.802  58.531  1.00  0.00    -0.282 NA
HETATM   20  H   UNL     1       8.488  25.056  58.383  1.00  0.00     0.126 HD
HETATM   21  H   UNL     1       8.148  26.528  59.160  1.00  0.00     0.126 HD
ENDBRANCH  11  19
BRANCH   1  22
HETATM   22  C   UNL     1       4.820  28.002  52.886  1.00  0.00    -0.007 A 
HETATM   23  C   UNL     1       5.728  28.582  51.990  1.00  0.00     0.016 A 
HETATM   24  C   UNL     1       5.277  29.454  51.000  1.00  0.00     0.037 A 
HETATM   25  C   UNL     1       3.917  29.733  50.888  1.00  0.00     0.069 A 
HETATM   26  C   UNL     1       3.014  29.223  51.819  1.00  0.00     0.037 A 
HETATM   27  C   UNL     1       3.467  28.354  52.815  1.00  0.00     0.016 A 
BRANCH  25  28
HETATM   28  O   UNL     1       3.539  30.527  49.840  1.00  0.00    -0.347 OA
BRANCH  28  29
HETATM   29  C   UNL     1       4.057  30.064  48.585  1.00  0.00     0.214 C 
BRANCH  29  30
HETATM   30  C   UNL     1       3.342  28.795  48.186  1.00  0.00    -0.034 A 
HETATM   31  C   UNL     1       4.075  27.634  47.893  1.00  0.00     0.009 A 
HETATM   32  C   UNL     1       3.422  26.444  47.569  1.00  0.00     0.001 A 
HETATM   33  C   UNL     1       2.030  26.400  47.542  1.00  0.00     0.000 A 
HETATM   34  C   UNL     1       1.290  27.544  47.839  1.00  0.00     0.001 A 
HETATM   35  C   UNL     1       1.942  28.736  48.161  1.00  0.00     0.009 A 
ENDBRANCH  29  30
ENDBRANCH  28  29
ENDBRANCH  25  28
ENDBRANCH   1  22
TORSDOF 6
ENDMDL
MODEL 10
REMARK VINA RESULT:      -8.1      7.005      9.231
REMARK  6 active torsions:
REMARK  status: ('A' for Active; 'I' for Inactive)
REMARK    1  A    between atoms: C_4  and  C_5 
REMARK    2  A    between atoms: C_5  and  O_6 
REMARK    3  A    between atoms: O_6  and  C_7 
REMARK    4  A    between atoms: C_10  and  C_11 
REMARK    5  A    between atoms: C_17  and  C_18 
REMARK    6  A    between atoms: C_27  and  N_28 
ROOT
HETATM    1  C   UNL     1       7.571  32.827  62.475  1.00  0.00     0.072 A 
HETATM    2  N   UNL     1       7.974  32.478  63.746  1.00  0.00    -0.274 N 
HETATM    3  H   UNL     1       8.665  31.782  64.007  1.00  0.00     0.189 HD
HETATM    4  N   UNL     1       7.348  33.162  64.727  1.00  0.00    -0.148 NA
HETATM    5  C   UNL     1       6.538  33.962  64.044  1.00  0.00     0.199 A 
HETATM    6  C   UNL     1       6.613  33.811  62.658  1.00  0.00     0.040 A 
HETATM    7  C   UNL     1       5.746  34.616  61.755  1.00  0.00     0.107 A 
HETATM    8  C   UNL     1       4.854  35.559  62.557  1.00  0.00     0.081 A 
HETATM    9  C   UNL     1       4.019  36.439  61.807  1.00  0.00     0.100 C 
HETATM   10  N   UNL     1       3.338  37.150  61.194  1.00  0.00    -0.191 NA
HETATM   11  C   UNL     1       4.873  35.617  63.915  1.00  0.00     0.140 A 
HETATM   12  O   UNL     1       5.711  34.803  64.688  1.00  0.00    -0.277 OA
ENDROOT
BRANCH   7  13
HETATM   13  C   UNL     1       4.975  33.625  60.905  1.00  0.00    -0.027 A 
HETATM   14  C   UNL     1       5.106  33.654  59.516  1.00  0.00     0.124 A 
HETATM   15  N   UNL     1       4.476  32.812  58.668  1.00  0.00    -0.273 NA
HETATM   16  C   UNL     1       3.663  31.890  59.222  1.00  0.00     0.116 A 
HETATM   17  C   UNL     1       3.448  31.776  60.585  1.00  0.00     0.020 A 
HETATM   18  C   UNL     1       4.110  32.658  61.436  1.00  0.00     0.011 A 
ENDBRANCH   7  13
BRANCH  11  19
HETATM   19  N   UNL     1       4.097  36.460  64.682  1.00  0.00    -0.282 NA
HETATM   20  H   UNL     1       4.473  36.707  65.595  1.00  0.00     0.126 HD
HETATM   21  H   UNL     1       3.768  37.264  64.152  1.00  0.00     0.126 HD
ENDBRANCH  11  19
BRANCH   1  22
HETATM   22  C   UNL     1       8.049  32.171  61.269  1.00  0.00    -0.007 A 
HETATM   23  C   UNL     1       7.232  31.253  60.596  1.00  0.00     0.016 A 
HETATM   24  C   UNL     1       7.624  30.740  59.360  1.00  0.00     0.037 A 
HETATM   25  C   UNL     1       8.821  31.157  58.783  1.00  0.00     0.069 A 
HETATM   26  C   UNL     1       9.677  32.010  59.477  1.00  0.00     0.037 A 
HETATM   27  C   UNL     1       9.288  32.519  60.718  1.00  0.00     0.016 A 
BRANCH  25  28
HETATM   28  O   UNL     1       9.097  30.678  57.532  1.00  0.00    -0.347 OA
BRANCH  28  29
HETATM   29  C   UNL     1       9.615  29.341  57.556  1.00  0.00     0.214 C 
BRANCH  29  30
HETATM   30  C   UNL     1       8.748  28.453  56.695  1.00  0.00    -0.034 A 
HETATM   31  C   UNL     1       8.379  28.863  55.405  1.00  0.00     0.009 A 
HETATM   32  C   UNL     1       7.617  28.029  54.585  1.00  0.00     0.001 A 
HETATM   33  C   UNL     1       7.223  26.774  55.043  1.00  0.00     0.000 A 
HETATM   34  C   UNL     1       7.590  26.352  56.320  1.00  0.00     0.001 A 
HETATM   35  C   UNL     1       8.350  27.185  57.143  1.00  0.00     0.009 A 
ENDBRANCH  29  30
ENDBRANCH  28  29
ENDBRANCH  25  28
ENDBRANCH   1  22
TORSDOF 6
ENDMDL
