MODEL 1
REMARK VINA RESULT:     -10.0      0.000      0.000
REMARK  7 active torsions:
REMARK  status: ('A' for Active; 'I' for Inactive)
REMARK    1  A    between atoms: C_2  and  O_3 
REMARK    2  A    between atoms: O_3  and  C_4 
REMARK    3  A    between atoms: C_7  and  N_8 
REMARK    4  A    between atoms: C_9  and  O_10 
REMARK    5  A    between atoms: C_9  and  C_11 
REMARK       I    between atoms: C_11  and  N_12 
REMARK    6  A    between atoms: N_12  and  C_13 
REMARK    7  A    between atoms: C_13  and  C_14 
ROOT
HETATM    1  N   UNL     1       5.972  28.448  55.902  1.00  0.00    -0.254 N 
HETATM    2  C   UNL     1       6.849  27.438  55.284  1.00  0.00     0.256 C 
HETATM    3  C   UNL     1       6.339  26.982  53.936  1.00  0.00     0.034 A 
HETATM    4  C   UNL     1       4.964  27.012  53.723  1.00  0.00     0.048 A 
HETATM    5  N   UNL     1       4.151  27.539  54.723  1.00  0.00    -0.308 N 
HETATM    6  C   UNL     1       4.595  28.294  55.781  1.00  0.00     0.330 C 
HETATM    7  O   UNL     1       3.744  28.821  56.495  1.00  0.00    -0.246 OA
HETATM    8  C   UNL     1       7.166  26.447  52.935  1.00  0.00     0.015 A 
HETATM    9  C   UNL     1       6.615  25.968  51.746  1.00  0.00     0.001 A 
HETATM   10  C   UNL     1       5.234  25.999  51.555  1.00  0.00     0.002 A 
HETATM   11  C   UNL     1       4.403  26.515  52.549  1.00  0.00     0.030 A 
HETATM   12  H   UNL     1       3.147  27.565  54.595  1.00  0.00     0.170 HD
ENDROOT
BRANCH   2  13
HETATM   13  O   UNL     1       8.165  27.960  55.070  1.00  0.00    -0.359 OA
HETATM   14  H   UNL     1       8.761  27.232  55.337  1.00  0.00     0.213 HD
ENDBRANCH   2  13
BRANCH   2  15
HETATM   15  C   UNL     1       6.970  26.203  56.276  1.00  0.00     0.279 C 
HETATM   16  N   UNL     1       8.192  25.569  56.358  1.00  0.00    -0.352 N 
HETATM   17  H   UNL     1       8.991  25.949  55.863  1.00  0.00     0.162 HD
HETATM   18  O   UNL     1       5.995  25.822  56.934  1.00  0.00    -0.268 OA
BRANCH  16  19
HETATM   19  C   UNL     1       8.418  24.487  57.284  1.00  0.00     0.161 C 
BRANCH  19  20
HETATM   20  C   UNL     1       8.495  23.172  56.556  1.00  0.00    -0.038 A 
HETATM   21  C   UNL     1       8.651  23.145  55.160  1.00  0.00     0.048 A 
HETATM   22  C   UNL     1       8.688  21.917  54.532  1.00  0.00     0.105 A 
HETATM   23  C   UNL     1       8.571  20.741  55.233  1.00  0.00     0.105 A 
HETATM   24  O   UNL     1       8.835  21.712  53.195  1.00  0.00    -0.323 OA
HETATM   25  O   UNL     1       8.632  19.648  54.426  1.00  0.00    -0.323 OA
HETATM   26  C   UNL     1       8.403  20.725  56.600  1.00  0.00     0.040 A 
HETATM   27  C   UNL     1       8.816  20.270  53.138  1.00  0.00     0.352 A 
HETATM   28  C   UNL     1       8.361  21.956  57.265  1.00  0.00     0.012 A 
ENDBRANCH  19  20
ENDBRANCH  16  19
ENDBRANCH   2  15
BRANCH   1  29
HETATM   29  C   UNL     1       6.510  29.309  56.910  1.00  0.00     0.043 A 
HETATM   30  C   UNL     1       7.469  28.866  57.827  1.00  0.00     0.032 A 
HETATM   31  C   UNL     1       7.978  29.729  58.810  1.00  0.00     0.039 A 
HETATM   32  C   UNL     1       7.521  31.042  58.895  1.00  0.00     0.068 A 
HETATM   33  C   UNL     1       6.536  31.477  58.012  1.00  0.00     0.039 A 
HETATM   34  C   UNL     1       6.035  30.620  57.029  1.00  0.00     0.032 A 
BRANCH  32  35
HETATM   35  O   UNL     1       7.929  31.983  59.799  1.00  0.00    -0.352 OA
BRANCH  35  36
HETATM   36  C   UNL     1       9.330  32.060  60.060  1.00  0.00     0.171 C 
HETATM   37  C   UNL     1       9.545  31.698  61.519  1.00  0.00     0.034 C 
ENDBRANCH  35  36
ENDBRANCH  32  35
ENDBRANCH   1  29
TORSDOF 7
ENDMDL
MODEL 2
REMARK VINA RESULT:     -10.0      3.482      7.135
REMARK  7 active torsions:
REMARK  status: ('A' for Active; 'I' for Inactive)
REMARK    1  A    between atoms: C_2  and  O_3 
REMARK    2  A    between atoms: O_3  and  C_4 
REMARK    3  A    between atoms: C_7  and  N_8 
REMARK    4  A    between atoms: C_9  and  O_10 
REMARK    5  A    between atoms: C_9  and  C_11 
REMARK       I    between atoms: C_11  and  N_12 
REMARK    6  A    between atoms: N_12  and  C_13 
REMARK    7  A    between atoms: C_13  and  C_14 
ROOT
HETATM    1  N   UNL     1       4.710  28.175  52.024  1.00  0.00    -0.254 N 
HETATM    2  C   UNL     1       4.668  27.054  52.979  1.00  0.00     0.256 C 
HETATM    3  C   UNL     1       5.291  27.410  54.310  1.00  0.00     0.034 A 
HETATM    4  C   UNL     1       6.309  28.358  54.312  1.00  0.00     0.048 A 
HETATM    5  N   UNL     1       6.632  28.985  53.111  1.00  0.00    -0.308 N 
HETATM    6  C   UNL     1       5.853  28.966  51.980  1.00  0.00     0.330 C 
HETATM    7  O   UNL     1       6.192  29.695  51.049  1.00  0.00    -0.246 OA
HETATM    8  C   UNL     1       4.962  26.769  55.515  1.00  0.00     0.015 A 
HETATM    9  C   UNL     1       5.639  27.091  56.692  1.00  0.00     0.001 A 
HETATM   10  C   UNL     1       6.662  28.038  56.673  1.00  0.00     0.002 A 
HETATM   11  C   UNL     1       7.006  28.670  55.478  1.00  0.00     0.030 A 
HETATM   12  H   UNL     1       7.374  29.673  53.085  1.00  0.00     0.170 HD
ENDROOT
BRANCH   2  13
HETATM   13  O   UNL     1       3.319  26.659  53.250  1.00  0.00    -0.359 OA
HETATM   14  H   UNL     1       2.965  26.390  52.379  1.00  0.00     0.213 HD
ENDBRANCH   2  13
BRANCH   2  15
HETATM   15  C   UNL     1       5.418  25.813  52.331  1.00  0.00     0.279 C 
HETATM   16  N   UNL     1       6.790  25.758  52.462  1.00  0.00    -0.352 N 
HETATM   17  H   UNL     1       7.270  26.447  53.029  1.00  0.00     0.162 HD
HETATM   18  O   UNL     1       4.789  24.941  51.721  1.00  0.00    -0.268 OA
BRANCH  16  19
HETATM   19  C   UNL     1       7.548  24.634  51.972  1.00  0.00     0.161 C 
BRANCH  19  20
HETATM   20  C   UNL     1       7.903  23.701  53.098  1.00  0.00    -0.038 A 
HETATM   21  C   UNL     1       8.017  22.320  52.862  1.00  0.00     0.048 A 
HETATM   22  C   UNL     1       8.316  21.500  53.930  1.00  0.00     0.105 A 
HETATM   23  C   UNL     1       8.494  21.997  55.199  1.00  0.00     0.105 A 
HETATM   24  O   UNL     1       8.464  20.148  53.877  1.00  0.00    -0.323 OA
HETATM   25  O   UNL     1       8.780  21.022  56.103  1.00  0.00    -0.323 OA
HETATM   26  C   UNL     1       8.378  23.342  55.473  1.00  0.00     0.040 A 
HETATM   27  C   UNL     1       8.775  19.855  55.255  1.00  0.00     0.352 A 
HETATM   28  C   UNL     1       8.075  24.199  54.410  1.00  0.00     0.012 A 
ENDBRANCH  19  20
ENDBRANCH  16  19
ENDBRANCH   2  15
BRANCH   1  29
HETATM   29  C   UNL     1       3.789  28.188  50.929  1.00  0.00     0.043 A 
HETATM   30  C   UNL     1       4.045  27.498  49.739  1.00  0.00     0.032 A 
HETATM   31  C   UNL     1       3.127  27.529  48.677  1.00  0.00     0.039 A 
HETATM   32  C   UNL     1       1.949  28.264  48.790  1.00  0.00     0.068 A 
HETATM   33  C   UNL     1       1.708  28.986  49.957  1.00  0.00     0.039 A 
HETATM   34  C   UNL     1       2.618  28.948  51.015  1.00  0.00     0.032 A 
BRANCH  32  35
HETATM   35  O   UNL     1       0.974  28.379  47.839  1.00  0.00    -0.352 OA
BRANCH  35  36
HETATM   36  C   UNL     1       0.948  27.381  46.820  1.00  0.00     0.171 C 
HETATM   37  C   UNL     1      -0.318  27.588  46.007  1.00  0.00     0.034 C 
ENDBRANCH  35  36
ENDBRANCH  32  35
ENDBRANCH   1  29
TORSDOF 7
ENDMDL
MODEL 3
REMARK VINA RESULT:      -9.9      2.210      8.500
REMARK  7 active torsions:
REMARK  status: ('A' for Active; 'I' for Inactive)
REMARK    1  A    between atoms: C_2  and  O_3 
REMARK    2  A    between atoms: O_3  and  C_4 
REMARK    3  A    between atoms: C_7  and  N_8 
REMARK    4  A    between atoms: C_9  and  O_10 
REMARK    5  A    between atoms: C_9  and  C_11 
REMARK       I    between atoms: C_11  and  N_12 
REMARK    6  A    between atoms: N_12  and  C_13 
REMARK    7  A    between atoms: C_13  and  C_14 
ROOT
HETATM    1  N   UNL     1       6.191  27.540  55.446  1.00  0.00    -0.254 N 
HETATM    2  C   UNL     1       5.758  28.505  56.472  1.00  0.00     0.256 C 
HETATM    3  C   UNL     1       4.713  29.466  55.951  1.00  0.00     0.034 A 
HETATM    4  C   UNL     1       4.741  29.775  54.595  1.00  0.00     0.048 A 
HETATM    5  N   UNL     1       5.666  29.120  53.786  1.00  0.00    -0.308 N 
HETATM    6  C   UNL     1       6.361  27.991  54.142  1.00  0.00     0.330 C 
HETATM    7  O   UNL     1       7.023  27.436  53.266  1.00  0.00    -0.246 OA
HETATM    8  C   UNL     1       3.787  30.125  56.775  1.00  0.00     0.015 A 
HETATM    9  C   UNL     1       2.906  31.063  56.237  1.00  0.00     0.001 A 
HETATM   10  C   UNL     1       2.955  31.366  54.876  1.00  0.00     0.002 A 
HETATM   11  C   UNL     1       3.881  30.728  54.052  1.00  0.00     0.030 A 
HETATM   12  H   UNL     1       5.711  29.334  52.797  1.00  0.00     0.170 HD
ENDROOT
BRANCH   2  13
HETATM   13  O   UNL     1       5.175  27.835  57.596  1.00  0.00    -0.359 OA
HETATM   14  H   UNL     1       5.460  28.364  58.367  1.00  0.00     0.213 HD
ENDBRANCH   2  13
BRANCH   2  15
HETATM   15  C   UNL     1       7.033  29.300  56.986  1.00  0.00     0.279 C 
HETATM   16  N   UNL     1       7.194  29.433  58.349  1.00  0.00    -0.352 N 
HETATM   17  H   UNL     1       6.559  28.958  58.980  1.00  0.00     0.162 HD
HETATM   18  O   UNL     1       7.837  29.791  56.186  1.00  0.00    -0.268 OA
BRANCH  16  19
HETATM   19  C   UNL     1       8.357  30.074  58.911  1.00  0.00     0.161 C 
BRANCH  19  20
HETATM   20  C   UNL     1       7.966  30.992  60.038  1.00  0.00    -0.038 A 
HETATM   21  C   UNL     1       6.881  31.871  59.889  1.00  0.00     0.048 A 
HETATM   22  C   UNL     1       6.577  32.714  60.938  1.00  0.00     0.105 A 
HETATM   23  C   UNL     1       7.307  32.716  62.102  1.00  0.00     0.105 A 
HETATM   24  O   UNL     1       5.563  33.621  60.961  1.00  0.00    -0.323 OA
HETATM   25  O   UNL     1       6.843  33.620  63.005  1.00  0.00    -0.323 OA
HETATM   26  C   UNL     1       8.386  31.878  62.282  1.00  0.00     0.040 A 
HETATM   27  C   UNL     1       5.728  34.179  62.281  1.00  0.00     0.352 A 
HETATM   28  C   UNL     1       8.719  31.012  61.235  1.00  0.00     0.012 A 
ENDBRANCH  19  20
ENDBRANCH  16  19
ENDBRANCH   2  15
BRANCH   1  29
HETATM   29  C   UNL     1       6.793  26.310  55.862  1.00  0.00     0.043 A 
HETATM   30  C   UNL     1       7.939  26.281  56.663  1.00  0.00     0.032 A 
HETATM   31  C   UNL     1       8.512  25.060  57.054  1.00  0.00     0.039 A 
HETATM   32  C   UNL     1       7.952  23.856  56.636  1.00  0.00     0.068 A 
HETATM   33  C   UNL     1       6.835  23.879  55.805  1.00  0.00     0.039 A 
HETATM   34  C   UNL     1       6.260  25.093  55.421  1.00  0.00     0.032 A 
BRANCH  32  35
HETATM   35  O   UNL     1       8.407  22.604  56.942  1.00  0.00    -0.352 OA
BRANCH  35  36
HETATM   36  C   UNL     1       8.686  21.734  55.847  1.00  0.00     0.171 C 
HETATM   37  C   UNL     1       7.999  20.409  56.125  1.00  0.00     0.034 C 
ENDBRANCH  35  36
ENDBRANCH  32  35
ENDBRANCH   1  29
TORSDOF 7
ENDMDL
MODEL 4
REMARK VINA RESULT:      -9.9      1.937      8.071
REMARK  7 active torsions:
REMARK  status: ('A' for Active; 'I' for Inactive)
REMARK    1  A    between atoms: C_2  and  O_3 
REMARK    2  A    between atoms: O_3  and  C_4 
REMARK    3  A    between atoms: C_7  and  N_8 
REMARK    4  A    between atoms: C_9  and  O_10 
REMARK    5  A    between atoms: C_9  and  C_11 
REMARK       I    between atoms: C_11  and  N_12 
REMARK    6  A    between atoms: N_12  and  C_13 
REMARK    7  A    between atoms: C_13  and  C_14 
ROOT
HETATM    1  N   UNL     1       5.735  27.302  53.695  1.00  0.00    -0.254 N 
HETATM    2  C   UNL     1       5.740  27.789  55.085  1.00  0.00     0.256 C 
HETATM    3  C   UNL     1       4.756  28.916  55.302  1.00  0.00     0.034 A 
HETATM    4  C   UNL     1       4.474  29.743  54.219  1.00  0.00     0.048 A 
HETATM    5  N   UNL     1       5.042  29.434  52.986  1.00  0.00    -0.308 N 
HETATM    6  C   UNL     1       5.624  28.232  52.667  1.00  0.00     0.330 C 
HETATM    7  O   UNL     1       5.939  28.052  51.492  1.00  0.00    -0.246 OA
HETATM    8  C   UNL     1       4.192  29.223  56.551  1.00  0.00     0.015 A 
HETATM    9  C   UNL     1       3.355  30.330  56.694  1.00  0.00     0.001 A 
HETATM   10  C   UNL     1       3.091  31.152  55.599  1.00  0.00     0.002 A 
HETATM   11  C   UNL     1       3.659  30.864  54.358  1.00  0.00     0.030 A 
HETATM   12  H   UNL     1       4.858  30.025  52.184  1.00  0.00     0.170 HD
ENDROOT
BRANCH   2  13
HETATM   13  O   UNL     1       5.377  26.746  55.998  1.00  0.00    -0.359 OA
HETATM   14  H   UNL     1       5.164  27.215  56.829  1.00  0.00     0.213 HD
ENDBRANCH   2  13
BRANCH   2  15
HETATM   15  C   UNL     1       7.212  28.263  55.448  1.00  0.00     0.279 C 
HETATM   16  N   UNL     1       7.708  27.911  56.686  1.00  0.00    -0.352 N 
HETATM   17  H   UNL     1       7.171  27.298  57.288  1.00  0.00     0.162 HD
HETATM   18  O   UNL     1       7.874  28.936  54.650  1.00  0.00    -0.268 OA
BRANCH  16  19
HETATM   19  C   UNL     1       9.059  28.232  57.074  1.00  0.00     0.161 C 
BRANCH  19  20
HETATM   20  C   UNL     1       9.091  29.497  57.889  1.00  0.00    -0.038 A 
HETATM   21  C   UNL     1       8.030  29.807  58.756  1.00  0.00     0.048 A 
HETATM   22  C   UNL     1       8.089  30.991  59.461  1.00  0.00     0.105 A 
HETATM   23  C   UNL     1       9.144  31.862  59.328  1.00  0.00     0.105 A 
HETATM   24  O   UNL     1       7.154  31.440  60.341  1.00  0.00    -0.323 OA
HETATM   25  O   UNL     1       9.006  32.967  60.108  1.00  0.00    -0.323 OA
HETATM   26  C   UNL     1      10.196  31.602  58.478  1.00  0.00     0.040 A 
HETATM   27  C   UNL     1       7.750  32.685  60.760  1.00  0.00     0.352 A 
HETATM   28  C   UNL     1      10.164  30.408  57.749  1.00  0.00     0.012 A 
ENDBRANCH  19  20
ENDBRANCH  16  19
ENDBRANCH   2  15
BRANCH   1  29
HETATM   29  C   UNL     1       6.228  25.987  53.420  1.00  0.00     0.043 A 
HETATM   30  C   UNL     1       5.370  24.918  53.143  1.00  0.00     0.032 A 
HETATM   31  C   UNL     1       5.879  23.636  52.880  1.00  0.00     0.039 A 
HETATM   32  C   UNL     1       7.253  23.408  52.905  1.00  0.00     0.068 A 
HETATM   33  C   UNL     1       8.110  24.459  53.220  1.00  0.00     0.039 A 
HETATM   34  C   UNL     1       7.604  25.736  53.475  1.00  0.00     0.032 A 
BRANCH  32  35
HETATM   35  O   UNL     1       7.878  22.216  52.669  1.00  0.00    -0.352 OA
BRANCH  35  36
HETATM   36  C   UNL     1       8.720  21.714  53.704  1.00  0.00     0.171 C 
HETATM   37  C   UNL     1       7.897  20.750  54.539  1.00  0.00     0.034 C 
ENDBRANCH  35  36
ENDBRANCH  32  35
ENDBRANCH   1  29
TORSDOF 7
ENDMDL
MODEL 5
REMARK VINA RESULT:      -9.5      2.947      6.472
REMARK  7 active torsions:
REMARK  status: ('A' for Active; 'I' for Inactive)
REMARK    1  A    between atoms: C_2  and  O_3 
REMARK    2  A    between atoms: O_3  and  C_4 
REMARK    3  A    between atoms: C_7  and  N_8 
REMARK    4  A    between atoms: C_9  and  O_10 
REMARK    5  A    between atoms: C_9  and  C_11 
REMARK       I    between atoms: C_11  and  N_12 
REMARK    6  A    between atoms: N_12  and  C_13 
REMARK    7  A    between atoms: C_13  and  C_14 
ROOT
HETATM    1  N   UNL     1       5.679  27.991  55.041  1.00  0.00    -0.254 N 
HETATM    2  C   UNL     1       6.817  27.793  54.126  1.00  0.00     0.256 C 
HETATM    3  C   UNL     1       6.927  26.363  53.649  1.00  0.00     0.034 A 
HETATM    4  C   UNL     1       6.467  25.362  54.499  1.00  0.00     0.048 A 
HETATM    5  N   UNL     1       5.854  25.738  55.691  1.00  0.00    -0.308 N 
HETATM    6  C   UNL     1       5.405  27.003  55.980  1.00  0.00     0.330 C 
HETATM    7  O   UNL     1       4.744  27.146  57.008  1.00  0.00    -0.246 OA
HETATM    8  C   UNL     1       7.550  25.993  52.446  1.00  0.00     0.015 A 
HETATM    9  C   UNL     1       7.691  24.647  52.109  1.00  0.00     0.001 A 
HETATM   10  C   UNL     1       7.230  23.658  52.978  1.00  0.00     0.002 A 
HETATM   11  C   UNL     1       6.623  24.015  54.182  1.00  0.00     0.030 A 
HETATM   12  H   UNL     1       5.518  25.028  56.331  1.00  0.00     0.170 HD
ENDROOT
BRANCH   2  13
HETATM   13  O   UNL     1       6.683  28.607  52.955  1.00  0.00    -0.359 OA
HETATM   14  H   UNL     1       6.121  29.354  53.242  1.00  0.00     0.213 HD
ENDBRANCH   2  13
BRANCH   2  15
HETATM   15  C   UNL     1       8.147  28.231  54.874  1.00  0.00     0.279 C 
HETATM   16  N   UNL     1       8.293  27.851  56.191  1.00  0.00    -0.352 N 
HETATM   17  H   UNL     1       7.606  27.240  56.618  1.00  0.00     0.162 HD
HETATM   18  O   UNL     1       9.008  28.902  54.292  1.00  0.00    -0.268 OA
BRANCH  16  19
HETATM   19  C   UNL     1       9.497  28.138  56.929  1.00  0.00     0.161 C 
BRANCH  19  20
HETATM   20  C   UNL     1       9.342  29.404  57.729  1.00  0.00    -0.038 A 
HETATM   21  C   UNL     1       8.174  29.628  58.477  1.00  0.00     0.048 A 
HETATM   22  C   UNL     1       8.063  30.815  59.172  1.00  0.00     0.105 A 
HETATM   23  C   UNL     1       9.052  31.769  59.140  1.00  0.00     0.105 A 
HETATM   24  O   UNL     1       7.007  31.189  59.944  1.00  0.00    -0.323 OA
HETATM   25  O   UNL     1       8.744  32.861  59.890  1.00  0.00    -0.323 OA
HETATM   26  C   UNL     1      10.205  31.593  58.407  1.00  0.00     0.040 A 
HETATM   27  C   UNL     1       7.454  32.479  60.409  1.00  0.00     0.352 A 
HETATM   28  C   UNL     1      10.347  30.399  57.692  1.00  0.00     0.012 A 
ENDBRANCH  19  20
ENDBRANCH  16  19
ENDBRANCH   2  15
BRANCH   1  29
HETATM   29  C   UNL     1       5.150  29.309  55.214  1.00  0.00     0.043 A 
HETATM   30  C   UNL     1       5.759  30.246  56.056  1.00  0.00     0.032 A 
HETATM   31  C   UNL     1       5.218  31.533  56.212  1.00  0.00     0.039 A 
HETATM   32  C   UNL     1       4.052  31.889  55.538  1.00  0.00     0.068 A 
HETATM   33  C   UNL     1       3.419  30.947  54.731  1.00  0.00     0.039 A 
HETATM   34  C   UNL     1       3.962  29.670  54.570  1.00  0.00     0.032 A 
BRANCH  32  35
HETATM   35  O   UNL     1       3.423  33.101  55.599  1.00  0.00    -0.352 OA
BRANCH  35  36
HETATM   36  C   UNL     1       4.070  34.126  56.350  1.00  0.00     0.171 C 
HETATM   37  C   UNL     1       3.242  34.375  57.598  1.00  0.00     0.034 C 
ENDBRANCH  35  36
ENDBRANCH  32  35
ENDBRANCH   1  29
TORSDOF 7
ENDMDL
MODEL 6
REMARK VINA RESULT:      -9.4      2.011      6.236
REMARK  7 active torsions:
REMARK  status: ('A' for Active; 'I' for Inactive)
REMARK    1  A    between atoms: C_2  and  O_3 
REMARK    2  A    between atoms: O_3  and  C_4 
REMARK    3  A    between atoms: C_7  and  N_8 
REMARK    4  A    between atoms: C_9  and  O_10 
REMARK    5  A    between atoms: C_9  and  C_11 
REMARK       I    between atoms: C_11  and  N_12 
REMARK    6  A    between atoms: N_12  and  C_13 
REMARK    7  A    between atoms: C_13  and  C_14 
ROOT
HETATM    1  N   UNL     1       6.192  28.151  54.359  1.00  0.00    -0.254 N 
HETATM    2  C   UNL     1       5.344  28.094  55.563  1.00  0.00     0.256 C 
HETATM    3  C   UNL     1       5.637  29.223  56.526  1.00  0.00     0.034 A 
HETATM    4  C   UNL     1       6.930  29.735  56.544  1.00  0.00     0.048 A 
HETATM    5  N   UNL     1       7.849  29.243  55.621  1.00  0.00    -0.308 N 
HETATM    6  C   UNL     1       7.528  28.507  54.506  1.00  0.00     0.330 C 
HETATM    7  O   UNL     1       8.430  28.279  53.702  1.00  0.00    -0.246 OA
HETATM    8  C   UNL     1       4.705  29.709  57.456  1.00  0.00     0.015 A 
HETATM    9  C   UNL     1       5.071  30.696  58.372  1.00  0.00     0.001 A 
HETATM   10  C   UNL     1       6.375  31.190  58.380  1.00  0.00     0.002 A 
HETATM   11  C   UNL     1       7.312  30.704  57.470  1.00  0.00     0.030 A 
HETATM   12  H   UNL     1       8.800  29.595  55.619  1.00  0.00     0.170 HD
ENDROOT
BRANCH   2  13
HETATM   13  O   UNL     1       3.957  28.196  55.220  1.00  0.00    -0.359 OA
HETATM   14  H   UNL     1       3.934  28.851  54.494  1.00  0.00     0.213 HD
ENDBRANCH   2  13
BRANCH   2  15
HETATM   15  C   UNL     1       5.569  26.691  56.271  1.00  0.00     0.279 C 
HETATM   16  N   UNL     1       6.850  26.181  56.284  1.00  0.00    -0.352 N 
HETATM   17  H   UNL     1       7.618  26.739  55.929  1.00  0.00     0.162 HD
HETATM   18  O   UNL     1       4.621  26.078  56.775  1.00  0.00    -0.268 OA
BRANCH  16  19
HETATM   19  C   UNL     1       7.163  24.951  56.967  1.00  0.00     0.161 C 
BRANCH  19  20
HETATM   20  C   UNL     1       7.595  23.893  55.986  1.00  0.00    -0.038 A 
HETATM   21  C   UNL     1       7.805  22.573  56.418  1.00  0.00     0.048 A 
HETATM   22  C   UNL     1       8.227  21.644  55.490  1.00  0.00     0.105 A 
HETATM   23  C   UNL     1       8.449  21.980  54.176  1.00  0.00     0.105 A 
HETATM   24  O   UNL     1       8.474  20.329  55.737  1.00  0.00    -0.323 OA
HETATM   25  O   UNL     1       8.861  20.920  53.431  1.00  0.00    -0.323 OA
HETATM   26  C   UNL     1       8.268  23.266  53.717  1.00  0.00     0.040 A 
HETATM   27  C   UNL     1       8.859  19.873  54.423  1.00  0.00     0.352 A 
HETATM   28  C   UNL     1       7.841  24.231  54.635  1.00  0.00     0.012 A 
ENDBRANCH  19  20
ENDBRANCH  16  19
ENDBRANCH   2  15
BRANCH   1  29
HETATM   29  C   UNL     1       5.757  27.481  53.172  1.00  0.00     0.043 A 
HETATM   30  C   UNL     1       5.711  26.085  53.086  1.00  0.00     0.032 A 
HETATM   31  C   UNL     1       5.284  25.451  51.908  1.00  0.00     0.039 A 
HETATM   32  C   UNL     1       4.913  26.208  50.799  1.00  0.00     0.068 A 
HETATM   33  C   UNL     1       4.996  27.596  50.866  1.00  0.00     0.039 A 
HETATM   34  C   UNL     1       5.414  28.227  52.040  1.00  0.00     0.032 A 
BRANCH  32  35
HETATM   35  O   UNL     1       4.481  25.721  49.597  1.00  0.00    -0.352 OA
BRANCH  35  36
HETATM   36  C   UNL     1       4.569  26.600  48.477  1.00  0.00     0.171 C 
HETATM   37  C   UNL     1       3.368  26.333  47.588  1.00  0.00     0.034 C 
ENDBRANCH  35  36
ENDBRANCH  32  35
ENDBRANCH   1  29
TORSDOF 7
ENDMDL
MODEL 7
REMARK VINA RESULT:      -9.3      3.595      7.426
REMARK  7 active torsions:
REMARK  status: ('A' for Active; 'I' for Inactive)
REMARK    1  A    between atoms: C_2  and  O_3 
REMARK    2  A    between atoms: O_3  and  C_4 
REMARK    3  A    between atoms: C_7  and  N_8 
REMARK    4  A    between atoms: C_9  and  O_10 
REMARK    5  A    between atoms: C_9  and  C_11 
REMARK       I    between atoms: C_11  and  N_12 
REMARK    6  A    between atoms: N_12  and  C_13 
REMARK    7  A    between atoms: C_13  and  C_14 
ROOT
HETATM    1  N   UNL     1       3.866  29.432  52.238  1.00  0.00    -0.254 N 
HETATM    2  C   UNL     1       4.247  28.405  53.224  1.00  0.00     0.256 C 
HETATM    3  C   UNL     1       4.279  28.948  54.635  1.00  0.00     0.034 A 
HETATM    4  C   UNL     1       4.583  30.296  54.800  1.00  0.00     0.048 A 
HETATM    5  N   UNL     1       4.753  31.080  53.662  1.00  0.00    -0.308 N 
HETATM    6  C   UNL     1       4.368  30.719  52.394  1.00  0.00     0.330 C 
HETATM    7  O   UNL     1       4.438  31.579  51.517  1.00  0.00    -0.246 OA
HETATM    8  C   UNL     1       4.111  28.149  55.776  1.00  0.00     0.015 A 
HETATM    9  C   UNL     1       4.237  28.703  57.051  1.00  0.00     0.001 A 
HETATM   10  C   UNL     1       4.551  30.054  57.196  1.00  0.00     0.002 A 
HETATM   11  C   UNL     1       4.734  30.853  56.068  1.00  0.00     0.030 A 
HETATM   12  H   UNL     1       4.983  32.062  53.756  1.00  0.00     0.170 HD
ENDROOT
BRANCH   2  13
HETATM   13  O   UNL     1       3.313  27.319  53.223  1.00  0.00    -0.359 OA
HETATM   14  H   UNL     1       2.448  27.744  53.058  1.00  0.00     0.213 HD
ENDBRANCH   2  13
BRANCH   2  15
HETATM   15  C   UNL     1       5.670  27.825  52.822  1.00  0.00     0.279 C 
HETATM   16  N   UNL     1       5.768  26.465  52.616  1.00  0.00    -0.352 N 
HETATM   17  H   UNL     1       4.933  25.891  52.637  1.00  0.00     0.162 HD
HETATM   18  O   UNL     1       6.650  28.570  52.717  1.00  0.00    -0.268 OA
BRANCH  16  19
HETATM   19  C   UNL     1       6.999  25.857  52.177  1.00  0.00     0.161 C 
BRANCH  19  20
HETATM   20  C   UNL     1       7.405  24.747  53.108  1.00  0.00    -0.038 A 
HETATM   21  C   UNL     1       7.474  24.976  54.493  1.00  0.00     0.048 A 
HETATM   22  C   UNL     1       7.879  23.937  55.306  1.00  0.00     0.105 A 
HETATM   23  C   UNL     1       8.218  22.707  54.796  1.00  0.00     0.105 A 
HETATM   24  O   UNL     1       7.997  23.987  56.660  1.00  0.00    -0.323 OA
HETATM   25  O   UNL     1       8.588  21.827  55.764  1.00  0.00    -0.323 OA
HETATM   26  C   UNL     1       8.177  22.447  53.443  1.00  0.00     0.040 A 
HETATM   27  C   UNL     1       8.431  22.641  56.945  1.00  0.00     0.352 A 
HETATM   28  C   UNL     1       7.770  23.481  52.593  1.00  0.00     0.012 A 
ENDBRANCH  19  20
ENDBRANCH  16  19
ENDBRANCH   2  15
BRANCH   1  29
HETATM   29  C   UNL     1       3.342  29.017  50.973  1.00  0.00     0.043 A 
HETATM   30  C   UNL     1       1.986  29.150  50.654  1.00  0.00     0.032 A 
HETATM   31  C   UNL     1       1.496  28.732  49.407  1.00  0.00     0.039 A 
HETATM   32  C   UNL     1       2.356  28.162  48.470  1.00  0.00     0.068 A 
HETATM   33  C   UNL     1       3.698  27.990  48.797  1.00  0.00     0.039 A 
HETATM   34  C   UNL     1       4.187  28.413  50.036  1.00  0.00     0.032 A 
BRANCH  32  35
HETATM   35  O   UNL     1       2.012  27.715  47.225  1.00  0.00    -0.352 OA
BRANCH  35  36
HETATM   36  C   UNL     1       0.793  26.981  47.118  1.00  0.00     0.171 C 
HETATM   37  C   UNL     1      -0.145  27.776  46.228  1.00  0.00     0.034 C 
ENDBRANCH  35  36
ENDBRANCH  32  35
ENDBRANCH   1  29
TORSDOF 7
ENDMDL
MODEL 8
REMARK VINA RESULT:      -9.2      6.782     10.197
REMARK  7 active torsions:
REMARK  status: ('A' for Active; 'I' for Inactive)
REMARK    1  A    between atoms: C_2  and  O_3 
REMARK    2  A    between atoms: O_3  and  C_4 
REMARK    3  A    between atoms: C_7  and  N_8 
REMARK    4  A    between atoms: C_9  and  O_10 
REMARK    5  A    between atoms: C_9  and  C_11 
REMARK       I    between atoms: C_11  and  N_12 
REMARK    6  A    between atoms: N_12  and  C_13 
REMARK    7  A    between atoms: C_13  and  C_14 
ROOT
HETATM    1  N   UNL     1       3.440  34.622  63.238  1.00  0.00    -0.254 N 
HETATM    2  C   UNL     1       4.305  34.575  62.046  1.00  0.00     0.256 C 
HETATM    3  C   UNL     1       3.567  34.966  60.785  1.00  0.00     0.034 A 
HETATM    4  C   UNL     1       2.202  34.705  60.731  1.00  0.00     0.048 A 
HETATM    5  N   UNL     1       1.582  34.185  61.864  1.00  0.00    -0.308 N 
HETATM    6  C   UNL     1       2.130  34.171  63.123  1.00  0.00     0.330 C 
HETATM    7  O   UNL     1       1.401  33.824  64.051  1.00  0.00    -0.246 OA
HETATM    8  C   UNL     1       4.202  35.486  59.646  1.00  0.00     0.015 A 
HETATM    9  C   UNL     1       3.470  35.745  58.487  1.00  0.00     0.001 A 
HETATM   10  C   UNL     1       2.103  35.469  58.449  1.00  0.00     0.002 A 
HETATM   11  C   UNL     1       1.466  34.939  59.571  1.00  0.00     0.030 A 
HETATM   12  H   UNL     1       0.590  33.980  61.846  1.00  0.00     0.170 HD
ENDROOT
BRANCH   2  13
HETATM   13  O   UNL     1       5.407  35.481  62.174  1.00  0.00    -0.359 OA
HETATM   14  H   UNL     1       6.191  34.901  62.249  1.00  0.00     0.213 HD
ENDBRANCH   2  13
BRANCH   2  15
HETATM   15  C   UNL     1       4.896  33.107  61.909  1.00  0.00     0.279 C 
HETATM   16  N   UNL     1       6.262  32.957  62.022  1.00  0.00    -0.352 N 
HETATM   17  H   UNL     1       6.837  33.753  62.272  1.00  0.00     0.162 HD
HETATM   18  O   UNL     1       4.151  32.144  61.693  1.00  0.00    -0.268 OA
BRANCH  16  19
HETATM   19  C   UNL     1       6.881  31.655  61.985  1.00  0.00     0.161 C 
BRANCH  19  20
HETATM   20  C   UNL     1       7.917  31.590  60.895  1.00  0.00    -0.038 A 
HETATM   21  C   UNL     1       7.674  30.837  59.734  1.00  0.00     0.048 A 
HETATM   22  C   UNL     1       8.663  30.783  58.774  1.00  0.00     0.105 A 
HETATM   23  C   UNL     1       9.863  31.433  58.932  1.00  0.00     0.105 A 
HETATM   24  O   UNL     1       8.592  30.106  57.596  1.00  0.00    -0.323 OA
HETATM   25  O   UNL     1      10.696  31.250  57.873  1.00  0.00    -0.323 OA
HETATM   26  C   UNL     1      10.145  32.170  60.061  1.00  0.00     0.040 A 
HETATM   27  C   UNL     1       9.878  30.421  57.023  1.00  0.00     0.352 A 
HETATM   28  C   UNL     1       9.161  32.244  61.053  1.00  0.00     0.012 A 
ENDBRANCH  19  20
ENDBRANCH  16  19
ENDBRANCH   2  15
BRANCH   1  29
HETATM   29  C   UNL     1       4.045  34.742  64.529  1.00  0.00     0.043 A 
HETATM   30  C   UNL     1       4.697  33.668  65.144  1.00  0.00     0.032 A 
HETATM   31  C   UNL     1       5.279  33.811  66.413  1.00  0.00     0.039 A 
HETATM   32  C   UNL     1       5.202  35.028  67.088  1.00  0.00     0.068 A 
HETATM   33  C   UNL     1       4.518  36.088  66.498  1.00  0.00     0.039 A 
HETATM   34  C   UNL     1       3.945  35.948  65.232  1.00  0.00     0.032 A 
BRANCH  32  35
HETATM   35  O   UNL     1       5.722  35.302  68.322  1.00  0.00    -0.352 OA
BRANCH  35  36
HETATM   36  C   UNL     1       6.526  34.288  68.922  1.00  0.00     0.171 C 
HETATM   37  C   UNL     1       7.870  34.907  69.259  1.00  0.00     0.034 C 
ENDBRANCH  35  36
ENDBRANCH  32  35
ENDBRANCH   1  29
TORSDOF 7
ENDMDL
MODEL 9
REMARK VINA RESULT:      -9.2      2.559      6.925
REMARK  7 active torsions:
REMARK  status: ('A' for Active; 'I' for Inactive)
REMARK    1  A    between atoms: C_2  and  O_3 
REMARK    2  A    between atoms: O_3  and  C_4 
REMARK    3  A    between atoms: C_7  and  N_8 
REMARK    4  A    between atoms: C_9  and  O_10 
REMARK    5  A    between atoms: C_9  and  C_11 
REMARK       I    between atoms: C_11  and  N_12 
REMARK    6  A    between atoms: N_12  and  C_13 
REMARK    7  A    between atoms: C_13  and  C_14 
ROOT
HETATM    1  N   UNL     1       8.013  27.657  55.942  1.00  0.00    -0.254 N 
HETATM    2  C   UNL     1       7.272  26.536  56.547  1.00  0.00     0.256 C 
HETATM    3  C   UNL     1       7.434  25.252  55.765  1.00  0.00     0.034 A 
HETATM    4  C   UNL     1       7.650  25.354  54.395  1.00  0.00     0.048 A 
HETATM    5  N   UNL     1       7.791  26.624  53.841  1.00  0.00    -0.308 N 
HETATM    6  C   UNL     1       8.023  27.773  54.556  1.00  0.00     0.330 C 
HETATM    7  O   UNL     1       8.282  28.792  53.919  1.00  0.00    -0.246 OA
HETATM    8  C   UNL     1       7.286  23.976  56.332  1.00  0.00     0.015 A 
HETATM    9  C   UNL     1       7.366  22.835  55.533  1.00  0.00     0.001 A 
HETATM   10  C   UNL     1       7.575  22.959  54.159  1.00  0.00     0.002 A 
HETATM   11  C   UNL     1       7.709  24.222  53.585  1.00  0.00     0.030 A 
HETATM   12  H   UNL     1       7.942  26.725  52.844  1.00  0.00     0.170 HD
ENDROOT
BRANCH   2  13
HETATM   13  O   UNL     1       7.736  26.269  57.875  1.00  0.00    -0.359 OA
HETATM   14  H   UNL     1       7.968  27.150  58.232  1.00  0.00     0.213 HD
ENDBRANCH   2  13
BRANCH   2  15
HETATM   15  C   UNL     1       5.738  26.937  56.639  1.00  0.00     0.279 C 
HETATM   16  N   UNL     1       5.310  27.999  55.870  1.00  0.00    -0.352 N 
HETATM   17  H   UNL     1       5.947  28.435  55.213  1.00  0.00     0.162 HD
HETATM   18  O   UNL     1       4.968  26.324  57.386  1.00  0.00    -0.268 OA
BRANCH  16  19
HETATM   19  C   UNL     1       3.923  28.389  55.831  1.00  0.00     0.161 C 
BRANCH  19  20
HETATM   20  C   UNL     1       3.782  29.873  56.041  1.00  0.00    -0.038 A 
HETATM   21  C   UNL     1       3.703  30.399  57.341  1.00  0.00     0.048 A 
HETATM   22  C   UNL     1       3.546  31.762  57.484  1.00  0.00     0.105 A 
HETATM   23  C   UNL     1       3.458  32.600  56.399  1.00  0.00     0.105 A 
HETATM   24  O   UNL     1       3.456  32.432  58.665  1.00  0.00    -0.323 OA
HETATM   25  O   UNL     1       3.304  33.902  56.759  1.00  0.00    -0.323 OA
HETATM   26  C   UNL     1       3.516  32.122  55.108  1.00  0.00     0.040 A 
HETATM   27  C   UNL     1       3.320  33.790  58.196  1.00  0.00     0.352 A 
HETATM   28  C   UNL     1       3.676  30.743  54.930  1.00  0.00     0.012 A 
ENDBRANCH  19  20
ENDBRANCH  16  19
ENDBRANCH   2  15
BRANCH   1  29
HETATM   29  C   UNL     1       8.354  28.782  56.757  1.00  0.00     0.043 A 
HETATM   30  C   UNL     1       7.378  29.616  57.314  1.00  0.00     0.032 A 
HETATM   31  C   UNL     1       7.739  30.716  58.107  1.00  0.00     0.039 A 
HETATM   32  C   UNL     1       9.082  31.003  58.339  1.00  0.00     0.068 A 
HETATM   33  C   UNL     1      10.059  30.201  57.754  1.00  0.00     0.039 A 
HETATM   34  C   UNL     1       9.699  29.102  56.970  1.00  0.00     0.032 A 
BRANCH  32  35
HETATM   35  O   UNL     1       9.570  32.038  59.088  1.00  0.00    -0.352 OA
BRANCH  35  36
HETATM   36  C   UNL     1       8.809  32.419  60.232  1.00  0.00     0.171 C 
HETATM   37  C   UNL     1       9.426  31.738  61.441  1.00  0.00     0.034 C 
ENDBRANCH  35  36
ENDBRANCH  32  35
ENDBRANCH   1  29
TORSDOF 7
ENDMDL
MODEL 10
REMARK VINA RESULT:      -9.1      5.286      9.767
REMARK  7 active torsions:
REMARK  status: ('A' for Active; 'I' for Inactive)
REMARK    1  A    between atoms: C_2  and  O_3 
REMARK    2  A    between atoms: O_3  and  C_4 
REMARK    3  A    between atoms: C_7  and  N_8 
REMARK    4  A    between atoms: C_9  and  O_10 
REMARK    5  A    between atoms: C_9  and  C_11 
REMARK       I    between atoms: C_11  and  N_12 
REMARK    6  A    between atoms: N_12  and  C_13 
REMARK    7  A    between atoms: C_13  and  C_14 
ROOT
HETATM    1  N   UNL     1       4.360  33.501  61.269  1.00  0.00    -0.254 N 
HETATM    2  C   UNL     1       4.985  33.070  62.532  1.00  0.00     0.256 C 
HETATM    3  C   UNL     1       4.534  33.906  63.709  1.00  0.00     0.034 A 
HETATM    4  C   UNL     1       4.177  35.227  63.462  1.00  0.00     0.048 A 
HETATM    5  N   UNL     1       4.170  35.675  62.144  1.00  0.00    -0.308 N 
HETATM    6  C   UNL     1       4.205  34.863  61.037  1.00  0.00     0.330 C 
HETATM    7  O   UNL     1       4.033  35.395  59.941  1.00  0.00    -0.246 OA
HETATM    8  C   UNL     1       4.549  33.447  65.036  1.00  0.00     0.015 A 
HETATM    9  C   UNL     1       4.199  34.301  66.082  1.00  0.00     0.001 A 
HETATM   10  C   UNL     1       3.852  35.625  65.815  1.00  0.00     0.002 A 
HETATM   11  C   UNL     1       3.848  36.095  64.502  1.00  0.00     0.030 A 
HETATM   12  H   UNL     1       3.921  36.636  61.939  1.00  0.00     0.170 HD
ENDROOT
BRANCH   2  13
HETATM   13  O   UNL     1       4.645  31.713  62.838  1.00  0.00    -0.359 OA
HETATM   14  H   UNL     1       5.127  31.186  62.170  1.00  0.00     0.213 HD
ENDBRANCH   2  13
BRANCH   2  15
HETATM   15  C   UNL     1       6.562  33.152  62.367  1.00  0.00     0.279 C 
HETATM   16  N   UNL     1       7.256  31.963  62.278  1.00  0.00    -0.352 N 
HETATM   17  H   UNL     1       6.749  31.087  62.231  1.00  0.00     0.162 HD
HETATM   18  O   UNL     1       7.139  34.244  62.338  1.00  0.00    -0.268 OA
BRANCH  16  19
HETATM   19  C   UNL     1       8.679  31.938  62.053  1.00  0.00     0.161 C 
BRANCH  19  20
HETATM   20  C   UNL     1       8.989  31.462  60.659  1.00  0.00    -0.038 A 
HETATM   21  C   UNL     1       8.392  30.291  60.162  1.00  0.00     0.048 A 
HETATM   22  C   UNL     1       8.727  29.878  58.890  1.00  0.00     0.105 A 
HETATM   23  C   UNL     1       9.624  30.573  58.114  1.00  0.00     0.105 A 
HETATM   24  O   UNL     1       8.242  28.775  58.258  1.00  0.00    -0.323 OA
HETATM   25  O   UNL     1       9.814  29.997  56.897  1.00  0.00    -0.323 OA
HETATM   26  C   UNL     1      10.241  31.717  58.570  1.00  0.00     0.040 A 
HETATM   27  C   UNL     1       8.923  28.867  56.990  1.00  0.00     0.352 A 
HETATM   28  C   UNL     1       9.922  32.162  59.857  1.00  0.00     0.012 A 
ENDBRANCH  19  20
ENDBRANCH  16  19
ENDBRANCH   2  15
BRANCH   1  29
HETATM   29  C   UNL     1       4.296  32.578  60.177  1.00  0.00     0.043 A 
HETATM   30  C   UNL     1       3.187  31.750  59.973  1.00  0.00     0.032 A 
HETATM   31  C   UNL     1       3.150  30.850  58.896  1.00  0.00     0.039 A 
HETATM   32  C   UNL     1       4.230  30.758  58.021  1.00  0.00     0.068 A 
HETATM   33  C   UNL     1       5.354  31.549  58.244  1.00  0.00     0.039 A 
HETATM   34  C   UNL     1       5.387  32.450  59.311  1.00  0.00     0.032 A 
BRANCH  32  35
HETATM   35  O   UNL     1       4.324  29.928  56.939  1.00  0.00    -0.352 OA
BRANCH  35  36
HETATM   36  C   UNL     1       5.454  30.107  56.087  1.00  0.00     0.171 C 
HETATM   37  C   UNL     1       5.672  28.806  55.335  1.00  0.00     0.034 C 
ENDBRANCH  35  36
ENDBRANCH  32  35
ENDBRANCH   1  29
TORSDOF 7
ENDMDL
