MODEL 1
REMARK VINA RESULT:      -9.8      0.000      0.000
REMARK  6 active torsions:
REMARK  status: ('A' for Active; 'I' for Inactive)
REMARK    1  A    between atoms: O_2  and  C_3 
REMARK    2  A    between atoms: C_6  and  C_7 
REMARK    3  A    between atoms: C_11  and  C_12 
REMARK       I    between atoms: C_12  and  N_13 
REMARK    4  A    between atoms: N_13  and  N_14 
REMARK       I    between atoms: N_14  and  C_15 
REMARK    5  A    between atoms: C_15  and  C_16 
REMARK    6  A    between atoms: C_16  and  C_17 
ROOT
HETATM    1  C   UNL     1       9.388  29.490  57.365  1.00  0.00     0.288 C 
HETATM    2  N   UNL     1       8.259  28.803  56.965  1.00  0.00    -0.262 N 
HETATM    3  O   UNL     1      10.487  29.291  56.852  1.00  0.00    -0.264 OA
HETATM    4  H   UNL     1       7.328  29.076  57.272  1.00  0.00     0.190 HD
ENDROOT
BRANCH   1   5
HETATM    5  C   UNL     1       9.175  30.460  58.404  1.00  0.00     0.121 A 
HETATM    6  N   UNL     1       9.882  31.627  58.467  1.00  0.00    -0.272 N 
HETATM    7  N   UNL     1       9.549  32.417  59.499  1.00  0.00    -0.174 NA
HETATM    8  H   UNL     1      10.609  31.936  57.829  1.00  0.00     0.189 HD
HETATM    9  C   UNL     1       8.560  31.761  60.125  1.00  0.00     0.089 A 
HETATM   10  C   UNL     1       8.312  30.518  59.479  1.00  0.00     0.071 A 
BRANCH   9  11
HETATM   11  C   UNL     1       7.881  32.312  61.302  1.00  0.00    -0.005 A 
HETATM   12  C   UNL     1       8.444  32.197  62.579  1.00  0.00     0.016 A 
HETATM   13  C   UNL     1       7.792  32.734  63.693  1.00  0.00     0.037 A 
HETATM   14  C   UNL     1       6.572  33.398  63.556  1.00  0.00     0.068 A 
HETATM   15  C   UNL     1       5.999  33.509  62.290  1.00  0.00     0.037 A 
HETATM   16  C   UNL     1       6.648  32.967  61.172  1.00  0.00     0.016 A 
BRANCH  14  17
HETATM   17  O   UNL     1       6.051  33.879  64.725  1.00  0.00    -0.356 OA
HETATM   18  C   UNL     1       6.866  33.767  65.884  1.00  0.00     0.210 C 
ENDBRANCH  14  17
ENDBRANCH   9  11
ENDBRANCH   1   5
BRANCH   2  19
HETATM   19  N   UNL     1       8.303  28.068  55.770  1.00  0.00    -0.267 N 
HETATM   20  C   UNL     1       7.089  27.782  55.175  1.00  0.00     0.240 C 
HETATM   21  O   UNL     1       6.017  27.984  55.748  1.00  0.00    -0.272 OA
HETATM   22  H   UNL     1       9.181  28.091  55.252  1.00  0.00     0.190 HD
BRANCH  20  23
HETATM   23  C   UNL     1       7.182  27.193  53.784  1.00  0.00     0.143 C 
BRANCH  23  24
HETATM   24  C   UNL     1       7.365  25.694  53.739  1.00  0.00    -0.049 A 
HETATM   25  C   UNL     1       6.966  24.864  54.799  1.00  0.00     0.009 A 
HETATM   26  C   UNL     1       7.105  23.476  54.706  1.00  0.00     0.024 A 
HETATM   27  C   UNL     1       7.624  22.906  53.547  1.00  0.00     0.034 A 
HETATM   28 CL   UNL     1       7.785  21.198  53.431  1.00  0.00    -0.084 Cl
HETATM   29  C   UNL     1       8.004  23.712  52.479  1.00  0.00     0.024 A 
HETATM   30  C   UNL     1       7.872  25.099  52.573  1.00  0.00     0.009 A 
ENDBRANCH  23  24
ENDBRANCH  20  23
ENDBRANCH   2  19
TORSDOF 6
ENDMDL
MODEL 2
REMARK VINA RESULT:      -9.6      3.960     10.808
REMARK  6 active torsions:
REMARK  status: ('A' for Active; 'I' for Inactive)
REMARK    1  A    between atoms: O_2  and  C_3 
REMARK    2  A    between atoms: C_6  and  C_7 
REMARK    3  A    between atoms: C_11  and  C_12 
REMARK       I    between atoms: C_12  and  N_13 
REMARK    4  A    between atoms: N_13  and  N_14 
REMARK       I    between atoms: N_14  and  C_15 
REMARK    5  A    between atoms: C_15  and  C_16 
REMARK    6  A    between atoms: C_16  and  C_17 
ROOT
HETATM    1  C   UNL     1       6.556  29.718  56.827  1.00  0.00     0.288 C 
HETATM    2  N   UNL     1       6.961  29.657  58.145  1.00  0.00    -0.262 N 
HETATM    3  O   UNL     1       6.030  30.724  56.353  1.00  0.00    -0.264 OA
HETATM    4  H   UNL     1       7.537  28.894  58.495  1.00  0.00     0.190 HD
ENDROOT
BRANCH   1   5
HETATM    5  C   UNL     1       6.813  28.534  56.054  1.00  0.00     0.121 A 
HETATM    6  N   UNL     1       7.180  28.586  54.739  1.00  0.00    -0.272 N 
HETATM    7  N   UNL     1       7.385  27.385  54.177  1.00  0.00    -0.174 NA
HETATM    8  H   UNL     1       7.304  29.420  54.173  1.00  0.00     0.189 HD
HETATM    9  C   UNL     1       7.176  26.505  55.168  1.00  0.00     0.089 A 
HETATM   10  C   UNL     1       6.794  27.187  56.357  1.00  0.00     0.071 A 
BRANCH   9  11
HETATM   11  C   UNL     1       7.338  25.061  54.976  1.00  0.00    -0.005 A 
HETATM   12  C   UNL     1       7.322  24.499  53.693  1.00  0.00     0.016 A 
HETATM   13  C   UNL     1       7.488  23.120  53.520  1.00  0.00     0.037 A 
HETATM   14  C   UNL     1       7.676  22.280  54.618  1.00  0.00     0.068 A 
HETATM   15  C   UNL     1       7.683  22.829  55.899  1.00  0.00     0.037 A 
HETATM   16  C   UNL     1       7.514  24.209  56.076  1.00  0.00     0.016 A 
BRANCH  14  17
HETATM   17  O   UNL     1       7.831  20.958  54.303  1.00  0.00    -0.356 OA
HETATM   18  C   UNL     1       8.110  20.652  52.944  1.00  0.00     0.210 C 
ENDBRANCH  14  17
ENDBRANCH   9  11
ENDBRANCH   1   5
BRANCH   2  19
HETATM   19  N   UNL     1       7.032  30.847  58.886  1.00  0.00    -0.267 N 
HETATM   20  C   UNL     1       8.118  30.987  59.728  1.00  0.00     0.240 C 
HETATM   21  O   UNL     1       8.882  30.051  59.971  1.00  0.00    -0.272 OA
HETATM   22  H   UNL     1       6.507  31.642  58.523  1.00  0.00     0.190 HD
BRANCH  20  23
HETATM   23  C   UNL     1       8.283  32.364  60.335  1.00  0.00     0.143 C 
BRANCH  23  24
HETATM   24  C   UNL     1       7.521  32.589  61.620  1.00  0.00    -0.049 A 
HETATM   25  C   UNL     1       8.138  32.497  62.877  1.00  0.00     0.009 A 
HETATM   26  C   UNL     1       7.416  32.758  64.045  1.00  0.00     0.024 A 
HETATM   27  C   UNL     1       6.078  33.133  63.965  1.00  0.00     0.034 A 
HETATM   28 CL   UNL     1       5.194  33.464  65.402  1.00  0.00    -0.084 Cl
HETATM   29  C   UNL     1       5.456  33.251  62.726  1.00  0.00     0.024 A 
HETATM   30  C   UNL     1       6.175  32.984  61.558  1.00  0.00     0.009 A 
ENDBRANCH  23  24
ENDBRANCH  20  23
ENDBRANCH   2  19
TORSDOF 6
ENDMDL
MODEL 3
REMARK VINA RESULT:      -9.3      4.269     10.815
REMARK  6 active torsions:
REMARK  status: ('A' for Active; 'I' for Inactive)
REMARK    1  A    between atoms: O_2  and  C_3 
REMARK    2  A    between atoms: C_6  and  C_7 
REMARK    3  A    between atoms: C_11  and  C_12 
REMARK       I    between atoms: C_12  and  N_13 
REMARK    4  A    between atoms: N_13  and  N_14 
REMARK       I    between atoms: N_14  and  C_15 
REMARK    5  A    between atoms: C_15  and  C_16 
REMARK    6  A    between atoms: C_16  and  C_17 
ROOT
HETATM    1  C   UNL     1       8.455  31.319  59.267  1.00  0.00     0.288 C 
HETATM    2  N   UNL     1       7.531  31.211  60.286  1.00  0.00    -0.262 N 
HETATM    3  O   UNL     1       9.128  32.336  59.102  1.00  0.00    -0.264 OA
HETATM    4  H   UNL     1       7.094  30.323  60.522  1.00  0.00     0.190 HD
ENDROOT
BRANCH   1   5
HETATM    5  C   UNL     1       8.584  30.155  58.434  1.00  0.00     0.121 A 
HETATM    6  N   UNL     1       9.701  29.914  57.685  1.00  0.00    -0.272 N 
HETATM    7  N   UNL     1       9.652  28.778  56.972  1.00  0.00    -0.174 NA
HETATM    8  H   UNL     1      10.531  30.496  57.622  1.00  0.00     0.189 HD
HETATM    9  C   UNL     1       8.468  28.230  57.287  1.00  0.00     0.089 A 
HETATM   10  C   UNL     1       7.759  29.077  58.186  1.00  0.00     0.071 A 
BRANCH   9  11
HETATM   11  C   UNL     1       8.036  26.940  56.742  1.00  0.00    -0.005 A 
HETATM   12  C   UNL     1       7.442  26.855  55.477  1.00  0.00     0.016 A 
HETATM   13  C   UNL     1       7.042  25.617  54.962  1.00  0.00     0.037 A 
HETATM   14  C   UNL     1       7.230  24.444  55.694  1.00  0.00     0.068 A 
HETATM   15  C   UNL     1       7.812  24.520  56.959  1.00  0.00     0.037 A 
HETATM   16  C   UNL     1       8.209  25.760  57.479  1.00  0.00     0.016 A 
BRANCH  14  17
HETATM   17  O   UNL     1       6.799  23.307  55.069  1.00  0.00    -0.356 OA
HETATM   18  C   UNL     1       7.762  22.592  54.306  1.00  0.00     0.210 C 
ENDBRANCH  14  17
ENDBRANCH   9  11
ENDBRANCH   1   5
BRANCH   2  19
HETATM   19  N   UNL     1       7.551  32.160  61.320  1.00  0.00    -0.267 N 
HETATM   20  C   UNL     1       7.963  31.715  62.561  1.00  0.00     0.240 C 
HETATM   21  O   UNL     1       8.120  30.517  62.807  1.00  0.00    -0.272 OA
HETATM   22  H   UNL     1       7.600  33.139  61.040  1.00  0.00     0.190 HD
BRANCH  20  23
HETATM   23  C   UNL     1       8.189  32.803  63.589  1.00  0.00     0.143 C 
BRANCH  23  24
HETATM   24  C   UNL     1       6.957  33.216  64.359  1.00  0.00    -0.049 A 
HETATM   25  C   UNL     1       7.034  33.755  65.653  1.00  0.00     0.009 A 
HETATM   26  C   UNL     1       5.879  34.172  66.320  1.00  0.00     0.024 A 
HETATM   27  C   UNL     1       4.641  34.074  65.692  1.00  0.00     0.034 A 
HETATM   28 CL   UNL     1       3.221  34.597  66.510  1.00  0.00    -0.084 Cl
HETATM   29  C   UNL     1       4.548  33.563  64.401  1.00  0.00     0.024 A 
HETATM   30  C   UNL     1       5.701  33.140  63.736  1.00  0.00     0.009 A 
ENDBRANCH  23  24
ENDBRANCH  20  23
ENDBRANCH   2  19
TORSDOF 6
ENDMDL
MODEL 4
REMARK VINA RESULT:      -9.0      4.138     10.898
REMARK  6 active torsions:
REMARK  status: ('A' for Active; 'I' for Inactive)
REMARK    1  A    between atoms: O_2  and  C_3 
REMARK    2  A    between atoms: C_6  and  C_7 
REMARK    3  A    between atoms: C_11  and  C_12 
REMARK       I    between atoms: C_12  and  N_13 
REMARK    4  A    between atoms: N_13  and  N_14 
REMARK       I    between atoms: N_14  and  C_15 
REMARK    5  A    between atoms: C_15  and  C_16 
REMARK    6  A    between atoms: C_16  and  C_17 
ROOT
HETATM    1  C   UNL     1       8.470  29.186  57.975  1.00  0.00     0.288 C 
HETATM    2  N   UNL     1       7.670  29.540  59.042  1.00  0.00    -0.262 N 
HETATM    3  O   UNL     1       9.500  29.799  57.702  1.00  0.00    -0.264 OA
HETATM    4  H   UNL     1       6.911  28.944  59.366  1.00  0.00     0.190 HD
ENDROOT
BRANCH   1   5
HETATM    5  C   UNL     1       8.020  28.043  57.228  1.00  0.00     0.121 A 
HETATM    6  N   UNL     1       7.007  28.122  56.314  1.00  0.00    -0.272 N 
HETATM    7  N   UNL     1       6.722  26.961  55.706  1.00  0.00    -0.174 NA
HETATM    8  H   UNL     1       6.471  28.949  56.067  1.00  0.00     0.189 HD
HETATM    9  C   UNL     1       7.603  26.086  56.215  1.00  0.00     0.089 A 
HETATM   10  C   UNL     1       8.421  26.723  57.189  1.00  0.00     0.071 A 
BRANCH   9  11
HETATM   11  C   UNL     1       7.655  24.687  55.777  1.00  0.00    -0.005 A 
HETATM   12  C   UNL     1       7.373  24.337  54.451  1.00  0.00     0.016 A 
HETATM   13  C   UNL     1       7.434  23.001  54.041  1.00  0.00     0.037 A 
HETATM   14  C   UNL     1       7.780  21.993  54.942  1.00  0.00     0.068 A 
HETATM   15  C   UNL     1       8.052  22.331  56.267  1.00  0.00     0.037 A 
HETATM   16  C   UNL     1       7.988  23.668  56.681  1.00  0.00     0.016 A 
BRANCH  14  17
HETATM   17  O   UNL     1       7.807  20.735  54.406  1.00  0.00    -0.356 OA
HETATM   18  C   UNL     1       7.930  20.643  52.993  1.00  0.00     0.210 C 
ENDBRANCH  14  17
ENDBRANCH   9  11
ENDBRANCH   1   5
BRANCH   2  19
HETATM   19  N   UNL     1       8.175  30.435  59.999  1.00  0.00    -0.267 N 
HETATM   20  C   UNL     1       7.701  31.731  59.945  1.00  0.00     0.240 C 
HETATM   21  O   UNL     1       7.025  32.141  58.999  1.00  0.00    -0.272 OA
HETATM   22  H   UNL     1       8.565  30.024  60.847  1.00  0.00     0.190 HD
BRANCH  20  23
HETATM   23  C   UNL     1       8.088  32.604  61.120  1.00  0.00     0.143 C 
BRANCH  23  24
HETATM   24  C   UNL     1       6.932  33.060  61.979  1.00  0.00    -0.049 A 
HETATM   25  C   UNL     1       6.374  34.342  61.856  1.00  0.00     0.009 A 
HETATM   26  C   UNL     1       5.273  34.717  62.632  1.00  0.00     0.024 A 
HETATM   27  C   UNL     1       4.710  33.808  63.522  1.00  0.00     0.034 A 
HETATM   28 CL   UNL     1       3.349  34.267  64.469  1.00  0.00    -0.084 Cl
HETATM   29  C   UNL     1       5.236  32.525  63.641  1.00  0.00     0.024 A 
HETATM   30  C   UNL     1       6.339  32.152  62.871  1.00  0.00     0.009 A 
ENDBRANCH  23  24
ENDBRANCH  20  23
ENDBRANCH   2  19
TORSDOF 6
ENDMDL
MODEL 5
REMARK VINA RESULT:      -9.0      8.569     12.894
REMARK  6 active torsions:
REMARK  status: ('A' for Active; 'I' for Inactive)
REMARK    1  A    between atoms: O_2  and  C_3 
REMARK    2  A    between atoms: C_6  and  C_7 
REMARK    3  A    between atoms: C_11  and  C_12 
REMARK       I    between atoms: C_12  and  N_13 
REMARK    4  A    between atoms: N_13  and  N_14 
REMARK       I    between atoms: N_14  and  C_15 
REMARK    5  A    between atoms: C_15  and  C_16 
REMARK    6  A    between atoms: C_16  and  C_17 
ROOT
HETATM    1  C   UNL     1       4.833  27.385  49.725  1.00  0.00     0.288 C 
HETATM    2  N   UNL     1       5.136  26.180  50.326  1.00  0.00    -0.262 N 
HETATM    3  O   UNL     1       5.513  28.394  49.908  1.00  0.00    -0.264 OA
HETATM    4  H   UNL     1       4.677  25.314  50.053  1.00  0.00     0.190 HD
ENDROOT
BRANCH   1   5
HETATM    5  C   UNL     1       3.685  27.364  48.860  1.00  0.00     0.121 A 
HETATM    6  N   UNL     1       2.944  26.234  48.659  1.00  0.00    -0.272 N 
HETATM    7  N   UNL     1       1.905  26.398  47.827  1.00  0.00    -0.174 NA
HETATM    8  H   UNL     1       3.105  25.318  49.067  1.00  0.00     0.189 HD
HETATM    9  C   UNL     1       1.942  27.696  47.488  1.00  0.00     0.089 A 
HETATM   10  C   UNL     1       3.058  28.331  48.101  1.00  0.00     0.071 A 
BRANCH   9  11
HETATM   11  C   UNL     1       0.938  28.301  46.607  1.00  0.00    -0.005 A 
HETATM   12  C   UNL     1      -0.015  27.511  45.952  1.00  0.00     0.016 A 
HETATM   13  C   UNL     1      -0.974  28.099  45.121  1.00  0.00     0.037 A 
HETATM   14  C   UNL     1      -1.005  29.481  44.932  1.00  0.00     0.068 A 
HETATM   15  C   UNL     1      -0.054  30.275  45.572  1.00  0.00     0.037 A 
HETATM   16  C   UNL     1       0.911  29.687  46.402  1.00  0.00     0.016 A 
BRANCH  14  17
HETATM   17  O   UNL     1      -1.998  29.921  44.101  1.00  0.00    -0.356 OA
HETATM   18  C   UNL     1      -2.140  29.243  42.859  1.00  0.00     0.210 C 
ENDBRANCH  14  17
ENDBRANCH   9  11
ENDBRANCH   1   5
BRANCH   2  19
HETATM   19  N   UNL     1       6.392  26.025  50.934  1.00  0.00    -0.267 N 
HETATM   20  C   UNL     1       6.450  25.180  52.026  1.00  0.00     0.240 C 
HETATM   21  O   UNL     1       5.433  24.737  52.564  1.00  0.00    -0.272 OA
HETATM   22  H   UNL     1       7.206  26.245  50.362  1.00  0.00     0.190 HD
BRANCH  20  23
HETATM   23  C   UNL     1       7.847  24.859  52.512  1.00  0.00     0.143 C 
BRANCH  23  24
HETATM   24  C   UNL     1       7.935  23.684  53.459  1.00  0.00    -0.049 A 
HETATM   25  C   UNL     1       7.983  23.852  54.851  1.00  0.00     0.009 A 
HETATM   26  C   UNL     1       8.014  22.743  55.701  1.00  0.00     0.024 A 
HETATM   27  C   UNL     1       7.978  21.458  55.168  1.00  0.00     0.034 A 
HETATM   28 CL   UNL     1       8.007  20.094  56.216  1.00  0.00    -0.084 Cl
HETATM   29  C   UNL     1       7.908  21.272  53.790  1.00  0.00     0.024 A 
HETATM   30  C   UNL     1       7.882  22.380  52.940  1.00  0.00     0.009 A 
ENDBRANCH  23  24
ENDBRANCH  20  23
ENDBRANCH   2  19
TORSDOF 6
ENDMDL
MODEL 6
REMARK VINA RESULT:      -9.0      1.839      2.788
REMARK  6 active torsions:
REMARK  status: ('A' for Active; 'I' for Inactive)
REMARK    1  A    between atoms: O_2  and  C_3 
REMARK    2  A    between atoms: C_6  and  C_7 
REMARK    3  A    between atoms: C_11  and  C_12 
REMARK       I    between atoms: C_12  and  N_13 
REMARK    4  A    between atoms: N_13  and  N_14 
REMARK       I    between atoms: N_14  and  C_15 
REMARK    5  A    between atoms: C_15  and  C_16 
REMARK    6  A    between atoms: C_16  and  C_17 
ROOT
HETATM    1  C   UNL     1       6.788  31.281  58.444  1.00  0.00     0.288 C 
HETATM    2  N   UNL     1       7.141  30.029  57.983  1.00  0.00    -0.262 N 
HETATM    3  O   UNL     1       6.374  32.160  57.689  1.00  0.00    -0.264 OA
HETATM    4  H   UNL     1       7.327  29.256  58.618  1.00  0.00     0.190 HD
ENDROOT
BRANCH   1   5
HETATM    5  C   UNL     1       6.919  31.469  59.862  1.00  0.00     0.121 A 
HETATM    6  N   UNL     1       7.807  30.751  60.614  1.00  0.00    -0.272 N 
HETATM    7  N   UNL     1       7.800  31.061  61.919  1.00  0.00    -0.174 NA
HETATM    8  H   UNL     1       8.444  30.032  60.284  1.00  0.00     0.189 HD
HETATM    9  C   UNL     1       6.894  32.045  62.031  1.00  0.00     0.089 A 
HETATM   10  C   UNL     1       6.305  32.314  60.764  1.00  0.00     0.071 A 
BRANCH   9  11
HETATM   11  C   UNL     1       6.609  32.700  63.310  1.00  0.00    -0.005 A 
HETATM   12  C   UNL     1       5.291  32.881  63.749  1.00  0.00     0.016 A 
HETATM   13  C   UNL     1       5.030  33.499  64.976  1.00  0.00     0.037 A 
HETATM   14  C   UNL     1       6.074  33.944  65.788  1.00  0.00     0.068 A 
HETATM   15  C   UNL     1       7.388  33.778  65.355  1.00  0.00     0.037 A 
HETATM   16  C   UNL     1       7.652  33.163  64.124  1.00  0.00     0.016 A 
BRANCH  14  17
HETATM   17  O   UNL     1       5.675  34.524  66.961  1.00  0.00    -0.356 OA
HETATM   18  C   UNL     1       4.432  34.092  67.499  1.00  0.00     0.210 C 
ENDBRANCH  14  17
ENDBRANCH   9  11
ENDBRANCH   1   5
BRANCH   2  19
HETATM   19  N   UNL     1       6.765  29.655  56.683  1.00  0.00    -0.267 N 
HETATM   20  C   UNL     1       7.674  28.900  55.969  1.00  0.00     0.240 C 
HETATM   21  O   UNL     1       8.829  28.723  56.362  1.00  0.00    -0.272 OA
HETATM   22  H   UNL     1       5.765  29.655  56.480  1.00  0.00     0.190 HD
BRANCH  20  23
HETATM   23  C   UNL     1       7.150  28.326  54.670  1.00  0.00     0.143 C 
BRANCH  23  24
HETATM   24  C   UNL     1       7.228  26.821  54.564  1.00  0.00    -0.049 A 
HETATM   25  C   UNL     1       7.685  26.180  53.401  1.00  0.00     0.009 A 
HETATM   26  C   UNL     1       7.792  24.787  53.352  1.00  0.00     0.024 A 
HETATM   27  C   UNL     1       7.463  24.026  54.469  1.00  0.00     0.034 A 
HETATM   28 CL   UNL     1       7.604  22.312  54.410  1.00  0.00    -0.084 Cl
HETATM   29  C   UNL     1       7.029  24.645  55.637  1.00  0.00     0.024 A 
HETATM   30  C   UNL     1       6.916  26.037  55.686  1.00  0.00     0.009 A 
ENDBRANCH  23  24
ENDBRANCH  20  23
ENDBRANCH   2  19
TORSDOF 6
ENDMDL
MODEL 7
REMARK VINA RESULT:      -8.8      2.234      2.960
REMARK  6 active torsions:
REMARK  status: ('A' for Active; 'I' for Inactive)
REMARK    1  A    between atoms: O_2  and  C_3 
REMARK    2  A    between atoms: C_6  and  C_7 
REMARK    3  A    between atoms: C_11  and  C_12 
REMARK       I    between atoms: C_12  and  N_13 
REMARK    4  A    between atoms: N_13  and  N_14 
REMARK       I    between atoms: N_14  and  C_15 
REMARK    5  A    between atoms: C_15  and  C_16 
REMARK    6  A    between atoms: C_16  and  C_17 
ROOT
HETATM    1  C   UNL     1       5.232  30.373  55.624  1.00  0.00     0.288 C 
HETATM    2  N   UNL     1       6.277  29.647  55.090  1.00  0.00    -0.262 N 
HETATM    3  O   UNL     1       4.104  30.346  55.135  1.00  0.00    -0.264 OA
HETATM    4  H   UNL     1       7.163  29.540  55.580  1.00  0.00     0.190 HD
ENDROOT
BRANCH   1   5
HETATM    5  C   UNL     1       5.557  31.138  56.796  1.00  0.00     0.121 A 
HETATM    6  N   UNL     1       5.201  32.450  56.933  1.00  0.00    -0.272 N 
HETATM    7  N   UNL     1       5.581  33.006  58.093  1.00  0.00    -0.174 NA
HETATM    8  H   UNL     1       4.697  33.019  56.259  1.00  0.00     0.189 HD
HETATM    9  C   UNL     1       6.184  32.013  58.765  1.00  0.00     0.089 A 
HETATM   10  C   UNL     1       6.207  30.830  57.974  1.00  0.00     0.071 A 
BRANCH   9  11
HETATM   11  C   UNL     1       6.717  32.198  60.118  1.00  0.00    -0.005 A 
HETATM   12  C   UNL     1       5.909  32.694  61.149  1.00  0.00     0.016 A 
HETATM   13  C   UNL     1       6.425  32.858  62.439  1.00  0.00     0.037 A 
HETATM   14  C   UNL     1       7.750  32.527  62.725  1.00  0.00     0.068 A 
HETATM   15  C   UNL     1       8.565  32.043  61.703  1.00  0.00     0.037 A 
HETATM   16  C   UNL     1       8.051  31.882  60.409  1.00  0.00     0.016 A 
BRANCH  14  17
HETATM   17  O   UNL     1       8.119  32.731  64.026  1.00  0.00    -0.356 OA
HETATM   18  C   UNL     1       7.237  33.505  64.828  1.00  0.00     0.210 C 
ENDBRANCH  14  17
ENDBRANCH   9  11
ENDBRANCH   1   5
BRANCH   2  19
HETATM   19  N   UNL     1       5.994  28.648  54.145  1.00  0.00    -0.267 N 
HETATM   20  C   UNL     1       7.061  27.885  53.714  1.00  0.00     0.240 C 
HETATM   21  O   UNL     1       8.227  28.178  53.984  1.00  0.00    -0.272 OA
HETATM   22  H   UNL     1       5.028  28.324  54.100  1.00  0.00     0.190 HD
BRANCH  20  23
HETATM   23  C   UNL     1       6.689  26.679  52.877  1.00  0.00     0.143 C 
BRANCH  23  24
HETATM   24  C   UNL     1       6.933  25.344  53.543  1.00  0.00    -0.049 A 
HETATM   25  C   UNL     1       7.415  24.235  52.830  1.00  0.00     0.009 A 
HETATM   26  C   UNL     1       7.677  23.028  53.485  1.00  0.00     0.024 A 
HETATM   27  C   UNL     1       7.480  22.927  54.859  1.00  0.00     0.034 A 
HETATM   28 CL   UNL     1       7.813  21.444  55.665  1.00  0.00    -0.084 Cl
HETATM   29  C   UNL     1       7.024  24.023  55.585  1.00  0.00     0.024 A 
HETATM   30  C   UNL     1       6.756  25.227  54.930  1.00  0.00     0.009 A 
ENDBRANCH  23  24
ENDBRANCH  20  23
ENDBRANCH   2  19
TORSDOF 6
ENDMDL
MODEL 8
REMARK VINA RESULT:      -8.5      4.181     10.758
REMARK  6 active torsions:
REMARK  status: ('A' for Active; 'I' for Inactive)
REMARK    1  A    between atoms: O_2  and  C_3 
REMARK    2  A    between atoms: C_6  and  C_7 
REMARK    3  A    between atoms: C_11  and  C_12 
REMARK       I    between atoms: C_12  and  N_13 
REMARK    4  A    between atoms: N_13  and  N_14 
REMARK       I    between atoms: N_14  and  C_15 
REMARK    5  A    between atoms: C_15  and  C_16 
REMARK    6  A    between atoms: C_16  and  C_17 
ROOT
HETATM    1  C   UNL     1       6.354  28.779  57.448  1.00  0.00     0.288 C 
HETATM    2  N   UNL     1       5.187  29.517  57.450  1.00  0.00    -0.262 N 
HETATM    3  O   UNL     1       7.313  29.075  58.159  1.00  0.00    -0.264 OA
HETATM    4  H   UNL     1       4.342  29.186  56.989  1.00  0.00     0.190 HD
ENDROOT
BRANCH   1   5
HETATM    5  C   UNL     1       6.352  27.638  56.574  1.00  0.00     0.121 A 
HETATM    6  N   UNL     1       5.375  27.434  55.642  1.00  0.00    -0.272 N 
HETATM    7  N   UNL     1       5.535  26.322  54.909  1.00  0.00    -0.174 NA
HETATM    8  H   UNL     1       4.569  28.026  55.463  1.00  0.00     0.189 HD
HETATM    9  C   UNL     1       6.682  25.784  55.354  1.00  0.00     0.089 A 
HETATM   10  C   UNL     1       7.213  26.571  56.414  1.00  0.00     0.071 A 
BRANCH   9  11
HETATM   11  C   UNL     1       7.244  24.559  54.778  1.00  0.00    -0.005 A 
HETATM   12  C   UNL     1       7.659  23.502  55.597  1.00  0.00     0.016 A 
HETATM   13  C   UNL     1       8.185  22.334  55.037  1.00  0.00     0.037 A 
HETATM   14  C   UNL     1       8.303  22.195  53.653  1.00  0.00     0.068 A 
HETATM   15  C   UNL     1       7.901  23.245  52.830  1.00  0.00     0.037 A 
HETATM   16  C   UNL     1       7.377  24.419  53.389  1.00  0.00     0.016 A 
BRANCH  14  17
HETATM   17  O   UNL     1       8.826  21.000  53.243  1.00  0.00    -0.356 OA
HETATM   18  C   UNL     1       8.783  19.928  54.175  1.00  0.00     0.210 C 
ENDBRANCH  14  17
ENDBRANCH   9  11
ENDBRANCH   1   5
BRANCH   2  19
HETATM   19  N   UNL     1       4.981  30.453  58.475  1.00  0.00    -0.267 N 
HETATM   20  C   UNL     1       4.971  31.784  58.105  1.00  0.00     0.240 C 
HETATM   21  O   UNL     1       5.316  32.152  56.981  1.00  0.00    -0.272 OA
HETATM   22  H   UNL     1       4.523  30.110  59.320  1.00  0.00     0.190 HD
BRANCH  20  23
HETATM   23  C   UNL     1       4.522  32.745  59.185  1.00  0.00     0.143 C 
BRANCH  23  24
HETATM   24  C   UNL     1       5.400  32.774  60.415  1.00  0.00    -0.049 A 
HETATM   25  C   UNL     1       6.786  32.562  60.344  1.00  0.00     0.009 A 
HETATM   26  C   UNL     1       7.577  32.644  61.493  1.00  0.00     0.024 A 
HETATM   27  C   UNL     1       6.994  32.959  62.717  1.00  0.00     0.034 A 
HETATM   28 CL   UNL     1       7.971  33.070  64.128  1.00  0.00    -0.084 Cl
HETATM   29  C   UNL     1       5.625  33.194  62.802  1.00  0.00     0.024 A 
HETATM   30  C   UNL     1       4.833  33.107  61.655  1.00  0.00     0.009 A 
ENDBRANCH  23  24
ENDBRANCH  20  23
ENDBRANCH   2  19
TORSDOF 6
ENDMDL
MODEL 9
REMARK VINA RESULT:      -8.3      5.398      8.655
REMARK  6 active torsions:
REMARK  status: ('A' for Active; 'I' for Inactive)
REMARK    1  A    between atoms: O_2  and  C_3 
REMARK    2  A    between atoms: C_6  and  C_7 
REMARK    3  A    between atoms: C_11  and  C_12 
REMARK       I    between atoms: C_12  and  N_13 
REMARK    4  A    between atoms: N_13  and  N_14 
REMARK       I    between atoms: N_14  and  C_15 
REMARK    5  A    between atoms: C_15  and  C_16 
REMARK    6  A    between atoms: C_16  and  C_17 
ROOT
HETATM    1  C   UNL     1       5.347  34.352  64.050  1.00  0.00     0.288 C 
HETATM    2  N   UNL     1       6.500  34.323  63.292  1.00  0.00    -0.262 N 
HETATM    3  O   UNL     1       4.232  34.226  63.546  1.00  0.00    -0.264 OA
HETATM    4  H   UNL     1       7.422  34.266  63.719  1.00  0.00     0.190 HD
ENDROOT
BRANCH   1   5
HETATM    5  C   UNL     1       5.550  34.520  65.463  1.00  0.00     0.121 A 
HETATM    6  N   UNL     1       4.750  35.324  66.224  1.00  0.00    -0.272 N 
HETATM    7  N   UNL     1       5.081  35.358  67.524  1.00  0.00    -0.174 NA
HETATM    8  H   UNL     1       3.960  35.877  65.905  1.00  0.00     0.189 HD
HETATM    9  C   UNL     1       6.122  34.517  67.632  1.00  0.00     0.089 A 
HETATM   10  C   UNL     1       6.459  33.988  66.355  1.00  0.00     0.071 A 
BRANCH   9  11
HETATM   11  C   UNL     1       6.766  34.235  68.918  1.00  0.00    -0.005 A 
HETATM   12  C   UNL     1       6.206  33.321  69.819  1.00  0.00     0.016 A 
HETATM   13  C   UNL     1       6.834  33.052  71.040  1.00  0.00     0.037 A 
HETATM   14  C   UNL     1       8.030  33.684  71.383  1.00  0.00     0.068 A 
HETATM   15  C   UNL     1       8.589  34.604  70.497  1.00  0.00     0.037 A 
HETATM   16  C   UNL     1       7.960  34.878  69.275  1.00  0.00     0.016 A 
BRANCH  14  17
HETATM   17  O   UNL     1       8.536  33.324  72.601  1.00  0.00    -0.356 OA
HETATM   18  C   UNL     1       8.125  32.065  73.118  1.00  0.00     0.210 C 
ENDBRANCH  14  17
ENDBRANCH   9  11
ENDBRANCH   1   5
BRANCH   2  19
HETATM   19  N   UNL     1       6.426  33.866  61.966  1.00  0.00    -0.267 N 
HETATM   20  C   UNL     1       6.842  32.569  61.735  1.00  0.00     0.240 C 
HETATM   21  O   UNL     1       7.427  31.907  62.595  1.00  0.00    -0.272 OA
HETATM   22  H   UNL     1       5.780  34.358  61.349  1.00  0.00     0.190 HD
BRANCH  20  23
HETATM   23  C   UNL     1       6.537  32.036  60.351  1.00  0.00     0.143 C 
BRANCH  23  24
HETATM   24  C   UNL     1       7.726  31.463  59.616  1.00  0.00    -0.049 A 
HETATM   25  C   UNL     1       7.644  30.265  58.889  1.00  0.00     0.009 A 
HETATM   26  C   UNL     1       8.749  29.787  58.178  1.00  0.00     0.024 A 
HETATM   27  C   UNL     1       9.937  30.511  58.173  1.00  0.00     0.034 A 
HETATM   28 CL   UNL     1      11.293  29.926  57.291  1.00  0.00    -0.084 Cl
HETATM   29  C   UNL     1      10.030  31.712  58.870  1.00  0.00     0.024 A 
HETATM   30  C   UNL     1       8.928  32.188  59.585  1.00  0.00     0.009 A 
ENDBRANCH  23  24
ENDBRANCH  20  23
ENDBRANCH   2  19
TORSDOF 6
ENDMDL
MODEL 10
REMARK VINA RESULT:      -8.3      8.890     11.161
REMARK  6 active torsions:
REMARK  status: ('A' for Active; 'I' for Inactive)
REMARK    1  A    between atoms: O_2  and  C_3 
REMARK    2  A    between atoms: C_6  and  C_7 
REMARK    3  A    between atoms: C_11  and  C_12 
REMARK       I    between atoms: C_12  and  N_13 
REMARK    4  A    between atoms: N_13  and  N_14 
REMARK       I    between atoms: N_14  and  C_15 
REMARK    5  A    between atoms: C_15  and  C_16 
REMARK    6  A    between atoms: C_16  and  C_17 
ROOT
HETATM    1  C   UNL     1       4.809  27.247  50.007  1.00  0.00     0.288 C 
HETATM    2  N   UNL     1       3.602  26.908  49.428  1.00  0.00    -0.262 N 
HETATM    3  O   UNL     1       5.503  28.166  49.576  1.00  0.00    -0.264 OA
HETATM    4  H   UNL     1       2.955  26.262  49.874  1.00  0.00     0.190 HD
ENDROOT
BRANCH   1   5
HETATM    5  C   UNL     1       5.177  26.462  51.153  1.00  0.00     0.121 A 
HETATM    6  N   UNL     1       4.408  26.415  52.282  1.00  0.00    -0.272 N 
HETATM    7  N   UNL     1       4.901  25.628  53.250  1.00  0.00    -0.174 NA
HETATM    8  H   UNL     1       3.534  26.905  52.446  1.00  0.00     0.189 HD
HETATM    9  C   UNL     1       6.023  25.108  52.729  1.00  0.00     0.089 A 
HETATM   10  C   UNL     1       6.241  25.625  51.421  1.00  0.00     0.071 A 
BRANCH   9  11
HETATM   11  C   UNL     1       6.853  24.150  53.465  1.00  0.00    -0.005 A 
HETATM   12  C   UNL     1       7.749  23.308  52.793  1.00  0.00     0.016 A 
HETATM   13  C   UNL     1       8.543  22.404  53.505  1.00  0.00     0.037 A 
HETATM   14  C   UNL     1       8.464  22.324  54.896  1.00  0.00     0.068 A 
HETATM   15  C   UNL     1       7.568  23.150  55.573  1.00  0.00     0.037 A 
HETATM   16  C   UNL     1       6.768  24.055  54.861  1.00  0.00     0.016 A 
BRANCH  14  17
HETATM   17  O   UNL     1       9.300  21.403  55.462  1.00  0.00    -0.356 OA
HETATM   18  C   UNL     1       8.775  20.638  56.540  1.00  0.00     0.210 C 
ENDBRANCH  14  17
ENDBRANCH   9  11
ENDBRANCH   1   5
BRANCH   2  19
HETATM   19  N   UNL     1       3.020  27.796  48.509  1.00  0.00    -0.267 N 
HETATM   20  C   UNL     1       2.126  28.717  49.020  1.00  0.00     0.240 C 
HETATM   21  O   UNL     1       1.707  28.649  50.177  1.00  0.00    -0.272 OA
HETATM   22  H   UNL     1       3.522  27.940  47.633  1.00  0.00     0.190 HD
BRANCH  20  23
HETATM   23  C   UNL     1       1.695  29.797  48.051  1.00  0.00     0.143 C 
BRANCH  23  24
HETATM   24  C   UNL     1       2.823  30.628  47.484  1.00  0.00    -0.049 A 
HETATM   25  C   UNL     1       3.784  31.237  48.306  1.00  0.00     0.009 A 
HETATM   26  C   UNL     1       4.843  31.959  47.747  1.00  0.00     0.024 A 
HETATM   27  C   UNL     1       4.961  32.060  46.364  1.00  0.00     0.034 A 
HETATM   28 CL   UNL     1       6.270  32.941  45.679  1.00  0.00    -0.084 Cl
HETATM   29  C   UNL     1       4.029  31.445  45.534  1.00  0.00     0.024 A 
HETATM   30  C   UNL     1       2.968  30.728  46.091  1.00  0.00     0.009 A 
ENDBRANCH  23  24
ENDBRANCH  20  23
ENDBRANCH   2  19
TORSDOF 6
ENDMDL
