MODEL 1
REMARK VINA RESULT:     -11.1      0.000      0.000
REMARK  8 active torsions:
REMARK  status: ('A' for Active; 'I' for Inactive)
REMARK    1  A    between atoms: O_2  and  C_3 
REMARK    2  A    between atoms: C_5  and  O_6 
REMARK    3  A    between atoms: C_9  and  N_10 
REMARK       I    between atoms: N_10  and  C_11 
REMARK       I    between atoms: C_11  and  N_12 
REMARK    4  A    between atoms: N_12  and  C_13 
REMARK    5  A    between atoms: C_16  and  N_17 
REMARK    6  A    between atoms: N_20  and  C_22 
REMARK    7  A    between atoms: C_22  and  C_23 
REMARK    8  A    between atoms: C_25  and  C_26 
ROOT
HETATM    1  C   UNL     1       7.794  31.768  60.197  1.00  0.00     0.054 A 
HETATM    2  C   UNL     1       8.713  30.777  59.881  1.00  0.00     0.148 A 
HETATM    3  N   UNL     1       8.642  29.984  58.773  1.00  0.00    -0.241 NA
HETATM    4  C   UNL     1       7.613  30.153  57.918  1.00  0.00     0.125 A 
HETATM    5  C   UNL     1       6.681  31.165  58.140  1.00  0.00     0.052 A 
HETATM    6  C   UNL     1       6.773  31.975  59.277  1.00  0.00     0.035 A 
ENDROOT
BRANCH   4   7
HETATM    7  N   UNL     1       7.466  29.240  56.877  1.00  0.00    -0.364 N 
HETATM    8  C   UNL     1       6.100  28.756  56.646  1.00  0.00     0.152 C 
HETATM    9  C   UNL     1       5.895  27.272  57.000  1.00  0.00     0.255 C 
HETATM   10  N   UNL     1       6.668  26.404  56.005  1.00  0.00    -0.066 N 
HETATM   11  H   UNL     1       6.796  26.999  55.179  1.00  0.00     0.280 HD
HETATM   12  C   UNL     1       8.055  26.045  56.461  1.00  0.00     0.237 C 
HETATM   13  C   UNL     1       8.859  27.219  57.017  1.00  0.00     0.047 C 
HETATM   14  C   UNL     1       8.628  28.555  56.319  1.00  0.00     0.126 C 
BRANCH  10  15
HETATM   15  C   UNL     1       5.876  25.237  55.451  1.00  0.00     0.273 C 
BRANCH  15  16
HETATM   16  C   UNL     1       6.652  24.169  54.729  1.00  0.00    -0.032 A 
HETATM   17  C   UNL     1       7.042  22.995  55.401  1.00  0.00     0.025 A 
HETATM   18  C   UNL     1       7.788  21.996  54.751  1.00  0.00     0.048 A 
HETATM   19  C   UNL     1       8.147  22.185  53.411  1.00  0.00     0.016 A 
HETATM   20  C   UNL     1       7.772  23.346  52.736  1.00  0.00     0.001 A 
HETATM   21  C   UNL     1       7.031  24.331  53.389  1.00  0.00     0.009 A 
BRANCH  18  22
HETATM   22  C   UNL     1       8.217  20.739  55.477  1.00  0.00     0.417 C 
HETATM   23  F   UNL     1       8.660  19.770  54.627  1.00  0.00    -0.166 F 
HETATM   24  F   UNL     1       9.235  20.966  56.348  1.00  0.00    -0.166 F 
HETATM   25  F   UNL     1       7.208  20.180  56.194  1.00  0.00    -0.166 F 
ENDBRANCH  18  22
ENDBRANCH  15  16
ENDBRANCH  10  15
ENDBRANCH   4   7
BRANCH   1  26
HETATM   26  N   UNL     1       7.792  32.551  61.371  1.00  0.00    -0.307 N 
HETATM   27  C   UNL     1       6.913  32.439  62.440  1.00  0.00     0.325 C 
HETATM   28  N   UNL     1       7.179  33.410  63.393  1.00  0.00    -0.309 N 
HETATM   29  O   UNL     1       6.019  31.605  62.505  1.00  0.00    -0.247 OA
HETATM   30  H   UNL     1       8.041  33.925  63.287  1.00  0.00     0.170 HD
HETATM   31  H   UNL     1       8.390  33.363  61.368  1.00  0.00     0.170 HD
BRANCH  28  32
HETATM   32  C   UNL     1       6.442  33.705  64.563  1.00  0.00     0.041 A 
HETATM   33  C   UNL     1       7.013  33.845  65.835  1.00  0.00     0.066 A 
HETATM   34  C   UNL     1       6.216  34.146  66.947  1.00  0.00     0.073 A 
HETATM   35  C   UNL     1       4.838  34.285  66.791  1.00  0.00     0.073 A 
HETATM   36  C   UNL     1       4.264  34.116  65.535  1.00  0.00     0.073 A 
HETATM   37  C   UNL     1       5.057  33.848  64.421  1.00  0.00     0.066 A 
BRANCH  34  38
HETATM   38  O   UNL     1       6.662  34.322  68.230  1.00  0.00    -0.356 OA
HETATM   39  C   UNL     1       5.712  34.134  69.272  1.00  0.00     0.210 C 
ENDBRANCH  34  38
BRANCH  36  40
HETATM   40  O   UNL     1       2.917  34.294  65.373  1.00  0.00    -0.356 OA
HETATM   41  C   UNL     1       2.569  34.187  63.992  1.00  0.00     0.210 C 
ENDBRANCH  36  40
ENDBRANCH  28  32
ENDBRANCH   1  26
TORSDOF 8
ENDMDL
MODEL 2
REMARK VINA RESULT:     -10.7      1.721      2.350
REMARK  8 active torsions:
REMARK  status: ('A' for Active; 'I' for Inactive)
REMARK    1  A    between atoms: O_2  and  C_3 
REMARK    2  A    between atoms: C_5  and  O_6 
REMARK    3  A    between atoms: C_9  and  N_10 
REMARK       I    between atoms: N_10  and  C_11 
REMARK       I    between atoms: C_11  and  N_12 
REMARK    4  A    between atoms: N_12  and  C_13 
REMARK    5  A    between atoms: C_16  and  N_17 
REMARK    6  A    between atoms: N_20  and  C_22 
REMARK    7  A    between atoms: C_22  and  C_23 
REMARK    8  A    between atoms: C_25  and  C_26 
ROOT
HETATM    1  C   UNL     1       6.710  31.266  58.944  1.00  0.00     0.054 A 
HETATM    2  C   UNL     1       7.847  30.509  59.187  1.00  0.00     0.148 A 
HETATM    3  N   UNL     1       8.151  29.345  58.543  1.00  0.00    -0.241 NA
HETATM    4  C   UNL     1       7.297  28.877  57.610  1.00  0.00     0.125 A 
HETATM    5  C   UNL     1       6.162  29.611  57.273  1.00  0.00     0.052 A 
HETATM    6  C   UNL     1       5.869  30.807  57.936  1.00  0.00     0.035 A 
ENDROOT
BRANCH   4   7
HETATM    7  N   UNL     1       7.538  27.615  57.073  1.00  0.00    -0.364 N 
HETATM    8  C   UNL     1       8.150  27.600  55.739  1.00  0.00     0.152 C 
HETATM    9  C   UNL     1       7.214  27.088  54.629  1.00  0.00     0.255 C 
HETATM   10  N   UNL     1       6.959  25.593  54.834  1.00  0.00    -0.066 N 
HETATM   11  H   UNL     1       7.748  25.266  55.402  1.00  0.00     0.280 HD
HETATM   12  C   UNL     1       5.728  25.291  55.642  1.00  0.00     0.237 C 
HETATM   13  C   UNL     1       5.590  26.124  56.914  1.00  0.00     0.047 C 
HETATM   14  C   UNL     1       6.898  26.431  57.637  1.00  0.00     0.126 C 
BRANCH  10  15
HETATM   15  C   UNL     1       7.094  24.761  53.575  1.00  0.00     0.273 C 
BRANCH  15  16
HETATM   16  C   UNL     1       7.540  23.334  53.745  1.00  0.00    -0.032 A 
HETATM   17  C   UNL     1       7.713  22.792  55.032  1.00  0.00     0.025 A 
HETATM   18  C   UNL     1       8.153  21.468  55.213  1.00  0.00     0.048 A 
HETATM   19  C   UNL     1       8.423  20.686  54.084  1.00  0.00     0.016 A 
HETATM   20  C   UNL     1       8.261  21.213  52.803  1.00  0.00     0.001 A 
HETATM   21  C   UNL     1       7.823  22.528  52.635  1.00  0.00     0.009 A 
BRANCH  18  22
HETATM   22  C   UNL     1       8.350  20.888  56.597  1.00  0.00     0.417 C 
HETATM   23  F   UNL     1       9.560  20.276  56.740  1.00  0.00    -0.166 F 
HETATM   24  F   UNL     1       8.294  21.837  57.568  1.00  0.00    -0.166 F 
HETATM   25  F   UNL     1       7.414  19.955  56.910  1.00  0.00    -0.166 F 
ENDBRANCH  18  22
ENDBRANCH  15  16
ENDBRANCH  10  15
ENDBRANCH   4   7
BRANCH   1  26
HETATM   26  N   UNL     1       6.324  32.430  59.644  1.00  0.00    -0.307 N 
HETATM   27  C   UNL     1       6.271  32.588  61.022  1.00  0.00     0.325 C 
HETATM   28  N   UNL     1       5.795  33.849  61.349  1.00  0.00    -0.309 N 
HETATM   29  O   UNL     1       6.583  31.717  61.823  1.00  0.00    -0.247 OA
HETATM   30  H   UNL     1       5.730  34.518  60.596  1.00  0.00     0.170 HD
HETATM   31  H   UNL     1       5.907  33.165  59.093  1.00  0.00     0.170 HD
BRANCH  28  32
HETATM   32  C   UNL     1       5.485  34.356  62.632  1.00  0.00     0.041 A 
HETATM   33  C   UNL     1       5.057  33.564  63.705  1.00  0.00     0.066 A 
HETATM   34  C   UNL     1       4.775  34.140  64.951  1.00  0.00     0.073 A 
HETATM   35  C   UNL     1       4.900  35.519  65.117  1.00  0.00     0.073 A 
HETATM   36  C   UNL     1       5.295  36.311  64.045  1.00  0.00     0.073 A 
HETATM   37  C   UNL     1       5.606  35.738  62.813  1.00  0.00     0.066 A 
BRANCH  34  38
HETATM   38  O   UNL     1       4.368  33.469  66.073  1.00  0.00    -0.356 OA
HETATM   39  C   UNL     1       4.713  34.044  67.328  1.00  0.00     0.210 C 
ENDBRANCH  34  38
BRANCH  36  40
HETATM   40  O   UNL     1       5.459  37.659  64.218  1.00  0.00    -0.356 OA
HETATM   41  C   UNL     1       6.196  38.209  63.125  1.00  0.00     0.210 C 
ENDBRANCH  36  40
ENDBRANCH  28  32
ENDBRANCH   1  26
TORSDOF 8
ENDMDL
MODEL 3
REMARK VINA RESULT:     -10.6      1.031      2.261
REMARK  8 active torsions:
REMARK  status: ('A' for Active; 'I' for Inactive)
REMARK    1  A    between atoms: O_2  and  C_3 
REMARK    2  A    between atoms: C_5  and  O_6 
REMARK    3  A    between atoms: C_9  and  N_10 
REMARK       I    between atoms: N_10  and  C_11 
REMARK       I    between atoms: C_11  and  N_12 
REMARK    4  A    between atoms: N_12  and  C_13 
REMARK    5  A    between atoms: C_16  and  N_17 
REMARK    6  A    between atoms: N_20  and  C_22 
REMARK    7  A    between atoms: C_22  and  C_23 
REMARK    8  A    between atoms: C_25  and  C_26 
ROOT
HETATM    1  C   UNL     1       7.882  31.432  59.389  1.00  0.00     0.054 A 
HETATM    2  C   UNL     1       9.073  30.731  59.263  1.00  0.00     0.148 A 
HETATM    3  N   UNL     1       9.282  29.719  58.372  1.00  0.00    -0.241 NA
HETATM    4  C   UNL     1       8.272  29.353  57.556  1.00  0.00     0.125 A 
HETATM    5  C   UNL     1       7.064  30.047  57.587  1.00  0.00     0.052 A 
HETATM    6  C   UNL     1       6.870  31.089  58.501  1.00  0.00     0.035 A 
ENDROOT
BRANCH   4   7
HETATM    7  N   UNL     1       8.445  28.222  56.763  1.00  0.00    -0.364 N 
HETATM    8  C   UNL     1       7.825  28.278  55.434  1.00  0.00     0.152 C 
HETATM    9  C   UNL     1       6.634  27.320  55.260  1.00  0.00     0.255 C 
HETATM   10  N   UNL     1       7.142  25.876  55.267  1.00  0.00    -0.066 N 
HETATM   11  H   UNL     1       8.133  25.943  55.012  1.00  0.00     0.280 HD
HETATM   12  C   UNL     1       7.119  25.230  56.625  1.00  0.00     0.237 C 
HETATM   13  C   UNL     1       7.693  26.096  57.743  1.00  0.00     0.047 C 
HETATM   14  C   UNL     1       8.887  26.961  57.351  1.00  0.00     0.126 C 
BRANCH  10  15
HETATM   15  C   UNL     1       6.575  25.012  54.160  1.00  0.00     0.273 C 
BRANCH  15  16
HETATM   16  C   UNL     1       7.138  23.622  54.024  1.00  0.00    -0.032 A 
HETATM   17  C   UNL     1       7.378  22.837  55.167  1.00  0.00     0.025 A 
HETATM   18  C   UNL     1       7.926  21.546  55.064  1.00  0.00     0.048 A 
HETATM   19  C   UNL     1       8.237  21.045  53.794  1.00  0.00     0.016 A 
HETATM   20  C   UNL     1       8.009  21.814  52.654  1.00  0.00     0.001 A 
HETATM   21  C   UNL     1       7.464  23.094  52.768  1.00  0.00     0.009 A 
BRANCH  18  22
HETATM   22  C   UNL     1       8.195  20.706  56.293  1.00  0.00     0.417 C 
HETATM   23  F   UNL     1       9.346  19.983  56.191  1.00  0.00    -0.166 F 
HETATM   24  F   UNL     1       8.326  21.460  57.416  1.00  0.00    -0.166 F 
HETATM   25  F   UNL     1       7.205  19.809  56.540  1.00  0.00    -0.166 F 
ENDBRANCH  18  22
ENDBRANCH  15  16
ENDBRANCH  10  15
ENDBRANCH   4   7
BRANCH   1  26
HETATM   26  N   UNL     1       7.605  32.429  60.350  1.00  0.00    -0.307 N 
HETATM   27  C   UNL     1       6.986  32.245  61.578  1.00  0.00     0.325 C 
HETATM   28  N   UNL     1       6.833  33.458  62.232  1.00  0.00    -0.309 N 
HETATM   29  O   UNL     1       6.613  31.158  62.001  1.00  0.00    -0.247 OA
HETATM   30  H   UNL     1       7.328  34.248  61.844  1.00  0.00     0.170 HD
HETATM   31  H   UNL     1       7.735  33.384  60.052  1.00  0.00     0.170 HD
BRANCH  28  32
HETATM   32  C   UNL     1       6.151  33.714  63.444  1.00  0.00     0.041 A 
HETATM   33  C   UNL     1       4.765  33.895  63.541  1.00  0.00     0.066 A 
HETATM   34  C   UNL     1       4.160  34.137  64.781  1.00  0.00     0.073 A 
HETATM   35  C   UNL     1       4.949  34.222  65.928  1.00  0.00     0.073 A 
HETATM   36  C   UNL     1       6.328  34.074  65.830  1.00  0.00     0.073 A 
HETATM   37  C   UNL     1       6.930  33.801  64.604  1.00  0.00     0.066 A 
BRANCH  34  38
HETATM   38  O   UNL     1       2.820  34.312  65.001  1.00  0.00    -0.356 OA
HETATM   39  C   UNL     1       1.955  34.116  63.888  1.00  0.00     0.210 C 
ENDBRANCH  34  38
BRANCH  36  40
HETATM   40  O   UNL     1       7.098  34.114  66.961  1.00  0.00    -0.356 OA
HETATM   41  C   UNL     1       6.299  34.478  68.088  1.00  0.00     0.210 C 
ENDBRANCH  36  40
ENDBRANCH  28  32
ENDBRANCH   1  26
TORSDOF 8
ENDMDL
MODEL 4
REMARK VINA RESULT:     -10.5      1.979      2.893
REMARK  8 active torsions:
REMARK  status: ('A' for Active; 'I' for Inactive)
REMARK    1  A    between atoms: O_2  and  C_3 
REMARK    2  A    between atoms: C_5  and  O_6 
REMARK    3  A    between atoms: C_9  and  N_10 
REMARK       I    between atoms: N_10  and  C_11 
REMARK       I    between atoms: C_11  and  N_12 
REMARK    4  A    between atoms: N_12  and  C_13 
REMARK    5  A    between atoms: C_16  and  N_17 
REMARK    6  A    between atoms: N_20  and  C_22 
REMARK    7  A    between atoms: C_22  and  C_23 
REMARK    8  A    between atoms: C_25  and  C_26 
ROOT
HETATM    1  C   UNL     1       5.762  31.414  58.524  1.00  0.00     0.054 A 
HETATM    2  C   UNL     1       7.068  30.961  58.402  1.00  0.00     0.148 A 
HETATM    3  N   UNL     1       7.423  29.776  57.825  1.00  0.00    -0.241 NA
HETATM    4  C   UNL     1       6.454  28.972  57.344  1.00  0.00     0.125 A 
HETATM    5  C   UNL     1       5.123  29.384  57.381  1.00  0.00     0.052 A 
HETATM    6  C   UNL     1       4.777  30.606  57.968  1.00  0.00     0.035 A 
ENDROOT
BRANCH   4   7
HETATM    7  N   UNL     1       6.814  27.702  56.901  1.00  0.00    -0.364 N 
HETATM    8  C   UNL     1       7.969  27.649  55.998  1.00  0.00     0.152 C 
HETATM    9  C   UNL     1       7.616  27.253  54.553  1.00  0.00     0.255 C 
HETATM   10  N   UNL     1       7.176  25.788  54.525  1.00  0.00    -0.066 N 
HETATM   11  H   UNL     1       7.583  25.373  55.371  1.00  0.00     0.280 HD
HETATM   12  C   UNL     1       5.691  25.596  54.658  1.00  0.00     0.237 C 
HETATM   13  C   UNL     1       5.047  26.416  55.774  1.00  0.00     0.047 C 
HETATM   14  C   UNL     1       5.892  26.578  57.034  1.00  0.00     0.126 C 
BRANCH  10  15
HETATM   15  C   UNL     1       7.810  24.969  53.419  1.00  0.00     0.273 C 
BRANCH  15  16
HETATM   16  C   UNL     1       7.902  23.483  53.639  1.00  0.00    -0.032 A 
HETATM   17  C   UNL     1       8.073  22.964  54.936  1.00  0.00     0.025 A 
HETATM   18  C   UNL     1       8.186  21.580  55.160  1.00  0.00     0.048 A 
HETATM   19  C   UNL     1       8.128  20.712  54.063  1.00  0.00     0.016 A 
HETATM   20  C   UNL     1       7.964  21.214  52.772  1.00  0.00     0.001 A 
HETATM   21  C   UNL     1       7.852  22.589  52.561  1.00  0.00     0.009 A 
BRANCH  18  22
HETATM   22  C   UNL     1       8.381  21.023  56.553  1.00  0.00     0.417 C 
HETATM   23  F   UNL     1       9.551  20.336  56.682  1.00  0.00    -0.166 F 
HETATM   24  F   UNL     1       8.413  21.997  57.500  1.00  0.00    -0.166 F 
HETATM   25  F   UNL     1       7.395  20.162  56.914  1.00  0.00    -0.166 F 
ENDBRANCH  18  22
ENDBRANCH  15  16
ENDBRANCH  10  15
ENDBRANCH   4   7
BRANCH   1  26
HETATM   26  N   UNL     1       5.352  32.593  59.182  1.00  0.00    -0.307 N 
HETATM   27  C   UNL     1       5.637  32.952  60.492  1.00  0.00     0.325 C 
HETATM   28  N   UNL     1       5.024  34.153  60.813  1.00  0.00    -0.309 N 
HETATM   29  O   UNL     1       6.319  32.277  61.253  1.00  0.00    -0.247 OA
HETATM   30  H   UNL     1       4.628  34.679  60.046  1.00  0.00     0.170 HD
HETATM   31  H   UNL     1       4.666  33.156  58.704  1.00  0.00     0.170 HD
BRANCH  28  32
HETATM   32  C   UNL     1       4.972  34.795  62.071  1.00  0.00     0.041 A 
HETATM   33  C   UNL     1       5.449  36.090  62.312  1.00  0.00     0.066 A 
HETATM   34  C   UNL     1       5.354  36.662  63.587  1.00  0.00     0.073 A 
HETATM   35  C   UNL     1       4.801  35.925  64.634  1.00  0.00     0.073 A 
HETATM   36  C   UNL     1       4.356  34.628  64.406  1.00  0.00     0.073 A 
HETATM   37  C   UNL     1       4.419  34.068  63.132  1.00  0.00     0.066 A 
BRANCH  34  38
HETATM   38  O   UNL     1       5.769  37.920  63.936  1.00  0.00    -0.356 OA
HETATM   39  C   UNL     1       6.399  38.694  62.922  1.00  0.00     0.210 C 
ENDBRANCH  34  38
BRANCH  36  40
HETATM   40  O   UNL     1       3.774  33.920  65.422  1.00  0.00    -0.356 OA
HETATM   41  C   UNL     1       4.560  34.029  66.611  1.00  0.00     0.210 C 
ENDBRANCH  36  40
ENDBRANCH  28  32
ENDBRANCH   1  26
TORSDOF 8
ENDMDL
MODEL 5
REMARK VINA RESULT:     -10.4      2.233      2.772
REMARK  8 active torsions:
REMARK  status: ('A' for Active; 'I' for Inactive)
REMARK    1  A    between atoms: O_2  and  C_3 
REMARK    2  A    between atoms: C_5  and  O_6 
REMARK    3  A    between atoms: C_9  and  N_10 
REMARK       I    between atoms: N_10  and  C_11 
REMARK       I    between atoms: C_11  and  N_12 
REMARK    4  A    between atoms: N_12  and  C_13 
REMARK    5  A    between atoms: C_16  and  N_17 
REMARK    6  A    between atoms: N_20  and  C_22 
REMARK    7  A    between atoms: C_22  and  C_23 
REMARK    8  A    between atoms: C_25  and  C_26 
ROOT
HETATM    1  C   UNL     1       4.503  32.474  58.894  1.00  0.00     0.054 A 
HETATM    2  C   UNL     1       5.721  32.456  58.228  1.00  0.00     0.148 A 
HETATM    3  N   UNL     1       6.142  31.442  57.419  1.00  0.00    -0.241 NA
HETATM    4  C   UNL     1       5.340  30.371  57.249  1.00  0.00     0.125 A 
HETATM    5  C   UNL     1       4.079  30.342  57.841  1.00  0.00     0.052 A 
HETATM    6  C   UNL     1       3.659  31.395  58.661  1.00  0.00     0.035 A 
ENDROOT
BRANCH   4   7
HETATM    7  N   UNL     1       5.844  29.278  56.549  1.00  0.00    -0.364 N 
HETATM    8  C   UNL     1       4.900  28.175  56.330  1.00  0.00     0.152 C 
HETATM    9  C   UNL     1       5.240  26.897  57.119  1.00  0.00     0.255 C 
HETATM   10  N   UNL     1       6.521  26.281  56.553  1.00  0.00    -0.066 N 
HETATM   11  H   UNL     1       6.595  26.653  55.599  1.00  0.00     0.280 HD
HETATM   12  C   UNL     1       7.773  26.727  57.257  1.00  0.00     0.237 C 
HETATM   13  C   UNL     1       7.860  28.233  57.492  1.00  0.00     0.047 C 
HETATM   14  C   UNL     1       7.283  29.101  56.379  1.00  0.00     0.126 C 
BRANCH  10  15
HETATM   15  C   UNL     1       6.442  24.786  56.318  1.00  0.00     0.273 C 
BRANCH  15  16
HETATM   16  C   UNL     1       6.991  24.271  55.015  1.00  0.00    -0.032 A 
HETATM   17  C   UNL     1       7.320  22.911  54.870  1.00  0.00     0.025 A 
HETATM   18  C   UNL     1       7.857  22.414  53.669  1.00  0.00     0.048 A 
HETATM   19  C   UNL     1       8.067  23.300  52.605  1.00  0.00     0.016 A 
HETATM   20  C   UNL     1       7.749  24.652  52.738  1.00  0.00     0.001 A 
HETATM   21  C   UNL     1       7.216  25.134  53.934  1.00  0.00     0.009 A 
BRANCH  18  22
HETATM   22  C   UNL     1       8.222  20.953  53.516  1.00  0.00     0.417 C 
HETATM   23  F   UNL     1       7.252  20.119  53.986  1.00  0.00    -0.166 F 
HETATM   24  F   UNL     1       8.421  20.602  52.218  1.00  0.00    -0.166 F 
HETATM   25  F   UNL     1       9.359  20.627  54.185  1.00  0.00    -0.166 F 
ENDBRANCH  18  22
ENDBRANCH  15  16
ENDBRANCH  10  15
ENDBRANCH   4   7
BRANCH   1  26
HETATM   26  N   UNL     1       4.069  33.467  59.799  1.00  0.00    -0.307 N 
HETATM   27  C   UNL     1       4.627  33.763  61.035  1.00  0.00     0.325 C 
HETATM   28  N   UNL     1       3.904  34.761  61.669  1.00  0.00    -0.309 N 
HETATM   29  O   UNL     1       5.610  33.196  61.494  1.00  0.00    -0.247 OA
HETATM   30  H   UNL     1       3.219  35.249  61.111  1.00  0.00     0.170 HD
HETATM   31  H   UNL     1       3.181  33.900  59.594  1.00  0.00     0.170 HD
BRANCH  28  32
HETATM   32  C   UNL     1       4.076  35.260  62.981  1.00  0.00     0.041 A 
HETATM   33  C   UNL     1       3.669  34.582  64.138  1.00  0.00     0.066 A 
HETATM   34  C   UNL     1       3.881  35.140  65.406  1.00  0.00     0.073 A 
HETATM   35  C   UNL     1       4.483  36.393  65.516  1.00  0.00     0.073 A 
HETATM   36  C   UNL     1       4.860  37.081  64.368  1.00  0.00     0.073 A 
HETATM   37  C   UNL     1       4.680  36.516  63.107  1.00  0.00     0.066 A 
BRANCH  34  38
HETATM   38  O   UNL     1       3.543  34.566  66.602  1.00  0.00    -0.356 OA
HETATM   39  C   UNL     1       4.614  34.129  67.431  1.00  0.00     0.210 C 
ENDBRANCH  34  38
BRANCH  36  40
HETATM   40  O   UNL     1       5.490  38.292  64.477  1.00  0.00    -0.356 OA
HETATM   41  C   UNL     1       6.276  38.544  63.311  1.00  0.00     0.210 C 
ENDBRANCH  36  40
ENDBRANCH  28  32
ENDBRANCH   1  26
TORSDOF 8
ENDMDL
MODEL 6
REMARK VINA RESULT:      -9.9      2.485      3.411
REMARK  8 active torsions:
REMARK  status: ('A' for Active; 'I' for Inactive)
REMARK    1  A    between atoms: O_2  and  C_3 
REMARK    2  A    between atoms: C_5  and  O_6 
REMARK    3  A    between atoms: C_9  and  N_10 
REMARK       I    between atoms: N_10  and  C_11 
REMARK       I    between atoms: C_11  and  N_12 
REMARK    4  A    between atoms: N_12  and  C_13 
REMARK    5  A    between atoms: C_16  and  N_17 
REMARK    6  A    between atoms: N_20  and  C_22 
REMARK    7  A    between atoms: C_22  and  C_23 
REMARK    8  A    between atoms: C_25  and  C_26 
ROOT
HETATM    1  C   UNL     1       4.875  32.099  58.102  1.00  0.00     0.054 A 
HETATM    2  C   UNL     1       6.085  31.456  57.885  1.00  0.00     0.148 A 
HETATM    3  N   UNL     1       6.225  30.293  57.185  1.00  0.00    -0.241 NA
HETATM    4  C   UNL     1       5.125  29.709  56.668  1.00  0.00     0.125 A 
HETATM    5  C   UNL     1       3.882  30.326  56.798  1.00  0.00     0.052 A 
HETATM    6  C   UNL     1       3.757  31.523  57.511  1.00  0.00     0.035 A 
ENDROOT
BRANCH   4   7
HETATM    7  N   UNL     1       5.259  28.448  56.092  1.00  0.00    -0.364 N 
HETATM    8  C   UNL     1       6.564  27.803  56.276  1.00  0.00     0.152 C 
HETATM    9  C   UNL     1       7.385  27.676  54.981  1.00  0.00     0.255 C 
HETATM   10  N   UNL     1       6.707  26.669  54.049  1.00  0.00    -0.066 N 
HETATM   11  H   UNL     1       6.126  26.089  54.665  1.00  0.00     0.280 HD
HETATM   12  C   UNL     1       5.755  27.294  53.068  1.00  0.00     0.237 C 
HETATM   13  C   UNL     1       4.799  28.314  53.681  1.00  0.00     0.047 C 
HETATM   14  C   UNL     1       4.307  27.984  55.087  1.00  0.00     0.126 C 
BRANCH  10  15
HETATM   15  C   UNL     1       7.651  25.655  53.437  1.00  0.00     0.273 C 
BRANCH  15  16
HETATM   16  C   UNL     1       7.897  24.393  54.220  1.00  0.00    -0.032 A 
HETATM   17  C   UNL     1       8.013  23.156  53.559  1.00  0.00     0.025 A 
HETATM   18  C   UNL     1       8.219  21.963  54.273  1.00  0.00     0.048 A 
HETATM   19  C   UNL     1       8.304  22.019  55.670  1.00  0.00     0.016 A 
HETATM   20  C   UNL     1       8.186  23.237  56.338  1.00  0.00     0.001 A 
HETATM   21  C   UNL     1       7.983  24.415  55.618  1.00  0.00     0.009 A 
BRANCH  18  22
HETATM   22  C   UNL     1       8.332  20.631  53.564  1.00  0.00     0.417 C 
HETATM   23  F   UNL     1       8.490  19.589  54.428  1.00  0.00    -0.166 F 
HETATM   24  F   UNL     1       7.228  20.342  52.827  1.00  0.00    -0.166 F 
HETATM   25  F   UNL     1       9.391  20.582  52.713  1.00  0.00    -0.166 F 
ENDBRANCH  18  22
ENDBRANCH  15  16
ENDBRANCH  10  15
ENDBRANCH   4   7
BRANCH   1  26
HETATM   26  N   UNL     1       4.682  33.258  58.886  1.00  0.00    -0.307 N 
HETATM   27  C   UNL     1       4.993  33.410  60.229  1.00  0.00     0.325 C 
HETATM   28  N   UNL     1       4.614  34.666  60.678  1.00  0.00    -0.309 N 
HETATM   29  O   UNL     1       5.510  32.537  60.915  1.00  0.00    -0.247 OA
HETATM   30  H   UNL     1       4.349  35.338  59.972  1.00  0.00     0.170 HD
HETATM   31  H   UNL     1       4.130  33.993  58.468  1.00  0.00     0.170 HD
BRANCH  28  32
HETATM   32  C   UNL     1       4.651  35.165  62.000  1.00  0.00     0.041 A 
HETATM   33  C   UNL     1       3.983  34.574  63.081  1.00  0.00     0.066 A 
HETATM   34  C   UNL     1       4.075  35.126  64.366  1.00  0.00     0.073 A 
HETATM   35  C   UNL     1       4.818  36.288  64.567  1.00  0.00     0.073 A 
HETATM   36  C   UNL     1       5.456  36.894  63.490  1.00  0.00     0.073 A 
HETATM   37  C   UNL     1       5.394  36.332  62.217  1.00  0.00     0.066 A 
BRANCH  34  38
HETATM   38  O   UNL     1       3.483  34.629  65.496  1.00  0.00    -0.356 OA
HETATM   39  C   UNL     1       3.328  35.527  66.589  1.00  0.00     0.210 C 
ENDBRANCH  34  38
BRANCH  36  40
HETATM   40  O   UNL     1       6.222  38.010  63.694  1.00  0.00    -0.356 OA
HETATM   41  C   UNL     1       6.380  38.729  62.469  1.00  0.00     0.210 C 
ENDBRANCH  36  40
ENDBRANCH  28  32
ENDBRANCH   1  26
TORSDOF 8
ENDMDL
MODEL 7
REMARK VINA RESULT:      -9.8      2.503      3.014
REMARK  8 active torsions:
REMARK  status: ('A' for Active; 'I' for Inactive)
REMARK    1  A    between atoms: O_2  and  C_3 
REMARK    2  A    between atoms: C_5  and  O_6 
REMARK    3  A    between atoms: C_9  and  N_10 
REMARK       I    between atoms: N_10  and  C_11 
REMARK       I    between atoms: C_11  and  N_12 
REMARK    4  A    between atoms: N_12  and  C_13 
REMARK    5  A    between atoms: C_16  and  N_17 
REMARK    6  A    between atoms: N_20  and  C_22 
REMARK    7  A    between atoms: C_22  and  C_23 
REMARK    8  A    between atoms: C_25  and  C_26 
ROOT
HETATM    1  C   UNL     1       5.055  32.518  59.038  1.00  0.00     0.054 A 
HETATM    2  C   UNL     1       4.148  31.586  58.555  1.00  0.00     0.148 A 
HETATM    3  N   UNL     1       4.493  30.458  57.868  1.00  0.00    -0.241 NA
HETATM    4  C   UNL     1       5.798  30.220  57.624  1.00  0.00     0.125 A 
HETATM    5  C   UNL     1       6.770  31.083  58.126  1.00  0.00     0.052 A 
HETATM    6  C   UNL     1       6.399  32.230  58.836  1.00  0.00     0.035 A 
ENDROOT
BRANCH   4   7
HETATM    7  N   UNL     1       6.127  29.153  56.792  1.00  0.00    -0.364 N 
HETATM    8  C   UNL     1       5.079  28.141  56.614  1.00  0.00     0.152 C 
HETATM    9  C   UNL     1       5.406  26.784  57.263  1.00  0.00     0.255 C 
HETATM   10  N   UNL     1       6.558  26.125  56.502  1.00  0.00    -0.066 N 
HETATM   11  H   UNL     1       6.550  26.566  55.575  1.00  0.00     0.280 HD
HETATM   12  C   UNL     1       7.915  26.424  57.076  1.00  0.00     0.237 C 
HETATM   13  C   UNL     1       8.149  27.897  57.404  1.00  0.00     0.047 C 
HETATM   14  C   UNL     1       7.518  28.890  56.434  1.00  0.00     0.126 C 
BRANCH  10  15
HETATM   15  C   UNL     1       6.332  24.664  56.173  1.00  0.00     0.273 C 
BRANCH  15  16
HETATM   16  C   UNL     1       6.902  24.161  54.874  1.00  0.00    -0.032 A 
HETATM   17  C   UNL     1       7.303  22.818  54.745  1.00  0.00     0.025 A 
HETATM   18  C   UNL     1       7.860  22.334  53.548  1.00  0.00     0.048 A 
HETATM   19  C   UNL     1       8.016  23.216  52.472  1.00  0.00     0.016 A 
HETATM   20  C   UNL     1       7.628  24.551  52.588  1.00  0.00     0.001 A 
HETATM   21  C   UNL     1       7.076  25.020  53.781  1.00  0.00     0.009 A 
BRANCH  18  22
HETATM   22  C   UNL     1       8.301  20.894  53.413  1.00  0.00     0.417 C 
HETATM   23  F   UNL     1       7.818  20.302  52.284  1.00  0.00    -0.166 F 
HETATM   24  F   UNL     1       9.653  20.770  53.350  1.00  0.00    -0.166 F 
HETATM   25  F   UNL     1       7.888  20.121  54.451  1.00  0.00    -0.166 F 
ENDBRANCH  18  22
ENDBRANCH  15  16
ENDBRANCH  10  15
ENDBRANCH   4   7
BRANCH   1  26
HETATM   26  N   UNL     1       4.731  33.732  59.682  1.00  0.00    -0.307 N 
HETATM   27  C   UNL     1       5.243  34.193  60.886  1.00  0.00     0.325 C 
HETATM   28  N   UNL     1       4.655  35.399  61.236  1.00  0.00    -0.309 N 
HETATM   29  O   UNL     1       6.082  33.594  61.547  1.00  0.00    -0.247 OA
HETATM   30  H   UNL     1       4.102  35.857  60.525  1.00  0.00     0.170 HD
HETATM   31  H   UNL     1       3.945  34.241  59.306  1.00  0.00     0.170 HD
BRANCH  28  32
HETATM   32  C   UNL     1       4.816  36.131  62.435  1.00  0.00     0.041 A 
HETATM   33  C   UNL     1       5.588  37.294  62.547  1.00  0.00     0.066 A 
HETATM   34  C   UNL     1       5.693  37.968  63.771  1.00  0.00     0.073 A 
HETATM   35  C   UNL     1       5.040  37.463  64.895  1.00  0.00     0.073 A 
HETATM   36  C   UNL     1       4.299  36.290  64.794  1.00  0.00     0.073 A 
HETATM   37  C   UNL     1       4.166  35.635  63.572  1.00  0.00     0.066 A 
BRANCH  34  38
HETATM   38  O   UNL     1       6.401  39.118  63.996  1.00  0.00    -0.356 OA
HETATM   39  C   UNL     1       6.025  40.263  63.239  1.00  0.00     0.210 C 
ENDBRANCH  34  38
BRANCH  36  40
HETATM   40  O   UNL     1       3.623  35.817  65.886  1.00  0.00    -0.356 OA
HETATM   41  C   UNL     1       3.896  34.426  66.068  1.00  0.00     0.210 C 
ENDBRANCH  36  40
ENDBRANCH  28  32
ENDBRANCH   1  26
TORSDOF 8
ENDMDL
MODEL 8
REMARK VINA RESULT:      -9.4      2.709      3.642
REMARK  8 active torsions:
REMARK  status: ('A' for Active; 'I' for Inactive)
REMARK    1  A    between atoms: O_2  and  C_3 
REMARK    2  A    between atoms: C_5  and  O_6 
REMARK    3  A    between atoms: C_9  and  N_10 
REMARK       I    between atoms: N_10  and  C_11 
REMARK       I    between atoms: C_11  and  N_12 
REMARK    4  A    between atoms: N_12  and  C_13 
REMARK    5  A    between atoms: C_16  and  N_17 
REMARK    6  A    between atoms: N_20  and  C_22 
REMARK    7  A    between atoms: C_22  and  C_23 
REMARK    8  A    between atoms: C_25  and  C_26 
ROOT
HETATM    1  C   UNL     1       4.821  32.144  57.561  1.00  0.00     0.054 A 
HETATM    2  C   UNL     1       5.968  31.371  57.445  1.00  0.00     0.148 A 
HETATM    3  N   UNL     1       6.075  30.264  56.656  1.00  0.00    -0.241 NA
HETATM    4  C   UNL     1       5.002  29.871  55.939  1.00  0.00     0.125 A 
HETATM    5  C   UNL     1       3.833  30.628  55.961  1.00  0.00     0.052 A 
HETATM    6  C   UNL     1       3.743  31.767  56.769  1.00  0.00     0.035 A 
ENDROOT
BRANCH   4   7
HETATM    7  N   UNL     1       5.074  28.657  55.261  1.00  0.00    -0.364 N 
HETATM    8  C   UNL     1       6.333  27.918  55.414  1.00  0.00     0.152 C 
HETATM    9  C   UNL     1       7.176  27.849  54.128  1.00  0.00     0.255 C 
HETATM   10  N   UNL     1       6.461  26.967  53.103  1.00  0.00    -0.066 N 
HETATM   11  H   UNL     1       5.831  26.375  53.656  1.00  0.00     0.280 HD
HETATM   12  C   UNL     1       5.572  27.729  52.160  1.00  0.00     0.237 C 
HETATM   13  C   UNL     1       4.665  28.752  52.839  1.00  0.00     0.047 C 
HETATM   14  C   UNL     1       4.121  28.338  54.202  1.00  0.00     0.126 C 
BRANCH  10  15
HETATM   15  C   UNL     1       7.356  25.950  52.425  1.00  0.00     0.273 C 
BRANCH  15  16
HETATM   16  C   UNL     1       7.617  24.668  53.169  1.00  0.00    -0.032 A 
HETATM   17  C   UNL     1       7.801  24.680  54.564  1.00  0.00     0.025 A 
HETATM   18  C   UNL     1       8.070  23.497  55.275  1.00  0.00     0.048 A 
HETATM   19  C   UNL     1       8.157  22.291  54.570  1.00  0.00     0.016 A 
HETATM   20  C   UNL     1       7.983  22.266  53.187  1.00  0.00     0.001 A 
HETATM   21  C   UNL     1       7.715  23.446  52.491  1.00  0.00     0.009 A 
BRANCH  18  22
HETATM   22  C   UNL     1       8.279  23.511  56.774  1.00  0.00     0.417 C 
HETATM   23  F   UNL     1       9.455  24.100  57.133  1.00  0.00    -0.166 F 
HETATM   24  F   UNL     1       7.303  24.197  57.426  1.00  0.00    -0.166 F 
HETATM   25  F   UNL     1       8.302  22.263  57.310  1.00  0.00    -0.166 F 
ENDBRANCH  18  22
ENDBRANCH  15  16
ENDBRANCH  10  15
ENDBRANCH   4   7
BRANCH   1  26
HETATM   26  N   UNL     1       4.649  33.247  58.425  1.00  0.00    -0.307 N 
HETATM   27  C   UNL     1       4.974  33.302  59.773  1.00  0.00     0.325 C 
HETATM   28  N   UNL     1       4.615  34.528  60.311  1.00  0.00    -0.309 N 
HETATM   29  O   UNL     1       5.487  32.378  60.391  1.00  0.00    -0.247 OA
HETATM   30  H   UNL     1       4.352  35.251  59.657  1.00  0.00     0.170 HD
HETATM   31  H   UNL     1       4.103  34.016  58.065  1.00  0.00     0.170 HD
BRANCH  28  32
HETATM   32  C   UNL     1       4.670  34.934  61.664  1.00  0.00     0.041 A 
HETATM   33  C   UNL     1       4.130  34.198  62.727  1.00  0.00     0.066 A 
HETATM   34  C   UNL     1       4.231  34.664  64.044  1.00  0.00     0.073 A 
HETATM   35  C   UNL     1       4.855  35.884  64.298  1.00  0.00     0.073 A 
HETATM   36  C   UNL     1       5.364  36.633  63.242  1.00  0.00     0.073 A 
HETATM   37  C   UNL     1       5.294  36.158  61.934  1.00  0.00     0.066 A 
BRANCH  34  38
HETATM   38  O   UNL     1       3.759  34.025  65.160  1.00  0.00    -0.356 OA
HETATM   39  C   UNL     1       4.672  33.858  66.239  1.00  0.00     0.210 C 
ENDBRANCH  34  38
BRANCH  36  40
HETATM   40  O   UNL     1       6.015  37.810  63.495  1.00  0.00    -0.356 OA
HETATM   41  C   UNL     1       6.424  38.419  62.268  1.00  0.00     0.210 C 
ENDBRANCH  36  40
ENDBRANCH  28  32
ENDBRANCH   1  26
TORSDOF 8
ENDMDL
MODEL 9
REMARK VINA RESULT:      -9.4      2.791      4.394
REMARK  8 active torsions:
REMARK  status: ('A' for Active; 'I' for Inactive)
REMARK    1  A    between atoms: O_2  and  C_3 
REMARK    2  A    between atoms: C_5  and  O_6 
REMARK    3  A    between atoms: C_9  and  N_10 
REMARK       I    between atoms: N_10  and  C_11 
REMARK       I    between atoms: C_11  and  N_12 
REMARK    4  A    between atoms: N_12  and  C_13 
REMARK    5  A    between atoms: C_16  and  N_17 
REMARK    6  A    between atoms: N_20  and  C_22 
REMARK    7  A    between atoms: C_22  and  C_23 
REMARK    8  A    between atoms: C_25  and  C_26 
ROOT
HETATM    1  C   UNL     1       4.375  30.020  57.561  1.00  0.00     0.054 A 
HETATM    2  C   UNL     1       5.431  29.139  57.743  1.00  0.00     0.148 A 
HETATM    3  N   UNL     1       5.752  28.131  56.880  1.00  0.00    -0.241 NA
HETATM    4  C   UNL     1       4.998  27.958  55.775  1.00  0.00     0.125 A 
HETATM    5  C   UNL     1       3.954  28.838  55.498  1.00  0.00     0.052 A 
HETATM    6  C   UNL     1       3.644  29.872  56.388  1.00  0.00     0.035 A 
ENDROOT
BRANCH   4   7
HETATM    7  N   UNL     1       5.237  26.836  54.986  1.00  0.00    -0.364 N 
HETATM    8  C   UNL     1       6.352  25.985  55.416  1.00  0.00     0.152 C 
HETATM    9  C   UNL     1       7.560  26.008  54.462  1.00  0.00     0.255 C 
HETATM   10  N   UNL     1       7.179  25.322  53.148  1.00  0.00    -0.066 N 
HETATM   11  H   UNL     1       6.383  24.719  53.385  1.00  0.00     0.280 HD
HETATM   12  C   UNL     1       6.668  26.266  52.095  1.00  0.00     0.237 C 
HETATM   13  C   UNL     1       5.630  27.267  52.597  1.00  0.00     0.047 C 
HETATM   14  C   UNL     1       4.663  26.731  53.648  1.00  0.00     0.126 C 
BRANCH  10  15
HETATM   15  C   UNL     1       8.206  24.329  52.644  1.00  0.00     0.273 C 
BRANCH  15  16
HETATM   16  C   UNL     1       8.151  22.940  53.222  1.00  0.00    -0.032 A 
HETATM   17  C   UNL     1       8.278  22.742  54.610  1.00  0.00     0.025 A 
HETATM   18  C   UNL     1       8.254  21.451  55.167  1.00  0.00     0.048 A 
HETATM   19  C   UNL     1       8.105  20.350  54.315  1.00  0.00     0.016 A 
HETATM   20  C   UNL     1       7.984  20.533  52.938  1.00  0.00     0.001 A 
HETATM   21  C   UNL     1       8.008  21.818  52.395  1.00  0.00     0.009 A 
BRANCH  18  22
HETATM   22  C   UNL     1       8.402  21.237  56.658  1.00  0.00     0.417 C 
HETATM   23  F   UNL     1       7.329  20.596  57.203  1.00  0.00    -0.166 F 
HETATM   24  F   UNL     1       9.487  20.479  56.967  1.00  0.00    -0.166 F 
HETATM   25  F   UNL     1       8.534  22.403  57.343  1.00  0.00    -0.166 F 
ENDBRANCH  18  22
ENDBRANCH  15  16
ENDBRANCH  10  15
ENDBRANCH   4   7
BRANCH   1  26
HETATM   26  N   UNL     1       3.966  31.021  58.469  1.00  0.00    -0.307 N 
HETATM   27  C   UNL     1       4.726  32.091  58.920  1.00  0.00     0.325 C 
HETATM   28  N   UNL     1       4.015  32.838  59.846  1.00  0.00    -0.309 N 
HETATM   29  O   UNL     1       5.874  32.316  58.556  1.00  0.00    -0.247 OA
HETATM   30  H   UNL     1       3.029  32.635  59.931  1.00  0.00     0.170 HD
HETATM   31  H   UNL     1       3.092  30.861  58.947  1.00  0.00     0.170 HD
BRANCH  28  32
HETATM   32  C   UNL     1       4.473  33.929  60.620  1.00  0.00     0.041 A 
HETATM   33  C   UNL     1       4.160  35.268  60.351  1.00  0.00     0.066 A 
HETATM   34  C   UNL     1       4.647  36.295  61.170  1.00  0.00     0.073 A 
HETATM   35  C   UNL     1       5.470  35.983  62.251  1.00  0.00     0.073 A 
HETATM   36  C   UNL     1       5.808  34.658  62.502  1.00  0.00     0.073 A 
HETATM   37  C   UNL     1       5.300  33.631  61.709  1.00  0.00     0.066 A 
BRANCH  34  38
HETATM   38  O   UNL     1       4.395  37.632  61.016  1.00  0.00    -0.356 OA
HETATM   39  C   UNL     1       3.699  38.024  59.839  1.00  0.00     0.210 C 
ENDBRANCH  34  38
BRANCH  36  40
HETATM   40  O   UNL     1       6.581  34.347  63.588  1.00  0.00    -0.356 OA
HETATM   41  C   UNL     1       6.598  32.932  63.791  1.00  0.00     0.210 C 
ENDBRANCH  36  40
ENDBRANCH  28  32
ENDBRANCH   1  26
TORSDOF 8
ENDMDL
MODEL 10
REMARK VINA RESULT:      -9.4      9.709     14.471
REMARK  8 active torsions:
REMARK  status: ('A' for Active; 'I' for Inactive)
REMARK    1  A    between atoms: O_2  and  C_3 
REMARK    2  A    between atoms: C_5  and  O_6 
REMARK    3  A    between atoms: C_9  and  N_10 
REMARK       I    between atoms: N_10  and  C_11 
REMARK       I    between atoms: C_11  and  N_12 
REMARK    4  A    between atoms: N_12  and  C_13 
REMARK    5  A    between atoms: C_16  and  N_17 
REMARK    6  A    between atoms: N_20  and  C_22 
REMARK    7  A    between atoms: C_22  and  C_23 
REMARK    8  A    between atoms: C_25  and  C_26 
ROOT
HETATM    1  C   UNL     1       2.637  27.458  47.529  1.00  0.00     0.054 A 
HETATM    2  C   UNL     1       3.288  28.512  48.156  1.00  0.00     0.148 A 
HETATM    3  N   UNL     1       4.203  28.365  49.157  1.00  0.00    -0.241 NA
HETATM    4  C   UNL     1       4.504  27.123  49.587  1.00  0.00     0.125 A 
HETATM    5  C   UNL     1       3.932  26.013  48.967  1.00  0.00     0.052 A 
HETATM    6  C   UNL     1       3.001  26.180  47.936  1.00  0.00     0.035 A 
ENDROOT
BRANCH   4   7
HETATM    7  N   UNL     1       5.319  26.994  50.708  1.00  0.00    -0.364 N 
HETATM    8  C   UNL     1       5.603  25.618  51.132  1.00  0.00     0.152 C 
HETATM    9  C   UNL     1       4.948  25.229  52.469  1.00  0.00     0.255 C 
HETATM   10  N   UNL     1       5.614  26.010  53.604  1.00  0.00    -0.066 N 
HETATM   11  H   UNL     1       6.532  26.283  53.234  1.00  0.00     0.280 HD
HETATM   12  C   UNL     1       4.919  27.298  53.945  1.00  0.00     0.237 C 
HETATM   13  C   UNL     1       4.549  28.154  52.735  1.00  0.00     0.047 C 
HETATM   14  C   UNL     1       5.557  28.133  51.590  1.00  0.00     0.126 C 
BRANCH  10  15
HETATM   15  C   UNL     1       5.982  25.167  54.807  1.00  0.00     0.273 C 
BRANCH  15  16
HETATM   16  C   UNL     1       6.951  24.038  54.578  1.00  0.00    -0.032 A 
HETATM   17  C   UNL     1       7.173  23.076  55.581  1.00  0.00     0.025 A 
HETATM   18  C   UNL     1       8.092  22.028  55.397  1.00  0.00     0.048 A 
HETATM   19  C   UNL     1       8.796  21.952  54.188  1.00  0.00     0.016 A 
HETATM   20  C   UNL     1       8.589  22.902  53.189  1.00  0.00     0.001 A 
HETATM   21  C   UNL     1       7.674  23.938  53.382  1.00  0.00     0.009 A 
BRANCH  18  22
HETATM   22  C   UNL     1       8.340  21.000  56.479  1.00  0.00     0.417 C 
HETATM   23  F   UNL     1       9.561  20.405  56.367  1.00  0.00    -0.166 F 
HETATM   24  F   UNL     1       8.301  21.542  57.725  1.00  0.00    -0.166 F 
HETATM   25  F   UNL     1       7.426  19.995  56.464  1.00  0.00    -0.166 F 
ENDBRANCH  18  22
ENDBRANCH  15  16
ENDBRANCH  10  15
ENDBRANCH   4   7
BRANCH   1  26
HETATM   26  N   UNL     1       1.629  27.575  46.547  1.00  0.00    -0.307 N 
HETATM   27  C   UNL     1       0.680  28.582  46.450  1.00  0.00     0.325 C 
HETATM   28  N   UNL     1      -0.182  28.339  45.392  1.00  0.00    -0.309 N 
HETATM   29  O   UNL     1       0.613  29.535  47.217  1.00  0.00    -0.247 OA
HETATM   30  H   UNL     1       0.085  27.608  44.749  1.00  0.00     0.170 HD
HETATM   31  H   UNL     1       1.494  26.773  45.949  1.00  0.00     0.170 HD
BRANCH  28  32
HETATM   32  C   UNL     1      -1.345  29.059  45.033  1.00  0.00     0.041 A 
HETATM   33  C   UNL     1      -1.721  29.335  43.712  1.00  0.00     0.066 A 
HETATM   34  C   UNL     1      -2.894  30.049  43.437  1.00  0.00     0.073 A 
HETATM   35  C   UNL     1      -3.684  30.511  44.489  1.00  0.00     0.073 A 
HETATM   36  C   UNL     1      -3.296  30.266  45.802  1.00  0.00     0.073 A 
HETATM   37  C   UNL     1      -2.147  29.529  46.080  1.00  0.00     0.066 A 
BRANCH  34  38
HETATM   38  O   UNL     1      -3.370  30.362  42.191  1.00  0.00    -0.356 OA
HETATM   39  C   UNL     1      -4.398  29.529  41.668  1.00  0.00     0.210 C 
ENDBRANCH  34  38
BRANCH  36  40
HETATM   40  O   UNL     1      -4.092  30.682  46.835  1.00  0.00    -0.356 OA
HETATM   41  C   UNL     1      -4.962  29.624  47.242  1.00  0.00     0.210 C 
ENDBRANCH  36  40
ENDBRANCH  28  32
ENDBRANCH   1  26
TORSDOF 8
ENDMDL
