MODEL 1
REMARK VINA RESULT:      -8.2      0.000      0.000
REMARK  9 active torsions:
REMARK  status: ('A' for Active; 'I' for Inactive)
REMARK    1  A    between atoms: C_2  and  C_3 
REMARK    2  A    between atoms: C_7  and  C_8 
REMARK    3  A    between atoms: C_8  and  C_9 
REMARK       I    between atoms: C_9  and  N_10 
REMARK    4  A    between atoms: N_10  and  C_11 
REMARK    5  A    between atoms: C_11  and  C_12 
REMARK    6  A    between atoms: C_12  and  C_13 
REMARK    7  A    between atoms: C_21  and  C_22 
REMARK    8  A    between atoms: C_32  and  C_33 
REMARK    9  A    between atoms: C_33  and  O_34 
ROOT
HETATM    1  C   UNL     1       5.813  26.854  52.713  1.00  0.00     0.051 C 
HETATM    2  N   UNL     1       5.222  28.084  52.500  1.00  0.00    -0.228 NA
HETATM    3  C   UNL     1       4.794  28.748  53.512  1.00  0.00     0.170 C 
HETATM    4  N   UNL     1       5.017  28.365  54.994  1.00  0.00    -0.318 N 
HETATM    5  C   UNL     1       4.458  29.217  55.791  1.00  0.00     0.011 C 
HETATM    6  C   UNL     1       5.966  27.240  55.193  1.00  0.00     0.166 C 
HETATM    7  S   UNL     1       3.926  30.237  53.345  1.00  0.00    -0.086 SA
HETATM    8  C   UNL     1       3.631  30.299  55.130  1.00  0.00     0.135 C 
HETATM    9  C   UNL     1       6.089  26.390  53.951  1.00  0.00     0.069 C 
ENDROOT
BRANCH   5  10
HETATM   10  C   UNL     1       4.710  29.205  57.271  1.00  0.00     0.156 C 
BRANCH  10  11
HETATM   11  C   UNL     1       5.383  30.465  57.763  1.00  0.00     0.222 C 
HETATM   12  N   UNL     1       4.634  31.237  58.616  1.00  0.00    -0.361 N 
HETATM   13  H   UNL     1       3.690  30.953  58.866  1.00  0.00     0.162 HD
HETATM   14  O   UNL     1       6.521  30.744  57.404  1.00  0.00    -0.273 OA
BRANCH  12  15
HETATM   15  C   UNL     1       5.145  32.468  59.202  1.00  0.00     0.124 C 
BRANCH  15  16
HETATM   16  C   UNL     1       5.598  32.251  60.649  1.00  0.00     0.053 C 
BRANCH  16  17
HETATM   17  C   UNL     1       7.123  32.365  60.814  1.00  0.00     0.189 C 
HETATM   18  N   UNL     1       7.692  30.966  61.094  1.00  0.00    -0.071 N 
HETATM   19  H   UNL     1       6.931  30.275  61.051  1.00  0.00     0.279 HD
HETATM   20  C   UNL     1       8.728  30.523  60.099  1.00  0.00     0.270 C 
HETATM   21  C   UNL     1       8.217  30.949  62.522  1.00  0.00     0.235 C 
HETATM   22  C   UNL     1       7.592  32.171  63.161  1.00  0.00     0.030 C 
HETATM   23  C   UNL     1       7.571  33.177  62.027  1.00  0.00     0.035 C 
ENDBRANCH  16  17
ENDBRANCH  15  16
ENDBRANCH  12  15
ENDBRANCH  10  11
ENDBRANCH   5  10
BRANCH   6  24
HETATM   24  C   UNL     1       7.309  27.811  55.673  1.00  0.00    -0.024 A 
HETATM   25  C   UNL     1       7.888  27.483  56.923  1.00  0.00    -0.053 A 
HETATM   26  C   UNL     1       7.361  26.425  57.862  1.00  0.00     0.049 C 
HETATM   27  C   UNL     1       9.105  28.090  57.300  1.00  0.00     0.014 A 
HETATM   28  C   UNL     1       9.749  29.025  56.487  1.00  0.00    -0.061 A 
HETATM   29  C   UNL     1      11.064  29.625  56.895  1.00  0.00     0.048 C 
HETATM   30  C   UNL     1       9.198  29.324  55.244  1.00  0.00     0.007 A 
HETATM   31  C   UNL     1       8.005  28.724  54.842  1.00  0.00     0.011 A 
ENDBRANCH   6  24
BRANCH   9  32
HETATM   32  C   UNL     1       6.469  24.985  54.254  1.00  0.00     0.293 C 
HETATM   33  O   UNL     1       5.655  24.079  54.290  1.00  0.00    -0.259 OA
BRANCH  32  34
HETATM   34  O   UNL     1       7.813  24.846  54.255  1.00  0.00    -0.323 OA
HETATM   35  C   UNL     1       8.283  23.496  54.327  1.00  0.00     0.213 C 
ENDBRANCH  32  34
ENDBRANCH   9  32
BRANCH   1  36
HETATM   36  C   UNL     1       6.123  26.121  51.410  1.00  0.00     0.056 C 
HETATM   37  C   UNL     1       4.994  26.202  50.385  1.00  0.00     0.011 C 
ENDBRANCH   1  36
TORSDOF 9
ENDMDL
MODEL 2
REMARK VINA RESULT:      -7.6      0.808      1.295
REMARK  9 active torsions:
REMARK  status: ('A' for Active; 'I' for Inactive)
REMARK    1  A    between atoms: C_2  and  C_3 
REMARK    2  A    between atoms: C_7  and  C_8 
REMARK    3  A    between atoms: C_8  and  C_9 
REMARK       I    between atoms: C_9  and  N_10 
REMARK    4  A    between atoms: N_10  and  C_11 
REMARK    5  A    between atoms: C_11  and  C_12 
REMARK    6  A    between atoms: C_12  and  C_13 
REMARK    7  A    between atoms: C_21  and  C_22 
REMARK    8  A    between atoms: C_32  and  C_33 
REMARK    9  A    between atoms: C_33  and  O_34 
ROOT
HETATM    1  C   UNL     1       5.874  26.763  52.865  1.00  0.00     0.051 C 
HETATM    2  N   UNL     1       5.285  27.981  52.590  1.00  0.00    -0.228 NA
HETATM    3  C   UNL     1       4.859  28.698  53.567  1.00  0.00     0.170 C 
HETATM    4  N   UNL     1       5.083  28.391  55.066  1.00  0.00    -0.318 N 
HETATM    5  C   UNL     1       4.527  29.285  55.819  1.00  0.00     0.011 C 
HETATM    6  C   UNL     1       6.030  27.276  55.322  1.00  0.00     0.166 C 
HETATM    7  S   UNL     1       3.994  30.178  53.324  1.00  0.00    -0.086 SA
HETATM    8  C   UNL     1       3.701  30.333  55.104  1.00  0.00     0.135 C 
HETATM    9  C   UNL     1       6.150  26.363  54.126  1.00  0.00     0.069 C 
ENDROOT
BRANCH   5  10
HETATM   10  C   UNL     1       4.780  29.348  57.297  1.00  0.00     0.156 C 
BRANCH  10  11
HETATM   11  C   UNL     1       5.550  30.581  57.709  1.00  0.00     0.222 C 
HETATM   12  N   UNL     1       5.086  31.216  58.834  1.00  0.00    -0.361 N 
HETATM   13  H   UNL     1       4.269  30.859  59.322  1.00  0.00     0.162 HD
HETATM   14  O   UNL     1       6.519  30.956  57.058  1.00  0.00    -0.273 OA
BRANCH  12  15
HETATM   15  C   UNL     1       5.732  32.401  59.380  1.00  0.00     0.124 C 
BRANCH  15  16
HETATM   16  C   UNL     1       6.912  32.028  60.281  1.00  0.00     0.053 C 
BRANCH  16  17
HETATM   17  C   UNL     1       6.480  31.723  61.725  1.00  0.00     0.189 C 
HETATM   18  N   UNL     1       6.005  33.029  62.381  1.00  0.00    -0.071 N 
HETATM   19  H   UNL     1       6.035  33.788  61.687  1.00  0.00     0.279 HD
HETATM   20  C   UNL     1       4.592  32.972  62.890  1.00  0.00     0.270 C 
HETATM   21  C   UNL     1       7.000  33.395  63.473  1.00  0.00     0.235 C 
HETATM   22  C   UNL     1       8.215  32.545  63.168  1.00  0.00     0.030 C 
HETATM   23  C   UNL     1       7.609  31.259  62.642  1.00  0.00     0.035 C 
ENDBRANCH  16  17
ENDBRANCH  15  16
ENDBRANCH  12  15
ENDBRANCH  10  11
ENDBRANCH   5  10
BRANCH   6  24
HETATM   24  C   UNL     1       7.375  27.868  55.771  1.00  0.00    -0.024 A 
HETATM   25  C   UNL     1       7.964  27.587  57.028  1.00  0.00    -0.053 A 
HETATM   26  C   UNL     1       7.447  26.563  58.008  1.00  0.00     0.049 C 
HETATM   27  C   UNL     1       9.182  28.211  57.373  1.00  0.00     0.014 A 
HETATM   28  C   UNL     1       9.816  29.118  56.521  1.00  0.00    -0.061 A 
HETATM   29  C   UNL     1      11.132  29.736  56.898  1.00  0.00     0.048 C 
HETATM   30  C   UNL     1       9.256  29.370  55.273  1.00  0.00     0.007 A 
HETATM   31  C   UNL     1       8.061  28.752  54.901  1.00  0.00     0.011 A 
ENDBRANCH   6  24
BRANCH   9  32
HETATM   32  C   UNL     1       6.527  24.975  54.500  1.00  0.00     0.293 C 
HETATM   33  O   UNL     1       5.705  24.084  54.627  1.00  0.00    -0.259 OA
BRANCH  32  34
HETATM   34  O   UNL     1       7.868  24.818  54.453  1.00  0.00    -0.323 OA
HETATM   35  C   UNL     1       8.382  23.750  55.256  1.00  0.00     0.213 C 
ENDBRANCH  32  34
ENDBRANCH   9  32
BRANCH   1  36
HETATM   36  C   UNL     1       6.180  25.963  51.602  1.00  0.00     0.056 C 
HETATM   37  C   UNL     1       5.259  26.299  50.432  1.00  0.00     0.011 C 
ENDBRANCH   1  36
TORSDOF 9
ENDMDL
MODEL 3
REMARK VINA RESULT:      -7.3      2.847      8.620
REMARK  9 active torsions:
REMARK  status: ('A' for Active; 'I' for Inactive)
REMARK    1  A    between atoms: C_2  and  C_3 
REMARK    2  A    between atoms: C_7  and  C_8 
REMARK    3  A    between atoms: C_8  and  C_9 
REMARK       I    between atoms: C_9  and  N_10 
REMARK    4  A    between atoms: N_10  and  C_11 
REMARK    5  A    between atoms: C_11  and  C_12 
REMARK    6  A    between atoms: C_12  and  C_13 
REMARK    7  A    between atoms: C_21  and  C_22 
REMARK    8  A    between atoms: C_32  and  C_33 
REMARK    9  A    between atoms: C_33  and  O_34 
ROOT
HETATM    1  C   UNL     1       7.299  29.628  56.927  1.00  0.00     0.051 C 
HETATM    2  N   UNL     1       5.920  29.700  56.927  1.00  0.00    -0.228 NA
HETATM    3  C   UNL     1       5.281  29.314  55.882  1.00  0.00     0.170 C 
HETATM    4  N   UNL     1       5.910  28.619  54.652  1.00  0.00    -0.318 N 
HETATM    5  C   UNL     1       5.020  28.359  53.750  1.00  0.00     0.011 C 
HETATM    6  C   UNL     1       7.330  28.226  54.840  1.00  0.00     0.166 C 
HETATM    7  S   UNL     1       3.563  29.482  55.731  1.00  0.00    -0.086 SA
HETATM    8  C   UNL     1       3.626  28.882  54.023  1.00  0.00     0.135 C 
HETATM    9  C   UNL     1       7.991  29.033  55.931  1.00  0.00     0.069 C 
ENDROOT
BRANCH   5  10
HETATM   10  C   UNL     1       5.323  27.492  52.562  1.00  0.00     0.156 C 
BRANCH  10  11
HETATM   11  C   UNL     1       5.526  28.286  51.292  1.00  0.00     0.222 C 
HETATM   12  N   UNL     1       5.322  27.592  50.126  1.00  0.00    -0.361 N 
HETATM   13  H   UNL     1       5.064  26.609  50.155  1.00  0.00     0.162 HD
HETATM   14  O   UNL     1       5.850  29.467  51.341  1.00  0.00    -0.273 OA
BRANCH  12  15
HETATM   15  C   UNL     1       5.448  28.216  48.816  1.00  0.00     0.124 C 
BRANCH  15  16
HETATM   16  C   UNL     1       4.077  28.565  48.230  1.00  0.00     0.053 C 
BRANCH  16  17
HETATM   17  C   UNL     1       3.003  27.522  48.579  1.00  0.00     0.189 C 
HETATM   18  N   UNL     1       2.796  26.605  47.364  1.00  0.00    -0.071 N 
HETATM   19  H   UNL     1       3.460  26.867  46.624  1.00  0.00     0.279 HD
HETATM   20  C   UNL     1       3.034  25.150  47.656  1.00  0.00     0.270 C 
HETATM   21  C   UNL     1       1.402  26.865  46.812  1.00  0.00     0.235 C 
HETATM   22  C   UNL     1       0.991  28.177  47.444  1.00  0.00     0.030 C 
HETATM   23  C   UNL     1       1.612  28.101  48.825  1.00  0.00     0.035 C 
ENDBRANCH  16  17
ENDBRANCH  15  16
ENDBRANCH  12  15
ENDBRANCH  10  11
ENDBRANCH   5  10
BRANCH   6  24
HETATM   24  C   UNL     1       7.391  26.710  55.083  1.00  0.00    -0.024 A 
HETATM   25  C   UNL     1       7.690  25.773  54.065  1.00  0.00    -0.053 A 
HETATM   26  C   UNL     1       8.140  26.135  52.671  1.00  0.00     0.049 C 
HETATM   27  C   UNL     1       7.681  24.395  54.371  1.00  0.00     0.014 A 
HETATM   28  C   UNL     1       7.365  23.923  55.647  1.00  0.00    -0.061 A 
HETATM   29  C   UNL     1       7.403  22.453  55.955  1.00  0.00     0.048 C 
HETATM   30  C   UNL     1       7.103  24.844  56.657  1.00  0.00     0.007 A 
HETATM   31  C   UNL     1       7.123  26.212  56.383  1.00  0.00     0.011 A 
ENDBRANCH   6  24
BRANCH   9  32
HETATM   32  C   UNL     1       9.460  29.159  55.741  1.00  0.00     0.293 C 
HETATM   33  O   UNL     1       9.952  29.650  54.740  1.00  0.00    -0.259 OA
BRANCH  32  34
HETATM   34  O   UNL     1      10.114  28.869  56.887  1.00  0.00    -0.323 OA
HETATM   35  C   UNL     1      11.250  29.694  57.162  1.00  0.00     0.213 C 
ENDBRANCH  32  34
ENDBRANCH   9  32
BRANCH   1  36
HETATM   36  C   UNL     1       7.917  30.267  58.168  1.00  0.00     0.056 C 
HETATM   37  C   UNL     1       7.018  31.311  58.825  1.00  0.00     0.011 C 
ENDBRANCH   1  36
TORSDOF 9
ENDMDL
MODEL 4
REMARK VINA RESULT:      -6.9      2.791      8.799
REMARK  9 active torsions:
REMARK  status: ('A' for Active; 'I' for Inactive)
REMARK    1  A    between atoms: C_2  and  C_3 
REMARK    2  A    between atoms: C_7  and  C_8 
REMARK    3  A    between atoms: C_8  and  C_9 
REMARK       I    between atoms: C_9  and  N_10 
REMARK    4  A    between atoms: N_10  and  C_11 
REMARK    5  A    between atoms: C_11  and  C_12 
REMARK    6  A    between atoms: C_12  and  C_13 
REMARK    7  A    between atoms: C_21  and  C_22 
REMARK    8  A    between atoms: C_32  and  C_33 
REMARK    9  A    between atoms: C_33  and  O_34 
ROOT
HETATM    1  C   UNL     1       6.662  32.961  61.298  1.00  0.00     0.051 C 
HETATM    2  N   UNL     1       7.895  32.859  60.687  1.00  0.00    -0.228 NA
HETATM    3  C   UNL     1       8.050  31.997  59.747  1.00  0.00     0.170 C 
HETATM    4  N   UNL     1       6.923  31.148  59.115  1.00  0.00    -0.318 N 
HETATM    5  C   UNL     1       7.383  30.358  58.200  1.00  0.00     0.011 C 
HETATM    6  C   UNL     1       5.556  31.545  59.539  1.00  0.00     0.166 C 
HETATM    7  S   UNL     1       9.587  31.700  59.004  1.00  0.00    -0.086 SA
HETATM    8  C   UNL     1       8.887  30.342  58.032  1.00  0.00     0.135 C 
HETATM    9  C   UNL     1       5.575  32.295  60.849  1.00  0.00     0.069 C 
ENDROOT
BRANCH   5  10
HETATM   10  C   UNL     1       6.475  29.593  57.280  1.00  0.00     0.156 C 
BRANCH  10  11
HETATM   11  C   UNL     1       6.577  28.097  57.464  1.00  0.00     0.222 C 
HETATM   12  N   UNL     1       5.553  27.366  56.916  1.00  0.00    -0.361 N 
HETATM   13  H   UNL     1       4.789  27.836  56.437  1.00  0.00     0.162 HD
HETATM   14  O   UNL     1       7.526  27.608  58.066  1.00  0.00    -0.273 OA
BRANCH  12  15
HETATM   15  C   UNL     1       5.515  25.912  56.979  1.00  0.00     0.124 C 
BRANCH  15  16
HETATM   16  C   UNL     1       5.751  25.287  55.601  1.00  0.00     0.053 C 
BRANCH  16  17
HETATM   17  C   UNL     1       7.162  25.568  55.059  1.00  0.00     0.189 C 
HETATM   18  N   UNL     1       7.037  26.432  53.795  1.00  0.00    -0.071 N 
HETATM   19  H   UNL     1       6.048  26.665  53.639  1.00  0.00     0.279 HD
HETATM   20  C   UNL     1       7.776  27.738  53.879  1.00  0.00     0.270 C 
HETATM   21  C   UNL     1       7.480  25.592  52.606  1.00  0.00     0.235 C 
HETATM   22  C   UNL     1       7.464  24.172  53.128  1.00  0.00     0.030 C 
HETATM   23  C   UNL     1       7.911  24.331  54.568  1.00  0.00     0.035 C 
ENDBRANCH  16  17
ENDBRANCH  15  16
ENDBRANCH  12  15
ENDBRANCH  10  11
ENDBRANCH   5  10
BRANCH   6  24
HETATM   24  C   UNL     1       4.898  32.335  58.397  1.00  0.00    -0.024 A 
HETATM   25  C   UNL     1       3.913  31.785  57.541  1.00  0.00    -0.053 A 
HETATM   26  C   UNL     1       3.269  30.434  57.731  1.00  0.00     0.049 C 
HETATM   27  C   UNL     1       3.395  32.572  56.490  1.00  0.00     0.014 A 
HETATM   28  C   UNL     1       3.841  33.874  56.252  1.00  0.00    -0.061 A 
HETATM   29  C   UNL     1       3.244  34.703  55.151  1.00  0.00     0.048 C 
HETATM   30  C   UNL     1       4.785  34.427  57.112  1.00  0.00     0.007 A 
HETATM   31  C   UNL     1       5.299  33.675  58.169  1.00  0.00     0.011 A 
ENDBRANCH   6  24
BRANCH   9  32
HETATM   32  C   UNL     1       4.306  32.153  61.610  1.00  0.00     0.293 C 
HETATM   33  O   UNL     1       4.183  31.376  62.540  1.00  0.00    -0.259 OA
BRANCH  32  34
HETATM   34  O   UNL     1       3.437  33.130  61.270  1.00  0.00    -0.323 OA
HETATM   35  C   UNL     1       2.852  33.831  62.373  1.00  0.00     0.213 C 
ENDBRANCH  32  34
ENDBRANCH   9  32
BRANCH   1  36
HETATM   36  C   UNL     1       6.680  33.909  62.494  1.00  0.00     0.056 C 
HETATM   37  C   UNL     1       7.302  33.296  63.746  1.00  0.00     0.011 C 
ENDBRANCH   1  36
TORSDOF 9
ENDMDL
MODEL 5
REMARK VINA RESULT:      -6.8      1.619      3.024
REMARK  9 active torsions:
REMARK  status: ('A' for Active; 'I' for Inactive)
REMARK    1  A    between atoms: C_2  and  C_3 
REMARK    2  A    between atoms: C_7  and  C_8 
REMARK    3  A    between atoms: C_8  and  C_9 
REMARK       I    between atoms: C_9  and  N_10 
REMARK    4  A    between atoms: N_10  and  C_11 
REMARK    5  A    between atoms: C_11  and  C_12 
REMARK    6  A    between atoms: C_12  and  C_13 
REMARK    7  A    between atoms: C_21  and  C_22 
REMARK    8  A    between atoms: C_32  and  C_33 
REMARK    9  A    between atoms: C_33  and  O_34 
ROOT
HETATM    1  C   UNL     1       5.860  26.901  52.663  1.00  0.00     0.051 C 
HETATM    2  N   UNL     1       5.267  28.132  52.465  1.00  0.00    -0.228 NA
HETATM    3  C   UNL     1       4.832  28.781  53.484  1.00  0.00     0.170 C 
HETATM    4  N   UNL     1       5.049  28.378  54.962  1.00  0.00    -0.318 N 
HETATM    5  C   UNL     1       4.485  29.218  55.768  1.00  0.00     0.011 C 
HETATM    6  C   UNL     1       6.000  27.253  55.149  1.00  0.00     0.166 C 
HETATM    7  S   UNL     1       3.960  30.270  53.334  1.00  0.00    -0.086 SA
HETATM    8  C   UNL     1       3.657  30.306  55.119  1.00  0.00     0.135 C 
HETATM    9  C   UNL     1       6.131  26.420  53.897  1.00  0.00     0.069 C 
ENDROOT
BRANCH   5  10
HETATM   10  C   UNL     1       4.730  29.185  57.249  1.00  0.00     0.156 C 
BRANCH  10  11
HETATM   11  C   UNL     1       5.421  30.429  57.757  1.00  0.00     0.222 C 
HETATM   12  N   UNL     1       4.726  31.145  58.699  1.00  0.00    -0.361 N 
HETATM   13  H   UNL     1       3.805  30.834  59.000  1.00  0.00     0.162 HD
HETATM   14  O   UNL     1       6.528  30.744  57.334  1.00  0.00    -0.273 OA
BRANCH  12  15
HETATM   15  C   UNL     1       5.262  32.352  59.312  1.00  0.00     0.124 C 
BRANCH  15  16
HETATM   16  C   UNL     1       4.944  33.593  58.473  1.00  0.00     0.053 C 
BRANCH  16  17
HETATM   17  C   UNL     1       3.434  33.782  58.248  1.00  0.00     0.189 C 
HETATM   18  N   UNL     1       3.230  34.620  56.977  1.00  0.00    -0.071 N 
HETATM   19  H   UNL     1       4.144  34.811  56.545  1.00  0.00     0.279 HD
HETATM   20  C   UNL     1       2.396  33.936  55.929  1.00  0.00     0.270 C 
HETATM   21  C   UNL     1       2.652  35.966  57.389  1.00  0.00     0.235 C 
HETATM   22  C   UNL     1       2.907  36.038  58.879  1.00  0.00     0.030 C 
HETATM   23  C   UNL     1       2.730  34.601  59.327  1.00  0.00     0.035 C 
ENDBRANCH  16  17
ENDBRANCH  15  16
ENDBRANCH  12  15
ENDBRANCH  10  11
ENDBRANCH   5  10
BRANCH   6  24
HETATM   24  C   UNL     1       7.340  27.821  55.644  1.00  0.00    -0.024 A 
HETATM   25  C   UNL     1       7.891  27.514  56.912  1.00  0.00    -0.053 A 
HETATM   26  C   UNL     1       7.334  26.484  57.863  1.00  0.00     0.049 C 
HETATM   27  C   UNL     1       9.107  28.117  57.299  1.00  0.00     0.014 A 
HETATM   28  C   UNL     1       9.776  29.027  56.478  1.00  0.00    -0.061 A 
HETATM   29  C   UNL     1      11.089  29.622  56.899  1.00  0.00     0.048 C 
HETATM   30  C   UNL     1       9.253  29.304  55.219  1.00  0.00     0.007 A 
HETATM   31  C   UNL     1       8.062  28.707  54.806  1.00  0.00     0.011 A 
ENDBRANCH   6  24
BRANCH   9  32
HETATM   32  C   UNL     1       6.513  25.012  54.182  1.00  0.00     0.293 C 
HETATM   33  O   UNL     1       5.705  24.101  54.182  1.00  0.00    -0.259 OA
BRANCH  32  34
HETATM   34  O   UNL     1       7.858  24.882  54.210  1.00  0.00    -0.323 OA
HETATM   35  C   UNL     1       8.358  23.962  55.186  1.00  0.00     0.213 C 
ENDBRANCH  32  34
ENDBRANCH   9  32
BRANCH   1  36
HETATM   36  C   UNL     1       6.177  26.187  51.352  1.00  0.00     0.056 C 
HETATM   37  C   UNL     1       5.068  26.310  50.310  1.00  0.00     0.011 C 
ENDBRANCH   1  36
TORSDOF 9
ENDMDL
MODEL 6
REMARK VINA RESULT:      -6.7      5.760      9.427
REMARK  9 active torsions:
REMARK  status: ('A' for Active; 'I' for Inactive)
REMARK    1  A    between atoms: C_2  and  C_3 
REMARK    2  A    between atoms: C_7  and  C_8 
REMARK    3  A    between atoms: C_8  and  C_9 
REMARK       I    between atoms: C_9  and  N_10 
REMARK    4  A    between atoms: N_10  and  C_11 
REMARK    5  A    between atoms: C_11  and  C_12 
REMARK    6  A    between atoms: C_12  and  C_13 
REMARK    7  A    between atoms: C_21  and  C_22 
REMARK    8  A    between atoms: C_32  and  C_33 
REMARK    9  A    between atoms: C_33  and  O_34 
ROOT
HETATM    1  C   UNL     1       2.117  30.360  46.405  1.00  0.00     0.051 C 
HETATM    2  N   UNL     1       1.637  29.091  46.660  1.00  0.00    -0.228 NA
HETATM    3  C   UNL     1       2.397  28.251  47.265  1.00  0.00     0.170 C 
HETATM    4  N   UNL     1       3.775  28.577  47.887  1.00  0.00    -0.318 N 
HETATM    5  C   UNL     1       4.314  27.528  48.418  1.00  0.00     0.011 C 
HETATM    6  C   UNL     1       4.098  30.027  47.919  1.00  0.00     0.166 C 
HETATM    7  S   UNL     1       1.940  26.600  47.519  1.00  0.00    -0.086 SA
HETATM    8  C   UNL     1       3.568  26.226  48.219  1.00  0.00     0.135 C 
HETATM    9  C   UNL     1       3.298  30.797  46.896  1.00  0.00     0.069 C 
ENDROOT
BRANCH   5  10
HETATM   10  C   UNL     1       5.541  27.614  49.280  1.00  0.00     0.156 C 
BRANCH  10  11
HETATM   11  C   UNL     1       5.324  27.058  50.668  1.00  0.00     0.222 C 
HETATM   12  N   UNL     1       6.106  25.980  50.998  1.00  0.00    -0.361 N 
HETATM   13  H   UNL     1       6.766  25.601  50.323  1.00  0.00     0.162 HD
HETATM   14  O   UNL     1       4.499  27.564  51.419  1.00  0.00    -0.273 OA
BRANCH  12  15
HETATM   15  C   UNL     1       6.042  25.344  52.306  1.00  0.00     0.124 C 
BRANCH  15  16
HETATM   16  C   UNL     1       7.318  24.552  52.605  1.00  0.00     0.053 C 
BRANCH  16  17
HETATM   17  C   UNL     1       7.115  23.498  53.707  1.00  0.00     0.189 C 
HETATM   18  N   UNL     1       8.021  23.852  54.896  1.00  0.00    -0.071 N 
HETATM   19  H   UNL     1       8.507  24.737  54.702  1.00  0.00     0.279 HD
HETATM   20  C   UNL     1       7.275  24.050  56.187  1.00  0.00     0.270 C 
HETATM   21  C   UNL     1       9.094  22.779  55.006  1.00  0.00     0.235 C 
HETATM   22  C   UNL     1       9.042  22.065  53.672  1.00  0.00     0.030 C 
HETATM   23  C   UNL     1       7.566  22.089  53.328  1.00  0.00     0.035 C 
ENDBRANCH  16  17
ENDBRANCH  15  16
ENDBRANCH  12  15
ENDBRANCH  10  11
ENDBRANCH   5  10
BRANCH   6  24
HETATM   24  C   UNL     1       3.904  30.541  49.354  1.00  0.00    -0.024 A 
HETATM   25  C   UNL     1       4.909  31.237  50.070  1.00  0.00    -0.053 A 
HETATM   26  C   UNL     1       6.216  31.704  49.479  1.00  0.00     0.049 C 
HETATM   27  C   UNL     1       4.657  31.634  51.401  1.00  0.00     0.014 A 
HETATM   28  C   UNL     1       3.453  31.342  52.045  1.00  0.00    -0.061 A 
HETATM   29  C   UNL     1       3.197  31.812  53.448  1.00  0.00     0.048 C 
HETATM   30  C   UNL     1       2.453  30.688  51.332  1.00  0.00     0.007 A 
HETATM   31  C   UNL     1       2.671  30.300  50.009  1.00  0.00     0.011 A 
ENDBRANCH   6  24
BRANCH   9  32
HETATM   32  C   UNL     1       3.986  32.034  46.443  1.00  0.00     0.293 C 
HETATM   33  O   UNL     1       3.942  33.077  47.073  1.00  0.00    -0.259 OA
BRANCH  32  34
HETATM   34  O   UNL     1       4.809  31.767  45.405  1.00  0.00    -0.323 OA
HETATM   35  C   UNL     1       4.668  32.641  44.280  1.00  0.00     0.213 C 
ENDBRANCH  32  34
ENDBRANCH   9  32
BRANCH   1  36
HETATM   36  C   UNL     1       1.164  31.183  45.543  1.00  0.00     0.056 C 
HETATM   37  C   UNL     1      -0.016  31.759  46.322  1.00  0.00     0.011 C 
ENDBRANCH   1  36
TORSDOF 9
ENDMDL
MODEL 7
REMARK VINA RESULT:      -6.6      6.951     10.223
REMARK  9 active torsions:
REMARK  status: ('A' for Active; 'I' for Inactive)
REMARK    1  A    between atoms: C_2  and  C_3 
REMARK    2  A    between atoms: C_7  and  C_8 
REMARK    3  A    between atoms: C_8  and  C_9 
REMARK       I    between atoms: C_9  and  N_10 
REMARK    4  A    between atoms: N_10  and  C_11 
REMARK    5  A    between atoms: C_11  and  C_12 
REMARK    6  A    between atoms: C_12  and  C_13 
REMARK    7  A    between atoms: C_21  and  C_22 
REMARK    8  A    between atoms: C_32  and  C_33 
REMARK    9  A    between atoms: C_33  and  O_34 
ROOT
HETATM    1  C   UNL     1       4.155  35.896  60.352  1.00  0.00     0.051 C 
HETATM    2  N   UNL     1       4.706  36.865  61.167  1.00  0.00    -0.228 NA
HETATM    3  C   UNL     1       4.847  36.614  62.418  1.00  0.00     0.170 C 
HETATM    4  N   UNL     1       4.594  35.244  63.091  1.00  0.00    -0.318 N 
HETATM    5  C   UNL     1       4.807  35.298  64.366  1.00  0.00     0.011 C 
HETATM    6  C   UNL     1       4.358  34.134  62.134  1.00  0.00     0.166 C 
HETATM    7  S   UNL     1       5.408  37.803  63.547  1.00  0.00    -0.086 SA
HETATM    8  C   UNL     1       5.126  36.667  64.928  1.00  0.00     0.135 C 
HETATM    9  C   UNL     1       3.894  34.646  60.792  1.00  0.00     0.069 C 
ENDROOT
BRANCH   5  10
HETATM   10  C   UNL     1       4.852  34.062  65.218  1.00  0.00     0.156 C 
BRANCH  10  11
HETATM   11  C   UNL     1       4.835  34.366  66.697  1.00  0.00     0.222 C 
HETATM   12  N   UNL     1       6.068  34.539  67.276  1.00  0.00    -0.361 N 
HETATM   13  H   UNL     1       6.912  34.449  66.716  1.00  0.00     0.162 HD
HETATM   14  O   UNL     1       3.774  34.447  67.305  1.00  0.00    -0.273 OA
BRANCH  12  15
HETATM   15  C   UNL     1       6.227  34.867  68.686  1.00  0.00     0.124 C 
BRANCH  15  16
HETATM   16  C   UNL     1       7.703  34.883  69.092  1.00  0.00     0.053 C 
BRANCH  16  17
HETATM   17  C   UNL     1       7.954  34.177  70.435  1.00  0.00     0.189 C 
HETATM   18  N   UNL     1       6.613  33.653  70.971  1.00  0.00    -0.071 N 
HETATM   19  H   UNL     1       5.873  33.848  70.283  1.00  0.00     0.279 HD
HETATM   20  C   UNL     1       6.594  32.169  71.209  1.00  0.00     0.270 C 
HETATM   21  C   UNL     1       6.266  34.446  72.223  1.00  0.00     0.235 C 
HETATM   22  C   UNL     1       7.176  35.653  72.162  1.00  0.00     0.030 C 
HETATM   23  C   UNL     1       8.447  35.093  71.552  1.00  0.00     0.035 C 
ENDBRANCH  16  17
ENDBRANCH  15  16
ENDBRANCH  12  15
ENDBRANCH  10  11
ENDBRANCH   5  10
BRANCH   6  24
HETATM   24  C   UNL     1       5.632  33.278  62.051  1.00  0.00    -0.024 A 
HETATM   25  C   UNL     1       5.697  31.938  62.504  1.00  0.00    -0.053 A 
HETATM   26  C   UNL     1       4.509  31.131  62.967  1.00  0.00     0.049 C 
HETATM   27  C   UNL     1       6.923  31.243  62.427  1.00  0.00     0.014 A 
HETATM   28  C   UNL     1       8.085  31.844  61.938  1.00  0.00    -0.061 A 
HETATM   29  C   UNL     1       9.366  31.067  61.831  1.00  0.00     0.048 C 
HETATM   30  C   UNL     1       8.015  33.150  61.463  1.00  0.00     0.007 A 
HETATM   31  C   UNL     1       6.810  33.852  61.511  1.00  0.00     0.011 A 
ENDBRANCH   6  24
BRANCH   9  32
HETATM   32  C   UNL     1       3.066  33.655  60.056  1.00  0.00     0.293 C 
HETATM   33  O   UNL     1       1.853  33.611  60.157  1.00  0.00    -0.259 OA
BRANCH  32  34
HETATM   34  O   UNL     1       3.811  33.003  59.136  1.00  0.00    -0.323 OA
HETATM   35  C   UNL     1       3.714  31.576  59.178  1.00  0.00     0.213 C 
ENDBRANCH  32  34
ENDBRANCH   9  32
BRANCH   1  36
HETATM   36  C   UNL     1       3.906  36.400  58.933  1.00  0.00     0.056 C 
HETATM   37  C   UNL     1       3.716  37.911  58.849  1.00  0.00     0.011 C 
ENDBRANCH   1  36
TORSDOF 9
ENDMDL
MODEL 8
REMARK VINA RESULT:      -6.3      5.326      8.668
REMARK  9 active torsions:
REMARK  status: ('A' for Active; 'I' for Inactive)
REMARK    1  A    between atoms: C_2  and  C_3 
REMARK    2  A    between atoms: C_7  and  C_8 
REMARK    3  A    between atoms: C_8  and  C_9 
REMARK       I    between atoms: C_9  and  N_10 
REMARK    4  A    between atoms: N_10  and  C_11 
REMARK    5  A    between atoms: C_11  and  C_12 
REMARK    6  A    between atoms: C_12  and  C_13 
REMARK    7  A    between atoms: C_21  and  C_22 
REMARK    8  A    between atoms: C_32  and  C_33 
REMARK    9  A    between atoms: C_33  and  O_34 
ROOT
HETATM    1  C   UNL     1       1.957  30.573  46.274  1.00  0.00     0.051 C 
HETATM    2  N   UNL     1       1.458  29.322  46.578  1.00  0.00    -0.228 NA
HETATM    3  C   UNL     1       2.205  28.496  47.216  1.00  0.00     0.170 C 
HETATM    4  N   UNL     1       3.587  28.825  47.826  1.00  0.00    -0.318 N 
HETATM    5  C   UNL     1       4.110  27.789  48.399  1.00  0.00     0.011 C 
HETATM    6  C   UNL     1       3.931  30.269  47.802  1.00  0.00     0.166 C 
HETATM    7  S   UNL     1       1.722  26.862  47.533  1.00  0.00    -0.086 SA
HETATM    8  C   UNL     1       3.344  26.492  48.249  1.00  0.00     0.135 C 
HETATM    9  C   UNL     1       3.144  31.012  46.749  1.00  0.00     0.069 C 
ENDROOT
BRANCH   5  10
HETATM   10  C   UNL     1       5.337  27.890  49.258  1.00  0.00     0.156 C 
BRANCH  10  11
HETATM   11  C   UNL     1       5.112  27.390  50.665  1.00  0.00     0.222 C 
HETATM   12  N   UNL     1       4.437  28.250  51.495  1.00  0.00    -0.361 N 
HETATM   13  H   UNL     1       4.135  29.159  51.152  1.00  0.00     0.162 HD
HETATM   14  O   UNL     1       5.518  26.284  51.006  1.00  0.00    -0.273 OA
BRANCH  12  15
HETATM   15  C   UNL     1       4.113  27.909  52.873  1.00  0.00     0.124 C 
BRANCH  15  16
HETATM   16  C   UNL     1       4.706  28.925  53.853  1.00  0.00     0.053 C 
BRANCH  16  17
HETATM   17  C   UNL     1       5.594  28.265  54.921  1.00  0.00     0.189 C 
HETATM   18  N   UNL     1       6.796  29.182  55.194  1.00  0.00    -0.071 N 
HETATM   19  H   UNL     1       6.698  30.045  54.641  1.00  0.00     0.279 HD
HETATM   20  C   UNL     1       6.920  29.607  56.630  1.00  0.00     0.270 C 
HETATM   21  C   UNL     1       8.047  28.480  54.687  1.00  0.00     0.235 C 
HETATM   22  C   UNL     1       7.519  27.383  53.788  1.00  0.00     0.030 C 
HETATM   23  C   UNL     1       6.243  26.954  54.486  1.00  0.00     0.035 C 
ENDBRANCH  16  17
ENDBRANCH  15  16
ENDBRANCH  12  15
ENDBRANCH  10  11
ENDBRANCH   5  10
BRANCH   6  24
HETATM   24  C   UNL     1       3.744  30.842  49.216  1.00  0.00    -0.024 A 
HETATM   25  C   UNL     1       4.791  31.453  49.949  1.00  0.00    -0.053 A 
HETATM   26  C   UNL     1       6.157  31.769  49.393  1.00  0.00     0.049 C 
HETATM   27  C   UNL     1       4.537  31.912  51.260  1.00  0.00     0.014 A 
HETATM   28  C   UNL     1       3.289  31.762  51.868  1.00  0.00    -0.061 A 
HETATM   29  C   UNL     1       3.037  32.296  53.249  1.00  0.00     0.048 C 
HETATM   30  C   UNL     1       2.252  31.191  51.138  1.00  0.00     0.007 A 
HETATM   31  C   UNL     1       2.473  30.745  49.834  1.00  0.00     0.011 A 
ENDBRANCH   6  24
BRANCH   9  32
HETATM   32  C   UNL     1       3.851  32.220  46.250  1.00  0.00     0.293 C 
HETATM   33  O   UNL     1       3.538  33.348  46.586  1.00  0.00    -0.259 OA
BRANCH  32  34
HETATM   34  O   UNL     1       4.975  31.871  45.586  1.00  0.00    -0.323 OA
HETATM   35  C   UNL     1       5.977  32.891  45.513  1.00  0.00     0.213 C 
ENDBRANCH  32  34
ENDBRANCH   9  32
BRANCH   1  36
HETATM   36  C   UNL     1       1.017  31.377  45.380  1.00  0.00     0.056 C 
HETATM   37  C   UNL     1      -0.245  30.615  44.986  1.00  0.00     0.011 C 
ENDBRANCH   1  36
TORSDOF 9
ENDMDL
MODEL 9
REMARK VINA RESULT:      -6.2      7.588     10.905
REMARK  9 active torsions:
REMARK  status: ('A' for Active; 'I' for Inactive)
REMARK    1  A    between atoms: C_2  and  C_3 
REMARK    2  A    between atoms: C_7  and  C_8 
REMARK    3  A    between atoms: C_8  and  C_9 
REMARK       I    between atoms: C_9  and  N_10 
REMARK    4  A    between atoms: N_10  and  C_11 
REMARK    5  A    between atoms: C_11  and  C_12 
REMARK    6  A    between atoms: C_12  and  C_13 
REMARK    7  A    between atoms: C_21  and  C_22 
REMARK    8  A    between atoms: C_32  and  C_33 
REMARK    9  A    between atoms: C_33  and  O_34 
ROOT
HETATM    1  C   UNL     1       6.877  32.934  62.609  1.00  0.00     0.051 C 
HETATM    2  N   UNL     1       6.636  32.837  61.253  1.00  0.00    -0.228 NA
HETATM    3  C   UNL     1       5.526  33.285  60.788  1.00  0.00     0.170 C 
HETATM    4  N   UNL     1       4.472  34.078  61.595  1.00  0.00    -0.318 N 
HETATM    5  C   UNL     1       3.450  34.386  60.863  1.00  0.00     0.011 C 
HETATM    6  C   UNL     1       4.925  34.483  62.950  1.00  0.00     0.166 C 
HETATM    7  S   UNL     1       5.072  33.096  59.127  1.00  0.00    -0.086 SA
HETATM    8  C   UNL     1       3.445  33.819  59.460  1.00  0.00     0.135 C 
HETATM    9  C   UNL     1       6.056  33.612  63.442  1.00  0.00     0.069 C 
ENDROOT
BRANCH   5  10
HETATM   10  C   UNL     1       2.393  35.342  61.336  1.00  0.00     0.156 C 
BRANCH  10  11
HETATM   11  C   UNL     1       2.140  36.467  60.360  1.00  0.00     0.222 C 
HETATM   12  N   UNL     1       3.050  37.494  60.398  1.00  0.00    -0.361 N 
HETATM   13  H   UNL     1       3.822  37.469  61.060  1.00  0.00     0.162 HD
HETATM   14  O   UNL     1       1.178  36.429  59.602  1.00  0.00    -0.273 OA
BRANCH  12  15
HETATM   15  C   UNL     1       2.967  38.641  59.504  1.00  0.00     0.124 C 
BRANCH  15  16
HETATM   16  C   UNL     1       4.349  39.246  59.243  1.00  0.00     0.053 C 
BRANCH  16  17
HETATM   17  C   UNL     1       4.270  40.661  58.645  1.00  0.00     0.189 C 
HETATM   18  N   UNL     1       5.117  40.699  57.364  1.00  0.00    -0.071 N 
HETATM   19  H   UNL     1       5.492  39.760  57.177  1.00  0.00     0.279 HD
HETATM   20  C   UNL     1       4.345  41.103  56.139  1.00  0.00     0.270 C 
HETATM   21  C   UNL     1       6.314  41.604  57.619  1.00  0.00     0.235 C 
HETATM   22  C   UNL     1       6.359  41.744  59.125  1.00  0.00     0.030 C 
HETATM   23  C   UNL     1       4.894  41.752  59.512  1.00  0.00     0.035 C 
ENDBRANCH  16  17
ENDBRANCH  15  16
ENDBRANCH  12  15
ENDBRANCH  10  11
ENDBRANCH   5  10
BRANCH   6  24
HETATM   24  C   UNL     1       5.279  35.978  62.923  1.00  0.00    -0.024 A 
HETATM   25  C   UNL     1       4.782  36.909  63.868  1.00  0.00    -0.053 A 
HETATM   26  C   UNL     1       3.991  36.543  65.099  1.00  0.00     0.049 C 
HETATM   27  C   UNL     1       5.126  38.272  63.739  1.00  0.00     0.014 A 
HETATM   28  C   UNL     1       5.925  38.738  62.692  1.00  0.00    -0.061 A 
HETATM   29  C   UNL     1       6.308  40.188  62.603  1.00  0.00     0.048 C 
HETATM   30  C   UNL     1       6.440  37.820  61.782  1.00  0.00     0.007 A 
HETATM   31  C   UNL     1       6.129  36.465  61.899  1.00  0.00     0.011 A 
ENDBRANCH   6  24
BRANCH   9  32
HETATM   32  C   UNL     1       6.112  33.528  64.925  1.00  0.00     0.293 C 
HETATM   33  O   UNL     1       7.076  33.906  65.567  1.00  0.00    -0.259 OA
BRANCH  32  34
HETATM   34  O   UNL     1       4.901  33.199  65.427  1.00  0.00    -0.323 OA
HETATM   35  C   UNL     1       4.589  33.792  66.692  1.00  0.00     0.213 C 
ENDBRANCH  32  34
ENDBRANCH   9  32
BRANCH   1  36
HETATM   36  C   UNL     1       8.158  32.218  63.028  1.00  0.00     0.056 C 
HETATM   37  C   UNL     1       9.020  31.776  61.848  1.00  0.00     0.011 C 
ENDBRANCH   1  36
TORSDOF 9
ENDMDL
MODEL 10
REMARK VINA RESULT:      -6.1      5.997     10.133
REMARK  9 active torsions:
REMARK  status: ('A' for Active; 'I' for Inactive)
REMARK    1  A    between atoms: C_2  and  C_3 
REMARK    2  A    between atoms: C_7  and  C_8 
REMARK    3  A    between atoms: C_8  and  C_9 
REMARK       I    between atoms: C_9  and  N_10 
REMARK    4  A    between atoms: N_10  and  C_11 
REMARK    5  A    between atoms: C_11  and  C_12 
REMARK    6  A    between atoms: C_12  and  C_13 
REMARK    7  A    between atoms: C_21  and  C_22 
REMARK    8  A    between atoms: C_32  and  C_33 
REMARK    9  A    between atoms: C_33  and  O_34 
ROOT
HETATM    1  C   UNL     1       5.245  26.853  51.311  1.00  0.00     0.051 C 
HETATM    2  N   UNL     1       5.143  26.391  50.014  1.00  0.00    -0.228 NA
HETATM    3  C   UNL     1       4.238  26.886  49.250  1.00  0.00     0.170 C 
HETATM    4  N   UNL     1       3.327  28.086  49.602  1.00  0.00    -0.318 N 
HETATM    5  C   UNL     1       2.503  28.351  48.641  1.00  0.00     0.011 C 
HETATM    6  C   UNL     1       3.710  28.791  50.852  1.00  0.00     0.166 C 
HETATM    7  S   UNL     1       3.943  26.288  47.652  1.00  0.00    -0.086 SA
HETATM    8  C   UNL     1       2.517  27.390  47.471  1.00  0.00     0.135 C 
HETATM    9  C   UNL     1       4.528  27.906  51.761  1.00  0.00     0.069 C 
ENDROOT
BRANCH   5  10
HETATM   10  C   UNL     1       1.667  29.598  48.631  1.00  0.00     0.156 C 
BRANCH  10  11
HETATM   11  C   UNL     1       1.804  30.388  47.351  1.00  0.00     0.222 C 
HETATM   12  N   UNL     1       2.991  31.059  47.198  1.00  0.00    -0.361 N 
HETATM   13  H   UNL     1       3.701  31.014  47.925  1.00  0.00     0.162 HD
HETATM   14  O   UNL     1       0.895  30.403  46.528  1.00  0.00    -0.273 OA
BRANCH  12  15
HETATM   15  C   UNL     1       3.295  31.843  46.009  1.00  0.00     0.124 C 
BRANCH  15  16
HETATM   16  C   UNL     1       4.767  32.264  45.979  1.00  0.00     0.053 C 
BRANCH  16  17
HETATM   17  C   UNL     1       4.997  33.548  45.164  1.00  0.00     0.189 C 
HETATM   18  N   UNL     1       5.840  33.200  43.928  1.00  0.00    -0.071 N 
HETATM   19  H   UNL     1       6.006  32.185  43.905  1.00  0.00     0.279 HD
HETATM   20  C   UNL     1       5.179  33.555  42.626  1.00  0.00     0.270 C 
HETATM   21  C   UNL     1       7.201  33.862  44.087  1.00  0.00     0.235 C 
HETATM   22  C   UNL     1       7.267  34.230  45.553  1.00  0.00     0.030 C 
HETATM   23  C   UNL     1       5.834  34.609  45.875  1.00  0.00     0.035 C 
ENDBRANCH  16  17
ENDBRANCH  15  16
ENDBRANCH  12  15
ENDBRANCH  10  11
ENDBRANCH   5  10
BRANCH   6  24
HETATM   24  C   UNL     1       4.421  30.101  50.479  1.00  0.00    -0.024 A 
HETATM   25  C   UNL     1       3.954  31.377  50.878  1.00  0.00    -0.053 A 
HETATM   26  C   UNL     1       2.816  31.612  51.840  1.00  0.00     0.049 C 
HETATM   27  C   UNL     1       4.649  32.529  50.451  1.00  0.00     0.014 A 
HETATM   28  C   UNL     1       5.773  32.453  49.626  1.00  0.00    -0.061 A 
HETATM   29  C   UNL     1       6.516  33.693  49.221  1.00  0.00     0.048 C 
HETATM   30  C   UNL     1       6.252  31.198  49.260  1.00  0.00     0.007 A 
HETATM   31  C   UNL     1       5.593  30.044  49.684  1.00  0.00     0.011 A 
ENDBRANCH   6  24
BRANCH   9  32
HETATM   32  C   UNL     1       4.392  28.276  53.195  1.00  0.00     0.293 C 
HETATM   33  O   UNL     1       3.539  27.794  53.918  1.00  0.00    -0.259 OA
BRANCH  32  34
HETATM   34  O   UNL     1       5.451  29.014  53.596  1.00  0.00    -0.323 OA
HETATM   35  C   UNL     1       6.099  28.548  54.784  1.00  0.00     0.213 C 
ENDBRANCH  32  34
ENDBRANCH   9  32
BRANCH   1  36
HETATM   36  C   UNL     1       6.255  26.059  52.136  1.00  0.00     0.056 C 
HETATM   37  C   UNL     1       5.707  24.732  52.653  1.00  0.00     0.011 C 
ENDBRANCH   1  36
TORSDOF 9
ENDMDL
