MODEL 1
REMARK VINA RESULT:     -10.4      0.000      0.000
REMARK  7 active torsions:
REMARK  status: ('A' for Active; 'I' for Inactive)
REMARK    1  A    between atoms: C_3  and  O_4 
REMARK    2  A    between atoms: O_4  and  C_5 
REMARK    3  A    between atoms: C_5  and  C_6 
REMARK       I    between atoms: C_6  and  N_7 
REMARK    4  A    between atoms: N_7  and  C_8 
REMARK    5  A    between atoms: C_11  and  N_12 
REMARK    6  A    between atoms: N_15  and  C_17 
REMARK    7  A    between atoms: C_17  and  C_18 
ROOT
HETATM    1  C   UNL     1       7.976  29.877  58.437  1.00  0.00     0.034 A 
HETATM    2  C   UNL     1       8.870  29.169  57.639  1.00  0.00     0.032 A 
HETATM    3  C   UNL     1       8.499  28.736  56.355  1.00  0.00     0.031 A 
HETATM    4  C   UNL     1       7.222  28.977  55.834  1.00  0.00     0.030 A 
HETATM    5  C   UNL     1       6.340  29.699  56.652  1.00  0.00     0.031 A 
HETATM    6  C   UNL     1       6.706  30.145  57.928  1.00  0.00     0.032 A 
ENDROOT
BRANCH   4   7
HETATM    7  N   UNL     1       6.825  28.578  54.560  1.00  0.00    -0.378 N 
HETATM    8  C   UNL     1       5.393  28.280  54.357  1.00  0.00     0.150 C 
HETATM    9  C   UNL     1       5.137  26.757  54.413  1.00  0.00     0.255 C 
HETATM   10  N   UNL     1       6.040  26.035  53.407  1.00  0.00    -0.064 N 
HETATM   11  H   UNL     1       5.819  26.426  52.485  1.00  0.00     0.280 HD
HETATM   12  C   UNL     1       7.508  26.344  53.692  1.00  0.00     0.255 C 
HETATM   13  C   UNL     1       7.751  27.866  53.666  1.00  0.00     0.150 C 
BRANCH  10  14
HETATM   14  C   UNL     1       5.780  24.552  53.332  1.00  0.00     0.273 C 
BRANCH  14  15
HETATM   15  C   UNL     1       6.903  23.729  53.902  1.00  0.00    -0.033 A 
HETATM   16  C   UNL     1       7.759  23.000  53.059  1.00  0.00     0.009 A 
HETATM   17  C   UNL     1       8.777  22.212  53.597  1.00  0.00     0.001 A 
HETATM   18  C   UNL     1       8.957  22.148  54.977  1.00  0.00     0.000 A 
HETATM   19  C   UNL     1       8.124  22.877  55.823  1.00  0.00     0.001 A 
HETATM   20  C   UNL     1       7.100  23.664  55.290  1.00  0.00     0.009 A 
ENDBRANCH  14  15
ENDBRANCH  10  14
ENDBRANCH   4   7
BRANCH   1  21
HETATM   21  N   UNL     1       8.278  30.370  59.723  1.00  0.00    -0.325 N 
HETATM   22  C   UNL     1       8.954  31.545  60.041  1.00  0.00     0.246 C 
HETATM   23  O   UNL     1       9.456  32.317  59.231  1.00  0.00    -0.271 OA
HETATM   24  H   UNL     1       7.992  29.785  60.499  1.00  0.00     0.169 HD
BRANCH  22  25
HETATM   25  C   UNL     1       9.010  31.774  61.558  1.00  0.00     0.278 C 
BRANCH  25  26
HETATM   26  O   UNL     1       7.795  31.413  62.207  1.00  0.00    -0.342 OA
BRANCH  26  27
HETATM   27  C   UNL     1       7.262  32.490  62.864  1.00  0.00     0.075 A 
HETATM   28  C   UNL     1       6.228  33.243  62.293  1.00  0.00    -0.029 A 
HETATM   29  C   UNL     1       5.653  32.902  60.949  1.00  0.00     0.051 C 
HETATM   30  C   UNL     1       5.706  34.318  63.024  1.00  0.00     0.009 A 
HETATM   31  C   UNL     1       6.234  34.653  64.273  1.00  0.00     0.001 A 
HETATM   32  C   UNL     1       7.292  33.918  64.807  1.00  0.00     0.003 A 
HETATM   33  C   UNL     1       7.811  32.837  64.100  1.00  0.00     0.037 A 
ENDBRANCH  26  27
ENDBRANCH  25  26
ENDBRANCH  22  25
ENDBRANCH   1  21
TORSDOF 7
ENDMDL
MODEL 2
REMARK VINA RESULT:     -10.0      2.781     11.074
REMARK  7 active torsions:
REMARK  status: ('A' for Active; 'I' for Inactive)
REMARK    1  A    between atoms: C_3  and  O_4 
REMARK    2  A    between atoms: O_4  and  C_5 
REMARK    3  A    between atoms: C_5  and  C_6 
REMARK       I    between atoms: C_6  and  N_7 
REMARK    4  A    between atoms: N_7  and  C_8 
REMARK    5  A    between atoms: C_11  and  N_12 
REMARK    6  A    between atoms: N_15  and  C_17 
REMARK    7  A    between atoms: C_17  and  C_18 
ROOT
HETATM    1  C   UNL     1       6.910  27.182  56.435  1.00  0.00     0.034 A 
HETATM    2  C   UNL     1       5.930  28.146  56.658  1.00  0.00     0.032 A 
HETATM    3  C   UNL     1       6.252  29.367  57.272  1.00  0.00     0.031 A 
HETATM    4  C   UNL     1       7.552  29.660  57.701  1.00  0.00     0.030 A 
HETATM    5  C   UNL     1       8.525  28.679  57.459  1.00  0.00     0.031 A 
HETATM    6  C   UNL     1       8.216  27.463  56.836  1.00  0.00     0.032 A 
ENDROOT
BRANCH   4   7
HETATM    7  N   UNL     1       7.910  30.866  58.298  1.00  0.00    -0.378 N 
HETATM    8  C   UNL     1       9.253  30.950  58.909  1.00  0.00     0.150 C 
HETATM    9  C   UNL     1       9.173  30.745  60.438  1.00  0.00     0.255 C 
HETATM   10  N   UNL     1       8.182  31.740  61.050  1.00  0.00    -0.064 N 
HETATM   11  H   UNL     1       8.522  32.677  60.809  1.00  0.00     0.280 HD
HETATM   12  C   UNL     1       6.802  31.578  60.415  1.00  0.00     0.255 C 
HETATM   13  C   UNL     1       6.894  31.753  58.885  1.00  0.00     0.150 C 
BRANCH  10  14
HETATM   14  C   UNL     1       8.120  31.668  62.555  1.00  0.00     0.273 C 
BRANCH  14  15
HETATM   15  C   UNL     1       7.423  32.850  63.172  1.00  0.00    -0.033 A 
HETATM   16  C   UNL     1       7.461  33.062  64.561  1.00  0.00     0.009 A 
HETATM   17  C   UNL     1       6.783  34.141  65.130  1.00  0.00     0.001 A 
HETATM   18  C   UNL     1       6.069  35.022  64.322  1.00  0.00     0.000 A 
HETATM   19  C   UNL     1       6.035  34.831  62.942  1.00  0.00     0.001 A 
HETATM   20  C   UNL     1       6.708  33.751  62.368  1.00  0.00     0.009 A 
ENDBRANCH  14  15
ENDBRANCH  10  14
ENDBRANCH   4   7
BRANCH   1  21
HETATM   21  N   UNL     1       6.678  25.945  55.801  1.00  0.00    -0.325 N 
HETATM   22  C   UNL     1       6.989  25.595  54.490  1.00  0.00     0.246 C 
HETATM   23  O   UNL     1       7.468  26.347  53.648  1.00  0.00    -0.271 OA
HETATM   24  H   UNL     1       6.204  25.245  56.358  1.00  0.00     0.169 HD
BRANCH  22  25
HETATM   25  C   UNL     1       6.653  24.126  54.200  1.00  0.00     0.278 C 
BRANCH  25  26
HETATM   26  O   UNL     1       7.789  23.383  53.769  1.00  0.00    -0.342 OA
BRANCH  26  27
HETATM   27  C   UNL     1       8.051  22.357  54.638  1.00  0.00     0.075 A 
HETATM   28  C   UNL     1       8.196  21.042  54.179  1.00  0.00    -0.029 A 
HETATM   29  C   UNL     1       8.082  20.698  52.722  1.00  0.00     0.051 C 
HETATM   30  C   UNL     1       8.490  20.039  55.112  1.00  0.00     0.009 A 
HETATM   31  C   UNL     1       8.592  20.341  56.473  1.00  0.00     0.001 A 
HETATM   32  C   UNL     1       8.403  21.649  56.917  1.00  0.00     0.003 A 
HETATM   33  C   UNL     1       8.127  22.660  56.000  1.00  0.00     0.037 A 
ENDBRANCH  26  27
ENDBRANCH  25  26
ENDBRANCH  22  25
ENDBRANCH   1  21
TORSDOF 7
ENDMDL
MODEL 3
REMARK VINA RESULT:     -10.0      2.641     11.477
REMARK  7 active torsions:
REMARK  status: ('A' for Active; 'I' for Inactive)
REMARK    1  A    between atoms: C_3  and  O_4 
REMARK    2  A    between atoms: O_4  and  C_5 
REMARK    3  A    between atoms: C_5  and  C_6 
REMARK       I    between atoms: C_6  and  N_7 
REMARK    4  A    between atoms: N_7  and  C_8 
REMARK    5  A    between atoms: C_11  and  N_12 
REMARK    6  A    between atoms: N_15  and  C_17 
REMARK    7  A    between atoms: C_17  and  C_18 
ROOT
HETATM    1  C   UNL     1       7.673  28.390  57.128  1.00  0.00     0.034 A 
HETATM    2  C   UNL     1       6.447  28.992  57.396  1.00  0.00     0.032 A 
HETATM    3  C   UNL     1       6.381  30.209  58.095  1.00  0.00     0.031 A 
HETATM    4  C   UNL     1       7.531  30.853  58.566  1.00  0.00     0.030 A 
HETATM    5  C   UNL     1       8.757  30.234  58.278  1.00  0.00     0.031 A 
HETATM    6  C   UNL     1       8.831  29.027  57.571  1.00  0.00     0.032 A 
ENDROOT
BRANCH   4   7
HETATM    7  N   UNL     1       7.506  32.068  59.247  1.00  0.00    -0.378 N 
HETATM    8  C   UNL     1       8.658  32.383  60.117  1.00  0.00     0.150 C 
HETATM    9  C   UNL     1       8.329  32.073  61.594  1.00  0.00     0.255 C 
HETATM   10  N   UNL     1       7.052  32.807  62.015  1.00  0.00    -0.064 N 
HETATM   11  H   UNL     1       7.228  33.806  61.865  1.00  0.00     0.280 HD
HETATM   12  C   UNL     1       5.887  32.409  61.111  1.00  0.00     0.255 C 
HETATM   13  C   UNL     1       6.233  32.693  59.636  1.00  0.00     0.150 C 
BRANCH  10  14
HETATM   14  C   UNL     1       6.719  32.632  63.475  1.00  0.00     0.273 C 
BRANCH  14  15
HETATM   15  C   UNL     1       5.861  33.741  64.019  1.00  0.00    -0.033 A 
HETATM   16  C   UNL     1       6.031  35.064  63.577  1.00  0.00     0.009 A 
HETATM   17  C   UNL     1       5.254  36.093  64.111  1.00  0.00     0.001 A 
HETATM   18  C   UNL     1       4.296  35.813  65.083  1.00  0.00     0.000 A 
HETATM   19  C   UNL     1       4.109  34.504  65.520  1.00  0.00     0.001 A 
HETATM   20  C   UNL     1       4.886  33.471  64.992  1.00  0.00     0.009 A 
ENDBRANCH  14  15
ENDBRANCH  10  14
ENDBRANCH   4   7
BRANCH   1  21
HETATM   21  N   UNL     1       7.827  27.187  56.410  1.00  0.00    -0.325 N 
HETATM   22  C   UNL     1       7.941  25.901  56.930  1.00  0.00     0.246 C 
HETATM   23  O   UNL     1       7.987  25.618  58.122  1.00  0.00    -0.271 OA
HETATM   24  H   UNL     1       7.890  27.278  55.403  1.00  0.00     0.169 HD
BRANCH  22  25
HETATM   25  C   UNL     1       8.011  24.844  55.819  1.00  0.00     0.278 C 
BRANCH  25  26
HETATM   26  O   UNL     1       7.700  23.537  56.291  1.00  0.00    -0.342 OA
BRANCH  26  27
HETATM   27  C   UNL     1       7.818  22.619  55.282  1.00  0.00     0.075 A 
HETATM   28  C   UNL     1       8.127  21.281  55.555  1.00  0.00    -0.029 A 
HETATM   29  C   UNL     1       8.334  20.791  56.959  1.00  0.00     0.051 C 
HETATM   30  C   UNL     1       8.208  20.383  54.483  1.00  0.00     0.009 A 
HETATM   31  C   UNL     1       8.025  20.825  53.169  1.00  0.00     0.001 A 
HETATM   32  C   UNL     1       7.760  22.170  52.913  1.00  0.00     0.003 A 
HETATM   33  C   UNL     1       7.661  23.071  53.970  1.00  0.00     0.037 A 
ENDBRANCH  26  27
ENDBRANCH  25  26
ENDBRANCH  22  25
ENDBRANCH   1  21
TORSDOF 7
ENDMDL
MODEL 4
REMARK VINA RESULT:      -9.8      1.581      2.400
REMARK  7 active torsions:
REMARK  status: ('A' for Active; 'I' for Inactive)
REMARK    1  A    between atoms: C_3  and  O_4 
REMARK    2  A    between atoms: O_4  and  C_5 
REMARK    3  A    between atoms: C_5  and  C_6 
REMARK       I    between atoms: C_6  and  N_7 
REMARK    4  A    between atoms: N_7  and  C_8 
REMARK    5  A    between atoms: C_11  and  N_12 
REMARK    6  A    between atoms: N_15  and  C_17 
REMARK    7  A    between atoms: C_17  and  C_18 
ROOT
HETATM    1  C   UNL     1       7.506  31.347  60.033  1.00  0.00     0.034 A 
HETATM    2  C   UNL     1       8.456  30.417  59.622  1.00  0.00     0.032 A 
HETATM    3  C   UNL     1       8.356  29.795  58.366  1.00  0.00     0.031 A 
HETATM    4  C   UNL     1       7.298  30.065  57.490  1.00  0.00     0.030 A 
HETATM    5  C   UNL     1       6.356  31.011  57.921  1.00  0.00     0.031 A 
HETATM    6  C   UNL     1       6.455  31.645  59.166  1.00  0.00     0.032 A 
ENDROOT
BRANCH   4   7
HETATM    7  N   UNL     1       7.174  29.481  56.231  1.00  0.00    -0.378 N 
HETATM    8  C   UNL     1       5.815  29.365  55.666  1.00  0.00     0.150 C 
HETATM    9  C   UNL     1       5.255  27.941  55.874  1.00  0.00     0.255 C 
HETATM   10  N   UNL     1       6.225  26.905  55.298  1.00  0.00    -0.064 N 
HETATM   11  H   UNL     1       6.335  27.129  54.304  1.00  0.00     0.280 HD
HETATM   12  C   UNL     1       7.600  27.042  55.950  1.00  0.00     0.255 C 
HETATM   13  C   UNL     1       8.140  28.474  55.765  1.00  0.00     0.150 C 
BRANCH  10  14
HETATM   14  C   UNL     1       5.703  25.492  55.376  1.00  0.00     0.273 C 
BRANCH  14  15
HETATM   15  C   UNL     1       6.585  24.499  54.670  1.00  0.00    -0.033 A 
HETATM   16  C   UNL     1       7.148  23.416  55.367  1.00  0.00     0.009 A 
HETATM   17  C   UNL     1       7.993  22.518  54.713  1.00  0.00     0.001 A 
HETATM   18  C   UNL     1       8.278  22.685  53.360  1.00  0.00     0.000 A 
HETATM   19  C   UNL     1       7.715  23.747  52.655  1.00  0.00     0.001 A 
HETATM   20  C   UNL     1       6.872  24.651  53.305  1.00  0.00     0.009 A 
ENDBRANCH  14  15
ENDBRANCH  10  14
ENDBRANCH   4   7
BRANCH   1  21
HETATM   21  N   UNL     1       7.548  32.034  61.263  1.00  0.00    -0.325 N 
HETATM   22  C   UNL     1       8.079  31.582  62.467  1.00  0.00     0.246 C 
HETATM   23  O   UNL     1       8.547  30.465  62.662  1.00  0.00    -0.271 OA
HETATM   24  H   UNL     1       7.116  32.951  61.272  1.00  0.00     0.169 HD
BRANCH  22  25
HETATM   25  C   UNL     1       8.009  32.659  63.559  1.00  0.00     0.278 C 
BRANCH  25  26
HETATM   26  O   UNL     1       6.902  33.539  63.383  1.00  0.00    -0.342 OA
BRANCH  26  27
HETATM   27  C   UNL     1       6.270  33.761  64.577  1.00  0.00     0.075 A 
HETATM   28  C   UNL     1       4.880  33.920  64.638  1.00  0.00    -0.029 A 
HETATM   29  C   UNL     1       4.022  33.844  63.408  1.00  0.00     0.051 C 
HETATM   30  C   UNL     1       4.286  34.118  65.892  1.00  0.00     0.009 A 
HETATM   31  C   UNL     1       5.071  34.198  67.046  1.00  0.00     0.001 A 
HETATM   32  C   UNL     1       6.457  34.081  66.960  1.00  0.00     0.003 A 
HETATM   33  C   UNL     1       7.060  33.867  65.723  1.00  0.00     0.037 A 
ENDBRANCH  26  27
ENDBRANCH  25  26
ENDBRANCH  22  25
ENDBRANCH   1  21
TORSDOF 7
ENDMDL
MODEL 5
REMARK VINA RESULT:      -9.8      2.007      3.348
REMARK  7 active torsions:
REMARK  status: ('A' for Active; 'I' for Inactive)
REMARK    1  A    between atoms: C_3  and  O_4 
REMARK    2  A    between atoms: O_4  and  C_5 
REMARK    3  A    between atoms: C_5  and  C_6 
REMARK       I    between atoms: C_6  and  N_7 
REMARK    4  A    between atoms: N_7  and  C_8 
REMARK    5  A    between atoms: C_11  and  N_12 
REMARK    6  A    between atoms: N_15  and  C_17 
REMARK    7  A    between atoms: C_17  and  C_18 
ROOT
HETATM    1  C   UNL     1       6.316  32.164  60.029  1.00  0.00     0.034 A 
HETATM    2  C   UNL     1       7.469  31.415  60.247  1.00  0.00     0.032 A 
HETATM    3  C   UNL     1       7.987  30.584  59.240  1.00  0.00     0.031 A 
HETATM    4  C   UNL     1       7.364  30.457  57.993  1.00  0.00     0.030 A 
HETATM    5  C   UNL     1       6.208  31.226  57.791  1.00  0.00     0.031 A 
HETATM    6  C   UNL     1       5.692  32.067  58.786  1.00  0.00     0.032 A 
ENDROOT
BRANCH   4   7
HETATM    7  N   UNL     1       7.857  29.657  56.966  1.00  0.00    -0.378 N 
HETATM    8  C   UNL     1       6.962  29.391  55.821  1.00  0.00     0.150 C 
HETATM    9  C   UNL     1       6.293  28.005  55.959  1.00  0.00     0.255 C 
HETATM   10  N   UNL     1       7.361  26.921  56.138  1.00  0.00    -0.064 N 
HETATM   11  H   UNL     1       7.968  26.971  55.313  1.00  0.00     0.280 HD
HETATM   12  C   UNL     1       8.226  27.223  57.360  1.00  0.00     0.255 C 
HETATM   13  C   UNL     1       8.867  28.620  57.231  1.00  0.00     0.150 C 
BRANCH  10  14
HETATM   14  C   UNL     1       6.791  25.526  56.182  1.00  0.00     0.273 C 
BRANCH  14  15
HETATM   15  C   UNL     1       7.217  24.680  55.014  1.00  0.00    -0.033 A 
HETATM   16  C   UNL     1       7.552  25.270  53.783  1.00  0.00     0.009 A 
HETATM   17  C   UNL     1       7.914  24.476  52.694  1.00  0.00     0.001 A 
HETATM   18  C   UNL     1       7.953  23.090  52.822  1.00  0.00     0.000 A 
HETATM   19  C   UNL     1       7.637  22.493  54.041  1.00  0.00     0.001 A 
HETATM   20  C   UNL     1       7.270  23.282  55.133  1.00  0.00     0.009 A 
ENDBRANCH  14  15
ENDBRANCH  10  14
ENDBRANCH   4   7
BRANCH   1  21
HETATM   21  N   UNL     1       5.748  33.041  60.974  1.00  0.00    -0.325 N 
HETATM   22  C   UNL     1       4.551  32.879  61.666  1.00  0.00     0.246 C 
HETATM   23  O   UNL     1       3.759  31.956  61.509  1.00  0.00    -0.271 OA
HETATM   24  H   UNL     1       6.259  33.899  61.145  1.00  0.00     0.169 HD
BRANCH  22  25
HETATM   25  C   UNL     1       4.318  34.016  62.671  1.00  0.00     0.278 C 
BRANCH  25  26
HETATM   26  O   UNL     1       5.530  34.660  63.053  1.00  0.00    -0.342 OA
BRANCH  26  27
HETATM   27  C   UNL     1       5.694  34.610  64.412  1.00  0.00     0.075 A 
HETATM   28  C   UNL     1       6.733  33.866  64.986  1.00  0.00    -0.029 A 
HETATM   29  C   UNL     1       7.715  33.103  64.145  1.00  0.00     0.051 C 
HETATM   30  C   UNL     1       6.866  33.874  66.381  1.00  0.00     0.009 A 
HETATM   31  C   UNL     1       5.956  34.573  67.179  1.00  0.00     0.001 A 
HETATM   32  C   UNL     1       4.902  35.273  66.591  1.00  0.00     0.003 A 
HETATM   33  C   UNL     1       4.767  35.288  65.206  1.00  0.00     0.037 A 
ENDBRANCH  26  27
ENDBRANCH  25  26
ENDBRANCH  22  25
ENDBRANCH   1  21
TORSDOF 7
ENDMDL
MODEL 6
REMARK VINA RESULT:      -9.7      1.522      2.429
REMARK  7 active torsions:
REMARK  status: ('A' for Active; 'I' for Inactive)
REMARK    1  A    between atoms: C_3  and  O_4 
REMARK    2  A    between atoms: O_4  and  C_5 
REMARK    3  A    between atoms: C_5  and  C_6 
REMARK       I    between atoms: C_6  and  N_7 
REMARK    4  A    between atoms: N_7  and  C_8 
REMARK    5  A    between atoms: C_11  and  N_12 
REMARK    6  A    between atoms: N_15  and  C_17 
REMARK    7  A    between atoms: C_17  and  C_18 
ROOT
HETATM    1  C   UNL     1       6.085  29.490  57.274  1.00  0.00     0.034 A 
HETATM    2  C   UNL     1       7.134  29.371  56.367  1.00  0.00     0.032 A 
HETATM    3  C   UNL     1       7.035  28.505  55.265  1.00  0.00     0.031 A 
HETATM    4  C   UNL     1       5.900  27.717  55.043  1.00  0.00     0.030 A 
HETATM    5  C   UNL     1       4.852  27.858  55.965  1.00  0.00     0.031 A 
HETATM    6  C   UNL     1       4.937  28.728  57.059  1.00  0.00     0.032 A 
ENDROOT
BRANCH   4   7
HETATM    7  N   UNL     1       5.761  26.861  53.953  1.00  0.00    -0.378 N 
HETATM    8  C   UNL     1       5.209  25.515  54.212  1.00  0.00     0.150 C 
HETATM    9  C   UNL     1       6.341  24.468  54.305  1.00  0.00     0.255 C 
HETATM   10  N   UNL     1       7.209  24.518  53.044  1.00  0.00    -0.064 N 
HETATM   11  H   UNL     1       6.583  24.334  52.252  1.00  0.00     0.280 HD
HETATM   12  C   UNL     1       7.788  25.918  52.851  1.00  0.00     0.255 C 
HETATM   13  C   UNL     1       6.655  26.963  52.790  1.00  0.00     0.150 C 
BRANCH  10  14
HETATM   14  C   UNL     1       8.279  23.456  53.016  1.00  0.00     0.273 C 
BRANCH  14  15
HETATM   15  C   UNL     1       8.242  22.552  54.218  1.00  0.00    -0.033 A 
HETATM   16  C   UNL     1       7.829  21.214  54.098  1.00  0.00     0.009 A 
HETATM   17  C   UNL     1       7.764  20.392  55.223  1.00  0.00     0.001 A 
HETATM   18  C   UNL     1       8.118  20.890  56.475  1.00  0.00     0.000 A 
HETATM   19  C   UNL     1       8.542  22.211  56.604  1.00  0.00     0.001 A 
HETATM   20  C   UNL     1       8.604  23.040  55.483  1.00  0.00     0.009 A 
ENDBRANCH  14  15
ENDBRANCH  10  14
ENDBRANCH   4   7
BRANCH   1  21
HETATM   21  N   UNL     1       6.092  30.353  58.388  1.00  0.00    -0.325 N 
HETATM   22  C   UNL     1       5.904  31.733  58.389  1.00  0.00     0.246 C 
HETATM   23  O   UNL     1       5.761  32.431  57.391  1.00  0.00    -0.271 OA
HETATM   24  H   UNL     1       6.284  29.920  59.283  1.00  0.00     0.169 HD
BRANCH  22  25
HETATM   25  C   UNL     1       5.899  32.303  59.814  1.00  0.00     0.278 C 
BRANCH  25  26
HETATM   26  O   UNL     1       7.202  32.677  60.254  1.00  0.00    -0.342 OA
BRANCH  26  27
HETATM   27  C   UNL     1       7.193  32.968  61.592  1.00  0.00     0.075 A 
HETATM   28  C   UNL     1       8.028  32.283  62.484  1.00  0.00    -0.029 A 
HETATM   29  C   UNL     1       8.973  31.214  62.017  1.00  0.00     0.051 C 
HETATM   30  C   UNL     1       7.993  32.642  63.838  1.00  0.00     0.009 A 
HETATM   31  C   UNL     1       7.114  33.631  64.290  1.00  0.00     0.001 A 
HETATM   32  C   UNL     1       6.260  34.271  63.394  1.00  0.00     0.003 A 
HETATM   33  C   UNL     1       6.294  33.937  62.043  1.00  0.00     0.037 A 
ENDBRANCH  26  27
ENDBRANCH  25  26
ENDBRANCH  22  25
ENDBRANCH   1  21
TORSDOF 7
ENDMDL
MODEL 7
REMARK VINA RESULT:      -9.7      1.778      2.797
REMARK  7 active torsions:
REMARK  status: ('A' for Active; 'I' for Inactive)
REMARK    1  A    between atoms: C_3  and  O_4 
REMARK    2  A    between atoms: O_4  and  C_5 
REMARK    3  A    between atoms: C_5  and  C_6 
REMARK       I    between atoms: C_6  and  N_7 
REMARK    4  A    between atoms: N_7  and  C_8 
REMARK    5  A    between atoms: C_11  and  N_12 
REMARK    6  A    between atoms: N_15  and  C_17 
REMARK    7  A    between atoms: C_17  and  C_18 
ROOT
HETATM    1  C   UNL     1       5.377  31.297  58.146  1.00  0.00     0.034 A 
HETATM    2  C   UNL     1       4.447  31.010  57.151  1.00  0.00     0.032 A 
HETATM    3  C   UNL     1       4.702  30.012  56.196  1.00  0.00     0.031 A 
HETATM    4  C   UNL     1       5.896  29.282  56.190  1.00  0.00     0.030 A 
HETATM    5  C   UNL     1       6.816  29.580  57.207  1.00  0.00     0.031 A 
HETATM    6  C   UNL     1       6.564  30.566  58.170  1.00  0.00     0.032 A 
ENDROOT
BRANCH   4   7
HETATM    7  N   UNL     1       6.176  28.274  55.271  1.00  0.00    -0.378 N 
HETATM    8  C   UNL     1       5.132  27.254  55.041  1.00  0.00     0.150 C 
HETATM    9  C   UNL     1       5.435  25.971  55.846  1.00  0.00     0.255 C 
HETATM   10  N   UNL     1       6.842  25.462  55.516  1.00  0.00    -0.064 N 
HETATM   11  H   UNL     1       6.860  25.291  54.505  1.00  0.00     0.280 HD
HETATM   12  C   UNL     1       7.882  26.540  55.814  1.00  0.00     0.255 C 
HETATM   13  C   UNL     1       7.557  27.829  55.032  1.00  0.00     0.150 C 
BRANCH  10  14
HETATM   14  C   UNL     1       7.176  24.155  56.190  1.00  0.00     0.273 C 
BRANCH  14  15
HETATM   15  C   UNL     1       7.483  23.052  55.214  1.00  0.00    -0.033 A 
HETATM   16  C   UNL     1       7.592  23.319  53.839  1.00  0.00     0.009 A 
HETATM   17  C   UNL     1       7.844  22.285  52.936  1.00  0.00     0.001 A 
HETATM   18  C   UNL     1       7.997  20.979  53.395  1.00  0.00     0.000 A 
HETATM   19  C   UNL     1       7.904  20.703  54.758  1.00  0.00     0.001 A 
HETATM   20  C   UNL     1       7.649  21.733  55.664  1.00  0.00     0.009 A 
ENDBRANCH  14  15
ENDBRANCH  10  14
ENDBRANCH   4   7
BRANCH   1  21
HETATM   21  N   UNL     1       5.188  32.261  59.157  1.00  0.00    -0.325 N 
HETATM   22  C   UNL     1       4.165  32.309  60.100  1.00  0.00     0.246 C 
HETATM   23  O   UNL     1       3.216  31.534  60.158  1.00  0.00    -0.271 OA
HETATM   24  H   UNL     1       5.860  33.019  59.176  1.00  0.00     0.169 HD
BRANCH  22  25
HETATM   25  C   UNL     1       4.355  33.471  61.084  1.00  0.00     0.278 C 
BRANCH  25  26
HETATM   26  O   UNL     1       5.695  33.955  61.102  1.00  0.00    -0.342 OA
BRANCH  26  27
HETATM   27  C   UNL     1       6.254  33.779  62.339  1.00  0.00     0.075 A 
HETATM   28  C   UNL     1       7.382  32.967  62.511  1.00  0.00    -0.029 A 
HETATM   29  C   UNL     1       8.033  32.265  61.355  1.00  0.00     0.051 C 
HETATM   30  C   UNL     1       7.925  32.845  63.798  1.00  0.00     0.009 A 
HETATM   31  C   UNL     1       7.327  33.487  64.886  1.00  0.00     0.001 A 
HETATM   32  C   UNL     1       6.179  34.256  64.702  1.00  0.00     0.003 A 
HETATM   33  C   UNL     1       5.638  34.399  63.427  1.00  0.00     0.037 A 
ENDBRANCH  26  27
ENDBRANCH  25  26
ENDBRANCH  22  25
ENDBRANCH   1  21
TORSDOF 7
ENDMDL
MODEL 8
REMARK VINA RESULT:      -9.4      2.821     10.975
REMARK  7 active torsions:
REMARK  status: ('A' for Active; 'I' for Inactive)
REMARK    1  A    between atoms: C_3  and  O_4 
REMARK    2  A    between atoms: O_4  and  C_5 
REMARK    3  A    between atoms: C_5  and  C_6 
REMARK       I    between atoms: C_6  and  N_7 
REMARK    4  A    between atoms: N_7  and  C_8 
REMARK    5  A    between atoms: C_11  and  N_12 
REMARK    6  A    between atoms: N_15  and  C_17 
REMARK    7  A    between atoms: C_17  and  C_18 
ROOT
HETATM    1  C   UNL     1       6.607  27.609  56.980  1.00  0.00     0.034 A 
HETATM    2  C   UNL     1       7.541  28.514  57.475  1.00  0.00     0.032 A 
HETATM    3  C   UNL     1       7.158  29.818  57.830  1.00  0.00     0.031 A 
HETATM    4  C   UNL     1       5.840  30.268  57.684  1.00  0.00     0.030 A 
HETATM    5  C   UNL     1       4.914  29.337  57.191  1.00  0.00     0.031 A 
HETATM    6  C   UNL     1       5.285  28.031  56.847  1.00  0.00     0.032 A 
ENDROOT
BRANCH   4   7
HETATM    7  N   UNL     1       5.421  31.547  58.041  1.00  0.00    -0.378 N 
HETATM    8  C   UNL     1       6.305  32.330  58.929  1.00  0.00     0.150 C 
HETATM    9  C   UNL     1       5.813  32.260  60.391  1.00  0.00     0.255 C 
HETATM   10  N   UNL     1       4.348  32.702  60.475  1.00  0.00    -0.064 N 
HETATM   11  H   UNL     1       4.311  33.658  60.106  1.00  0.00     0.280 HD
HETATM   12  C   UNL     1       3.476  31.831  59.573  1.00  0.00     0.255 C 
HETATM   13  C   UNL     1       3.991  31.881  58.121  1.00  0.00     0.150 C 
BRANCH  10  14
HETATM   14  C   UNL     1       3.823  32.754  61.888  1.00  0.00     0.273 C 
BRANCH  14  15
HETATM   15  C   UNL     1       4.769  33.430  62.842  1.00  0.00    -0.033 A 
HETATM   16  C   UNL     1       5.429  32.694  63.841  1.00  0.00     0.009 A 
HETATM   17  C   UNL     1       6.279  33.333  64.744  1.00  0.00     0.001 A 
HETATM   18  C   UNL     1       6.486  34.708  64.657  1.00  0.00     0.000 A 
HETATM   19  C   UNL     1       5.848  35.446  63.662  1.00  0.00     0.001 A 
HETATM   20  C   UNL     1       4.993  34.813  62.759  1.00  0.00     0.009 A 
ENDBRANCH  14  15
ENDBRANCH  10  14
ENDBRANCH   4   7
BRANCH   1  21
HETATM   21  N   UNL     1       6.902  26.276  56.628  1.00  0.00    -0.325 N 
HETATM   22  C   UNL     1       7.654  25.356  57.353  1.00  0.00     0.246 C 
HETATM   23  O   UNL     1       8.240  25.590  58.405  1.00  0.00    -0.271 OA
HETATM   24  H   UNL     1       6.547  25.967  55.730  1.00  0.00     0.169 HD
BRANCH  22  25
HETATM   25  C   UNL     1       7.677  23.980  56.673  1.00  0.00     0.278 C 
BRANCH  25  26
HETATM   26  O   UNL     1       8.639  23.908  55.625  1.00  0.00    -0.342 OA
BRANCH  26  27
HETATM   27  C   UNL     1       8.460  22.770  54.885  1.00  0.00     0.075 A 
HETATM   28  C   UNL     1       8.102  22.839  53.532  1.00  0.00    -0.029 A 
HETATM   29  C   UNL     1       7.910  24.152  52.833  1.00  0.00     0.051 C 
HETATM   30  C   UNL     1       7.958  21.640  52.820  1.00  0.00     0.009 A 
HETATM   31  C   UNL     1       8.126  20.408  53.458  1.00  0.00     0.001 A 
HETATM   32  C   UNL     1       8.440  20.359  54.815  1.00  0.00     0.003 A 
HETATM   33  C   UNL     1       8.603  21.541  55.533  1.00  0.00     0.037 A 
ENDBRANCH  26  27
ENDBRANCH  25  26
ENDBRANCH  22  25
ENDBRANCH   1  21
TORSDOF 7
ENDMDL
MODEL 9
REMARK VINA RESULT:      -8.9      6.784     10.979
REMARK  7 active torsions:
REMARK  status: ('A' for Active; 'I' for Inactive)
REMARK    1  A    between atoms: C_3  and  O_4 
REMARK    2  A    between atoms: O_4  and  C_5 
REMARK    3  A    between atoms: C_5  and  C_6 
REMARK       I    between atoms: C_6  and  N_7 
REMARK    4  A    between atoms: N_7  and  C_8 
REMARK    5  A    between atoms: C_11  and  N_12 
REMARK    6  A    between atoms: N_15  and  C_17 
REMARK    7  A    between atoms: C_17  and  C_18 
ROOT
HETATM    1  C   UNL     1       5.427  26.164  53.087  1.00  0.00     0.034 A 
HETATM    2  C   UNL     1       4.594  27.255  53.314  1.00  0.00     0.032 A 
HETATM    3  C   UNL     1       4.123  28.035  52.244  1.00  0.00     0.031 A 
HETATM    4  C   UNL     1       4.484  27.766  50.919  1.00  0.00     0.030 A 
HETATM    5  C   UNL     1       5.318  26.657  50.711  1.00  0.00     0.031 A 
HETATM    6  C   UNL     1       5.781  25.867  51.771  1.00  0.00     0.032 A 
ENDROOT
BRANCH   4   7
HETATM    7  N   UNL     1       4.024  28.506  49.832  1.00  0.00    -0.378 N 
HETATM    8  C   UNL     1       2.744  29.226  49.992  1.00  0.00     0.150 C 
HETATM    9  C   UNL     1       1.585  28.430  49.353  1.00  0.00     0.255 C 
HETATM   10  N   UNL     1       1.907  28.115  47.888  1.00  0.00    -0.064 N 
HETATM   11  H   UNL     1       2.053  29.016  47.422  1.00  0.00     0.280 HD
HETATM   12  C   UNL     1       3.215  27.332  47.787  1.00  0.00     0.255 C 
HETATM   13  C   UNL     1       4.362  28.118  48.454  1.00  0.00     0.150 C 
BRANCH  10  14
HETATM   14  C   UNL     1       0.779  27.422  47.167  1.00  0.00     0.273 C 
BRANCH  14  15
HETATM   15  C   UNL     1       0.120  28.294  46.133  1.00  0.00    -0.033 A 
HETATM   16  C   UNL     1      -0.609  27.727  45.074  1.00  0.00     0.009 A 
HETATM   17  C   UNL     1      -1.190  28.541  44.100  1.00  0.00     0.001 A 
HETATM   18  C   UNL     1      -1.056  29.925  44.176  1.00  0.00     0.000 A 
HETATM   19  C   UNL     1      -0.348  30.501  45.228  1.00  0.00     0.001 A 
HETATM   20  C   UNL     1       0.238  29.691  46.203  1.00  0.00     0.009 A 
ENDBRANCH  14  15
ENDBRANCH  10  14
ENDBRANCH   4   7
BRANCH   1  21
HETATM   21  N   UNL     1       5.919  25.316  54.099  1.00  0.00    -0.325 N 
HETATM   22  C   UNL     1       6.916  25.598  55.028  1.00  0.00     0.246 C 
HETATM   23  O   UNL     1       7.577  26.630  55.070  1.00  0.00    -0.271 OA
HETATM   24  H   UNL     1       5.518  24.386  54.130  1.00  0.00     0.169 HD
BRANCH  22  25
HETATM   25  C   UNL     1       7.109  24.443  56.021  1.00  0.00     0.278 C 
BRANCH  25  26
HETATM   26  O   UNL     1       8.376  23.807  55.875  1.00  0.00    -0.342 OA
BRANCH  26  27
HETATM   27  C   UNL     1       8.268  22.699  55.077  1.00  0.00     0.075 A 
HETATM   28  C   UNL     1       8.244  21.412  55.630  1.00  0.00    -0.029 A 
HETATM   29  C   UNL     1       8.323  21.189  57.112  1.00  0.00     0.051 C 
HETATM   30  C   UNL     1       8.106  20.318  54.765  1.00  0.00     0.009 A 
HETATM   31  C   UNL     1       8.038  20.509  53.382  1.00  0.00     0.001 A 
HETATM   32  C   UNL     1       8.107  21.794  52.847  1.00  0.00     0.003 A 
HETATM   33  C   UNL     1       8.228  22.892  53.695  1.00  0.00     0.037 A 
ENDBRANCH  26  27
ENDBRANCH  25  26
ENDBRANCH  22  25
ENDBRANCH   1  21
TORSDOF 7
ENDMDL
MODEL 10
REMARK VINA RESULT:      -8.9      2.680     11.005
REMARK  7 active torsions:
REMARK  status: ('A' for Active; 'I' for Inactive)
REMARK    1  A    between atoms: C_3  and  O_4 
REMARK    2  A    between atoms: O_4  and  C_5 
REMARK    3  A    between atoms: C_5  and  C_6 
REMARK       I    between atoms: C_6  and  N_7 
REMARK    4  A    between atoms: N_7  and  C_8 
REMARK    5  A    between atoms: C_11  and  N_12 
REMARK    6  A    between atoms: N_15  and  C_17 
REMARK    7  A    between atoms: C_17  and  C_18 
ROOT
HETATM    1  C   UNL     1       5.529  28.572  56.560  1.00  0.00     0.034 A 
HETATM    2  C   UNL     1       4.568  29.577  56.506  1.00  0.00     0.032 A 
HETATM    3  C   UNL     1       4.753  30.786  57.197  1.00  0.00     0.031 A 
HETATM    4  C   UNL     1       5.889  31.024  57.979  1.00  0.00     0.030 A 
HETATM    5  C   UNL     1       6.849  30.002  58.014  1.00  0.00     0.031 A 
HETATM    6  C   UNL     1       6.679  28.798  57.317  1.00  0.00     0.032 A 
ENDROOT
BRANCH   4   7
HETATM    7  N   UNL     1       6.114  32.216  58.664  1.00  0.00    -0.378 N 
HETATM    8  C   UNL     1       6.996  32.163  59.848  1.00  0.00     0.150 C 
HETATM    9  C   UNL     1       6.165  32.108  61.148  1.00  0.00     0.255 C 
HETATM   10  N   UNL     1       5.182  33.282  61.195  1.00  0.00    -0.064 N 
HETATM   11  H   UNL     1       5.746  34.136  61.140  1.00  0.00     0.280 HD
HETATM   12  C   UNL     1       4.267  33.260  59.972  1.00  0.00     0.255 C 
HETATM   13  C   UNL     1       5.104  33.285  58.677  1.00  0.00     0.150 C 
BRANCH  10  14
HETATM   14  C   UNL     1       4.400  33.353  62.482  1.00  0.00     0.273 C 
BRANCH  14  15
HETATM   15  C   UNL     1       5.277  33.515  63.694  1.00  0.00    -0.033 A 
HETATM   16  C   UNL     1       4.719  33.811  64.950  1.00  0.00     0.009 A 
HETATM   17  C   UNL     1       5.541  33.993  66.063  1.00  0.00     0.001 A 
HETATM   18  C   UNL     1       6.923  33.875  65.938  1.00  0.00     0.000 A 
HETATM   19  C   UNL     1       7.487  33.568  64.701  1.00  0.00     0.001 A 
HETATM   20  C   UNL     1       6.670  33.389  63.584  1.00  0.00     0.009 A 
ENDBRANCH  14  15
ENDBRANCH  10  14
ENDBRANCH   4   7
BRANCH   1  21
HETATM   21  N   UNL     1       5.435  27.344  55.875  1.00  0.00    -0.325 N 
HETATM   22  C   UNL     1       5.980  27.023  54.635  1.00  0.00     0.246 C 
HETATM   23  O   UNL     1       6.588  27.798  53.905  1.00  0.00    -0.271 OA
HETATM   24  H   UNL     1       4.882  26.626  56.329  1.00  0.00     0.169 HD
BRANCH  22  25
HETATM   25  C   UNL     1       5.725  25.555  54.267  1.00  0.00     0.278 C 
BRANCH  25  26
HETATM   26  O   UNL     1       6.181  24.655  55.273  1.00  0.00    -0.342 OA
BRANCH  26  27
HETATM   27  C   UNL     1       7.120  23.799  54.764  1.00  0.00     0.075 A 
HETATM   28  C   UNL     1       8.130  23.269  55.577  1.00  0.00    -0.029 A 
HETATM   29  C   UNL     1       8.225  23.606  57.037  1.00  0.00     0.051 C 
HETATM   30  C   UNL     1       9.047  22.377  55.005  1.00  0.00     0.009 A 
HETATM   31  C   UNL     1       8.977  22.059  53.646  1.00  0.00     0.001 A 
HETATM   32  C   UNL     1       7.990  22.629  52.842  1.00  0.00     0.003 A 
HETATM   33  C   UNL     1       7.062  23.505  53.400  1.00  0.00     0.037 A 
ENDBRANCH  26  27
ENDBRANCH  25  26
ENDBRANCH  22  25
ENDBRANCH   1  21
TORSDOF 7
ENDMDL
