MODEL 1
REMARK VINA RESULT:      -8.8      0.000      0.000
REMARK  2 active torsions:
REMARK  status: ('A' for Active; 'I' for Inactive)
REMARK    1  A    between atoms: C_5  and  O_6 
REMARK    2  A    between atoms: C_5  and  C_7 
ROOT
HETATM    1  C   UNL     1       8.295  21.324  56.643  1.00  0.00     0.050 C 
HETATM    2  C   UNL     1       8.061  22.193  55.448  1.00  0.00    -0.034 A 
HETATM    3  C   UNL     1       7.229  23.303  55.484  1.00  0.00     0.052 A 
HETATM    4  C   UNL     1       7.020  24.147  54.379  1.00  0.00     0.039 A 
HETATM    5  C   UNL     1       6.050  25.232  54.765  1.00  0.00     0.200 A 
HETATM    6  C   UNL     1       5.761  24.891  56.262  1.00  0.00     0.266 A 
HETATM    7  O   UNL     1       4.983  25.457  57.015  1.00  0.00    -0.269 OA
HETATM    8  N   UNL     1       6.501  23.757  56.579  1.00  0.00    -0.323 N 
HETATM    9  C   UNL     1       7.659  23.872  53.183  1.00  0.00     0.046 A 
HETATM   10 CL   UNL     1       7.435  24.828  51.772  1.00  0.00    -0.084 Cl
HETATM   11  C   UNL     1       8.522  22.771  53.121  1.00  0.00     0.025 A 
HETATM   12  C   UNL     1       8.725  21.946  54.240  1.00  0.00     0.011 A 
HETATM   13  H   UNL     1       6.459  23.322  57.488  1.00  0.00     0.169 HD
ENDROOT
BRANCH   5  14
HETATM   14  O   UNL     1       4.847  25.099  54.011  1.00  0.00    -0.371 OA
HETATM   15  H   UNL     1       5.103  24.586  53.225  1.00  0.00     0.212 HD
ENDBRANCH   5  14
BRANCH   5  16
HETATM   16  C   UNL     1       6.707  26.581  54.613  1.00  0.00     0.018 A 
HETATM   17  C   UNL     1       7.588  27.275  55.524  1.00  0.00     0.002 A 
HETATM   18  C   UNL     1       7.925  28.497  54.938  1.00  0.00     0.043 A 
HETATM   19  C   UNL     1       8.141  26.983  56.791  1.00  0.00     0.014 A 
HETATM   20  C   UNL     1       8.780  29.428  55.543  1.00  0.00     0.030 A 
HETATM   21  N   UNL     1       7.280  28.562  53.728  1.00  0.00    -0.365 N 
HETATM   22  C   UNL     1       9.317  29.104  56.789  1.00  0.00     0.002 A 
HETATM   23  C   UNL     1       9.004  27.899  57.407  1.00  0.00     0.001 A 
HETATM   24  H   UNL     1       7.344  29.339  53.086  1.00  0.00     0.165 HD
HETATM   25  C   UNL     1       6.551  27.426  53.522  1.00  0.00     0.100 A 
ENDBRANCH   5  16
TORSDOF 2
ENDMDL
MODEL 2
REMARK VINA RESULT:      -8.4      3.215      6.367
REMARK  2 active torsions:
REMARK  status: ('A' for Active; 'I' for Inactive)
REMARK    1  A    between atoms: C_5  and  O_6 
REMARK    2  A    between atoms: C_5  and  C_7 
ROOT
HETATM    1  C   UNL     1       6.331  31.948  59.210  1.00  0.00     0.050 C 
HETATM    2  C   UNL     1       5.940  30.977  58.140  1.00  0.00    -0.034 A 
HETATM    3  C   UNL     1       6.853  30.127  57.533  1.00  0.00     0.052 A 
HETATM    4  C   UNL     1       6.499  29.191  56.547  1.00  0.00     0.039 A 
HETATM    5  C   UNL     1       7.734  28.456  56.098  1.00  0.00     0.200 A 
HETATM    6  C   UNL     1       8.838  29.100  56.998  1.00  0.00     0.266 A 
HETATM    7  O   UNL     1      10.039  28.874  56.975  1.00  0.00    -0.269 OA
HETATM    8  N   UNL     1       8.217  30.054  57.797  1.00  0.00    -0.323 N 
HETATM    9  C   UNL     1       5.180  29.099  56.138  1.00  0.00     0.046 A 
HETATM   10 CL   UNL     1       4.663  28.008  54.915  1.00  0.00    -0.084 Cl
HETATM   11  C   UNL     1       4.230  29.928  56.747  1.00  0.00     0.025 A 
HETATM   12  C   UNL     1       4.604  30.851  57.739  1.00  0.00     0.011 A 
HETATM   13  H   UNL     1       8.731  30.629  58.448  1.00  0.00     0.169 HD
ENDROOT
BRANCH   5  14
HETATM   14  O   UNL     1       8.008  28.754  54.731  1.00  0.00    -0.371 OA
HETATM   15  H   UNL     1       8.277  27.904  54.342  1.00  0.00     0.212 HD
ENDBRANCH   5  14
BRANCH   5  16
HETATM   16  C   UNL     1       7.577  26.981  56.371  1.00  0.00     0.018 A 
HETATM   17  C   UNL     1       7.471  25.887  55.433  1.00  0.00     0.002 A 
HETATM   18  C   UNL     1       7.332  24.709  56.172  1.00  0.00     0.043 A 
HETATM   19  C   UNL     1       7.488  25.776  54.025  1.00  0.00     0.014 A 
HETATM   20  C   UNL     1       7.214  23.444  55.582  1.00  0.00     0.030 A 
HETATM   21  N   UNL     1       7.342  25.057  57.499  1.00  0.00    -0.365 N 
HETATM   22  C   UNL     1       7.244  23.369  54.190  1.00  0.00     0.002 A 
HETATM   23  C   UNL     1       7.380  24.518  53.418  1.00  0.00     0.001 A 
HETATM   24  H   UNL     1       7.258  24.401  58.264  1.00  0.00     0.165 HD
HETATM   25  C   UNL     1       7.488  26.407  57.632  1.00  0.00     0.100 A 
ENDBRANCH   5  16
TORSDOF 2
ENDMDL
MODEL 3
REMARK VINA RESULT:      -8.4     10.436     11.926
REMARK  2 active torsions:
REMARK  status: ('A' for Active; 'I' for Inactive)
REMARK    1  A    between atoms: C_5  and  O_6 
REMARK    2  A    between atoms: C_5  and  C_7 
ROOT
HETATM    1  C   UNL     1       6.726  33.915  66.271  1.00  0.00     0.050 C 
HETATM    2  C   UNL     1       6.633  33.450  64.852  1.00  0.00    -0.034 A 
HETATM    3  C   UNL     1       5.436  33.422  64.152  1.00  0.00     0.052 A 
HETATM    4  C   UNL     1       5.335  33.014  62.811  1.00  0.00     0.039 A 
HETATM    5  C   UNL     1       3.894  33.089  62.380  1.00  0.00     0.200 A 
HETATM    6  C   UNL     1       3.198  33.626  63.672  1.00  0.00     0.266 A 
HETATM    7  O   UNL     1       2.002  33.810  63.848  1.00  0.00    -0.269 OA
HETATM    8  N   UNL     1       4.185  33.790  64.637  1.00  0.00    -0.323 N 
HETATM    9  C   UNL     1       6.473  32.608  62.136  1.00  0.00     0.046 A 
HETATM   10 CL   UNL     1       6.438  32.061  60.507  1.00  0.00    -0.084 Cl
HETATM   11  C   UNL     1       7.700  32.645  62.808  1.00  0.00     0.025 A 
HETATM   12  C   UNL     1       7.781  33.066  64.147  1.00  0.00     0.011 A 
HETATM   13  H   UNL     1       3.977  34.101  65.574  1.00  0.00     0.169 HD
ENDROOT
BRANCH   5  14
HETATM   14  O   UNL     1       3.405  31.782  62.089  1.00  0.00    -0.371 OA
HETATM   15  H   UNL     1       3.048  31.458  62.934  1.00  0.00     0.212 HD
ENDBRANCH   5  14
BRANCH   5  16
HETATM   16  C   UNL     1       3.757  34.051  61.226  1.00  0.00     0.018 A 
HETATM   17  C   UNL     1       4.209  35.419  61.121  1.00  0.00     0.002 A 
HETATM   18  C   UNL     1       3.838  35.891  59.860  1.00  0.00     0.043 A 
HETATM   19  C   UNL     1       4.908  36.306  61.970  1.00  0.00     0.014 A 
HETATM   20  C   UNL     1       4.128  37.186  59.409  1.00  0.00     0.030 A 
HETATM   21  N   UNL     1       3.180  34.871  59.219  1.00  0.00    -0.365 N 
HETATM   22  C   UNL     1       4.827  38.033  60.269  1.00  0.00     0.002 A 
HETATM   23  C   UNL     1       5.214  37.601  61.533  1.00  0.00     0.001 A 
HETATM   24  H   UNL     1       2.799  34.932  58.285  1.00  0.00     0.165 HD
HETATM   25  C   UNL     1       3.125  33.768  60.022  1.00  0.00     0.100 A 
ENDBRANCH   5  16
TORSDOF 2
ENDMDL
MODEL 4
REMARK VINA RESULT:      -8.4      2.340      2.885
REMARK  2 active torsions:
REMARK  status: ('A' for Active; 'I' for Inactive)
REMARK    1  A    between atoms: C_5  and  O_6 
REMARK    2  A    between atoms: C_5  and  C_7 
ROOT
HETATM    1  C   UNL     1       7.626  22.232  54.217  1.00  0.00     0.050 C 
HETATM    2  C   UNL     1       7.463  23.702  53.992  1.00  0.00    -0.034 A 
HETATM    3  C   UNL     1       6.790  24.523  54.885  1.00  0.00     0.052 A 
HETATM    4  C   UNL     1       6.652  25.910  54.704  1.00  0.00     0.039 A 
HETATM    5  C   UNL     1       5.853  26.479  55.847  1.00  0.00     0.200 A 
HETATM    6  C   UNL     1       5.583  25.209  56.716  1.00  0.00     0.266 A 
HETATM    7  O   UNL     1       4.919  25.138  57.740  1.00  0.00    -0.269 OA
HETATM    8  N   UNL     1       6.175  24.130  56.069  1.00  0.00    -0.323 N 
HETATM    9  C   UNL     1       7.197  26.508  53.582  1.00  0.00     0.046 A 
HETATM   10 CL   UNL     1       7.047  28.190  53.261  1.00  0.00    -0.084 Cl
HETATM   11  C   UNL     1       7.901  25.709  52.672  1.00  0.00     0.025 A 
HETATM   12  C   UNL     1       8.037  24.325  52.877  1.00  0.00     0.011 A 
HETATM   13  H   UNL     1       6.113  23.188  56.424  1.00  0.00     0.169 HD
ENDROOT
BRANCH   5  14
HETATM   14  O   UNL     1       4.614  26.993  55.366  1.00  0.00    -0.371 OA
HETATM   15  H   UNL     1       4.220  26.259  54.863  1.00  0.00     0.212 HD
ENDBRANCH   5  14
BRANCH   5  16
HETATM   16  C   UNL     1       6.679  27.501  56.587  1.00  0.00     0.018 A 
HETATM   17  C   UNL     1       6.282  28.788  57.111  1.00  0.00     0.002 A 
HETATM   18  C   UNL     1       7.407  29.367  57.705  1.00  0.00     0.043 A 
HETATM   19  C   UNL     1       5.075  29.520  57.148  1.00  0.00     0.014 A 
HETATM   20  C   UNL     1       7.384  30.621  58.330  1.00  0.00     0.030 A 
HETATM   21  N   UNL     1       8.449  28.488  57.549  1.00  0.00    -0.365 N 
HETATM   22  C   UNL     1       6.173  31.313  58.357  1.00  0.00     0.002 A 
HETATM   23  C   UNL     1       5.032  30.771  57.776  1.00  0.00     0.001 A 
HETATM   24  H   UNL     1       9.388  28.648  57.886  1.00  0.00     0.165 HD
HETATM   25  C   UNL     1       8.029  27.372  56.885  1.00  0.00     0.100 A 
ENDBRANCH   5  16
TORSDOF 2
ENDMDL
MODEL 5
REMARK VINA RESULT:      -8.2      2.289      2.854
REMARK  2 active torsions:
REMARK  status: ('A' for Active; 'I' for Inactive)
REMARK    1  A    between atoms: C_5  and  O_6 
REMARK    2  A    between atoms: C_5  and  C_7 
ROOT
HETATM    1  C   UNL     1       9.511  22.318  54.628  1.00  0.00     0.050 C 
HETATM    2  C   UNL     1       8.321  23.193  54.388  1.00  0.00    -0.034 A 
HETATM    3  C   UNL     1       7.854  24.095  55.334  1.00  0.00     0.052 A 
HETATM    4  C   UNL     1       6.755  24.943  55.115  1.00  0.00     0.039 A 
HETATM    5  C   UNL     1       6.517  25.768  56.352  1.00  0.00     0.200 A 
HETATM    6  C   UNL     1       7.661  25.277  57.295  1.00  0.00     0.266 A 
HETATM    7  O   UNL     1       7.866  25.614  58.452  1.00  0.00    -0.269 OA
HETATM    8  N   UNL     1       8.382  24.310  56.603  1.00  0.00    -0.323 N 
HETATM    9  C   UNL     1       6.084  24.890  53.907  1.00  0.00     0.046 A 
HETATM   10 CL   UNL     1       4.711  25.865  53.566  1.00  0.00    -0.084 Cl
HETATM   11  C   UNL     1       6.544  24.005  52.923  1.00  0.00     0.025 A 
HETATM   12  C   UNL     1       7.651  23.172  53.158  1.00  0.00     0.011 A 
HETATM   13  H   UNL     1       9.160  23.819  57.016  1.00  0.00     0.169 HD
ENDROOT
BRANCH   5  14
HETATM   14  O   UNL     1       5.256  25.430  56.926  1.00  0.00    -0.371 OA
HETATM   15  H   UNL     1       5.335  24.489  57.160  1.00  0.00     0.212 HD
ENDBRANCH   5  14
BRANCH   5  16
HETATM   16  C   UNL     1       6.651  27.234  56.021  1.00  0.00     0.018 A 
HETATM   17  C   UNL     1       5.645  28.271  56.049  1.00  0.00     0.002 A 
HETATM   18  C   UNL     1       6.256  29.462  55.651  1.00  0.00     0.043 A 
HETATM   19  C   UNL     1       4.273  28.320  56.383  1.00  0.00     0.014 A 
HETATM   20  C   UNL     1       5.575  30.684  55.574  1.00  0.00     0.030 A 
HETATM   21  N   UNL     1       7.571  29.177  55.380  1.00  0.00    -0.365 N 
HETATM   22  C   UNL     1       4.224  30.700  55.919  1.00  0.00     0.002 A 
HETATM   23  C   UNL     1       3.579  29.535  56.319  1.00  0.00     0.001 A 
HETATM   24  H   UNL     1       8.252  29.856  55.071  1.00  0.00     0.165 HD
HETATM   25  C   UNL     1       7.820  27.852  55.598  1.00  0.00     0.100 A 
ENDBRANCH   5  16
TORSDOF 2
ENDMDL
MODEL 6
REMARK VINA RESULT:      -8.0      2.786      3.972
REMARK  2 active torsions:
REMARK  status: ('A' for Active; 'I' for Inactive)
REMARK    1  A    between atoms: C_5  and  O_6 
REMARK    2  A    between atoms: C_5  and  C_7 
ROOT
HETATM    1  C   UNL     1       7.614  25.220  52.335  1.00  0.00     0.050 C 
HETATM    2  C   UNL     1       6.698  26.247  52.922  1.00  0.00    -0.034 A 
HETATM    3  C   UNL     1       6.465  26.347  54.286  1.00  0.00     0.052 A 
HETATM    4  C   UNL     1       5.630  27.324  54.856  1.00  0.00     0.039 A 
HETATM    5  C   UNL     1       5.591  27.127  56.349  1.00  0.00     0.200 A 
HETATM    6  C   UNL     1       6.550  25.908  56.540  1.00  0.00     0.266 A 
HETATM    7  O   UNL     1       6.812  25.327  57.582  1.00  0.00    -0.269 OA
HETATM    8  N   UNL     1       7.006  25.538  55.279  1.00  0.00    -0.323 N 
HETATM    9  C   UNL     1       4.992  28.237  54.036  1.00  0.00     0.046 A 
HETATM   10 CL   UNL     1       3.927  29.442  54.643  1.00  0.00    -0.084 Cl
HETATM   11  C   UNL     1       5.223  28.176  52.657  1.00  0.00     0.025 A 
HETATM   12  C   UNL     1       6.070  27.198  52.107  1.00  0.00     0.011 A 
HETATM   13  H   UNL     1       7.621  24.751  55.138  1.00  0.00     0.169 HD
ENDROOT
BRANCH   5  14
HETATM   14  O   UNL     1       4.275  26.760  56.756  1.00  0.00    -0.371 OA
HETATM   15  H   UNL     1       4.081  27.338  57.514  1.00  0.00     0.212 HD
ENDBRANCH   5  14
BRANCH   5  16
HETATM   16  C   UNL     1       6.109  28.364  57.040  1.00  0.00     0.018 A 
HETATM   17  C   UNL     1       7.471  28.826  57.181  1.00  0.00     0.002 A 
HETATM   18  C   UNL     1       7.439  30.017  57.911  1.00  0.00     0.043 A 
HETATM   19  C   UNL     1       8.733  28.356  56.754  1.00  0.00     0.014 A 
HETATM   20  C   UNL     1       8.587  30.754  58.227  1.00  0.00     0.030 A 
HETATM   21  N   UNL     1       6.125  30.275  58.214  1.00  0.00    -0.365 N 
HETATM   22  C   UNL     1       9.817  30.266  57.782  1.00  0.00     0.002 A 
HETATM   23  C   UNL     1       9.891  29.084  57.054  1.00  0.00     0.001 A 
HETATM   24  H   UNL     1       5.805  31.078  58.738  1.00  0.00     0.165 HD
HETATM   25  C   UNL     1       5.322  29.297  57.701  1.00  0.00     0.100 A 
ENDBRANCH   5  16
TORSDOF 2
ENDMDL
MODEL 7
REMARK VINA RESULT:      -8.0      8.830     11.008
REMARK  2 active torsions:
REMARK  status: ('A' for Active; 'I' for Inactive)
REMARK    1  A    between atoms: C_5  and  O_6 
REMARK    2  A    between atoms: C_5  and  C_7 
ROOT
HETATM    1  C   UNL     1       9.284  31.865  61.734  1.00  0.00     0.050 C 
HETATM    2  C   UNL     1       7.961  32.001  61.049  1.00  0.00    -0.034 A 
HETATM    3  C   UNL     1       6.780  32.220  61.744  1.00  0.00     0.052 A 
HETATM    4  C   UNL     1       5.533  32.378  61.114  1.00  0.00     0.039 A 
HETATM    5  C   UNL     1       4.473  32.577  62.166  1.00  0.00     0.200 A 
HETATM    6  C   UNL     1       5.312  32.534  63.483  1.00  0.00     0.266 A 
HETATM    7  O   UNL     1       4.895  32.597  64.631  1.00  0.00    -0.269 OA
HETATM    8  N   UNL     1       6.639  32.328  63.123  1.00  0.00    -0.323 N 
HETATM    9  C   UNL     1       5.453  32.308  59.735  1.00  0.00     0.046 A 
HETATM   10 CL   UNL     1       3.967  32.455  58.885  1.00  0.00    -0.084 Cl
HETATM   11  C   UNL     1       6.631  32.110  59.004  1.00  0.00     0.025 A 
HETATM   12  C   UNL     1       7.870  31.964  59.652  1.00  0.00     0.011 A 
HETATM   13  H   UNL     1       7.375  32.234  63.807  1.00  0.00     0.169 HD
ENDROOT
BRANCH   5  14
HETATM   14  O   UNL     1       3.562  31.481  62.151  1.00  0.00    -0.371 OA
HETATM   15  H   UNL     1       2.840  31.751  62.745  1.00  0.00     0.212 HD
ENDBRANCH   5  14
BRANCH   5  16
HETATM   16  C   UNL     1       3.805  33.915  61.969  1.00  0.00     0.018 A 
HETATM   17  C   UNL     1       4.373  35.240  62.060  1.00  0.00     0.002 A 
HETATM   18  C   UNL     1       3.350  36.157  61.803  1.00  0.00     0.043 A 
HETATM   19  C   UNL     1       5.660  35.757  62.328  1.00  0.00     0.014 A 
HETATM   20  C   UNL     1       3.547  37.544  61.796  1.00  0.00     0.030 A 
HETATM   21  N   UNL     1       2.204  35.436  61.573  1.00  0.00    -0.365 N 
HETATM   22  C   UNL     1       4.832  38.020  62.056  1.00  0.00     0.002 A 
HETATM   23  C   UNL     1       5.877  37.141  62.317  1.00  0.00     0.001 A 
HETATM   24  H   UNL     1       1.305  35.844  61.359  1.00  0.00     0.165 HD
HETATM   25  C   UNL     1       2.462  34.099  61.668  1.00  0.00     0.100 A 
ENDBRANCH   5  16
TORSDOF 2
ENDMDL
MODEL 8
REMARK VINA RESULT:      -7.9     10.862     13.426
REMARK  2 active torsions:
REMARK  status: ('A' for Active; 'I' for Inactive)
REMARK    1  A    between atoms: C_5  and  O_6 
REMARK    2  A    between atoms: C_5  and  C_7 
ROOT
HETATM    1  C   UNL     1       2.333  36.230  59.247  1.00  0.00     0.050 C 
HETATM    2  C   UNL     1       3.254  36.620  60.360  1.00  0.00    -0.034 A 
HETATM    3  C   UNL     1       3.288  35.945  61.572  1.00  0.00     0.052 A 
HETATM    4  C   UNL     1       4.166  36.280  62.617  1.00  0.00     0.039 A 
HETATM    5  C   UNL     1       3.917  35.360  63.783  1.00  0.00     0.200 A 
HETATM    6  C   UNL     1       2.784  34.437  63.230  1.00  0.00     0.266 A 
HETATM    7  O   UNL     1       2.195  33.547  63.827  1.00  0.00    -0.269 OA
HETATM    8  N   UNL     1       2.498  34.860  61.937  1.00  0.00    -0.323 N 
HETATM    9  C   UNL     1       5.044  37.337  62.456  1.00  0.00     0.046 A 
HETATM   10 CL   UNL     1       6.127  37.838  63.693  1.00  0.00    -0.084 Cl
HETATM   11  C   UNL     1       5.049  38.024  61.237  1.00  0.00     0.025 A 
HETATM   12  C   UNL     1       4.171  37.667  60.200  1.00  0.00     0.011 A 
HETATM   13  H   UNL     1       1.775  34.433  61.378  1.00  0.00     0.169 HD
ENDROOT
BRANCH   5  14
HETATM   14  O   UNL     1       3.419  36.103  64.893  1.00  0.00    -0.371 OA
HETATM   15  H   UNL     1       4.114  36.031  65.570  1.00  0.00     0.212 HD
ENDBRANCH   5  14
BRANCH   5  16
HETATM   16  C   UNL     1       5.172  34.583  64.096  1.00  0.00     0.018 A 
HETATM   17  C   UNL     1       6.030  33.838  63.204  1.00  0.00     0.002 A 
HETATM   18  C   UNL     1       7.060  33.288  63.970  1.00  0.00     0.043 A 
HETATM   19  C   UNL     1       6.040  33.581  61.815  1.00  0.00     0.014 A 
HETATM   20  C   UNL     1       8.089  32.508  63.425  1.00  0.00     0.030 A 
HETATM   21  N   UNL     1       6.847  33.665  65.272  1.00  0.00    -0.365 N 
HETATM   22  C   UNL     1       8.074  32.281  62.049  1.00  0.00     0.002 A 
HETATM   23  C   UNL     1       7.065  32.810  61.252  1.00  0.00     0.001 A 
HETATM   24  H   UNL     1       7.443  33.409  66.048  1.00  0.00     0.165 HD
HETATM   25  C   UNL     1       5.725  34.438  65.362  1.00  0.00     0.100 A 
ENDBRANCH   5  16
TORSDOF 2
ENDMDL
MODEL 9
REMARK VINA RESULT:      -7.8      9.192     11.439
REMARK  2 active torsions:
REMARK  status: ('A' for Active; 'I' for Inactive)
REMARK    1  A    between atoms: C_5  and  O_6 
REMARK    2  A    between atoms: C_5  and  C_7 
ROOT
HETATM    1  C   UNL     1       6.306  34.168  66.490  1.00  0.00     0.050 C 
HETATM    2  C   UNL     1       6.413  33.592  65.113  1.00  0.00    -0.034 A 
HETATM    3  C   UNL     1       5.318  33.466  64.270  1.00  0.00     0.052 A 
HETATM    4  C   UNL     1       5.405  32.952  62.964  1.00  0.00     0.039 A 
HETATM    5  C   UNL     1       4.031  32.941  62.347  1.00  0.00     0.200 A 
HETATM    6  C   UNL     1       3.158  33.549  63.491  1.00  0.00     0.266 A 
HETATM    7  O   UNL     1       1.945  33.702  63.498  1.00  0.00    -0.269 OA
HETATM    8  N   UNL     1       4.005  33.823  64.559  1.00  0.00    -0.323 N 
HETATM    9  C   UNL     1       6.631  32.537  62.476  1.00  0.00     0.046 A 
HETATM   10 CL   UNL     1       6.824  31.865  60.906  1.00  0.00    -0.084 Cl
HETATM   11  C   UNL     1       7.759  32.671  63.295  1.00  0.00     0.025 A 
HETATM   12  C   UNL     1       7.653  33.197  64.594  1.00  0.00     0.011 A 
HETATM   13  H   UNL     1       3.668  34.199  65.433  1.00  0.00     0.169 HD
ENDROOT
BRANCH   5  14
HETATM   14  O   UNL     1       3.619  31.598  62.103  1.00  0.00    -0.371 OA
HETATM   15  H   UNL     1       4.394  31.056  62.331  1.00  0.00     0.212 HD
ENDBRANCH   5  14
BRANCH   5  16
HETATM   16  C   UNL     1       4.020  33.805  61.111  1.00  0.00     0.018 A 
HETATM   17  C   UNL     1       3.917  33.412  59.725  1.00  0.00     0.002 A 
HETATM   18  C   UNL     1       3.961  34.576  58.952  1.00  0.00     0.043 A 
HETATM   19  C   UNL     1       3.782  32.182  59.045  1.00  0.00     0.014 A 
HETATM   20  C   UNL     1       3.874  34.571  57.554  1.00  0.00     0.030 A 
HETATM   21  N   UNL     1       4.094  35.635  59.815  1.00  0.00    -0.365 N 
HETATM   22  C   UNL     1       3.732  33.339  56.914  1.00  0.00     0.002 A 
HETATM   23  C   UNL     1       3.685  32.159  57.648  1.00  0.00     0.001 A 
HETATM   24  H   UNL     1       4.150  36.602  59.529  1.00  0.00     0.165 HD
HETATM   25  C   UNL     1       4.130  35.190  61.105  1.00  0.00     0.100 A 
ENDBRANCH   5  16
TORSDOF 2
ENDMDL
MODEL 10
REMARK VINA RESULT:      -7.6      2.241      3.460
REMARK  2 active torsions:
REMARK  status: ('A' for Active; 'I' for Inactive)
REMARK    1  A    between atoms: C_5  and  O_6 
REMARK    2  A    between atoms: C_5  and  C_7 
ROOT
HETATM    1  C   UNL     1       7.821  23.272  53.670  1.00  0.00     0.050 C 
HETATM    2  C   UNL     1       7.399  24.702  53.803  1.00  0.00    -0.034 A 
HETATM    3  C   UNL     1       7.518  25.408  54.991  1.00  0.00     0.052 A 
HETATM    4  C   UNL     1       7.153  26.758  55.127  1.00  0.00     0.039 A 
HETATM    5  C   UNL     1       7.395  27.194  56.548  1.00  0.00     0.200 A 
HETATM    6  C   UNL     1       7.977  25.894  57.190  1.00  0.00     0.266 A 
HETATM    7  O   UNL     1       8.287  25.718  58.359  1.00  0.00    -0.269 OA
HETATM    8  N   UNL     1       8.011  24.920  56.198  1.00  0.00    -0.323 N 
HETATM    9  C   UNL     1       6.639  27.437  54.036  1.00  0.00     0.046 A 
HETATM   10 CL   UNL     1       6.134  29.077  54.119  1.00  0.00    -0.084 Cl
HETATM   11  C   UNL     1       6.526  26.758  52.816  1.00  0.00     0.025 A 
HETATM   12  C   UNL     1       6.907  25.410  52.699  1.00  0.00     0.011 A 
HETATM   13  H   UNL     1       8.323  23.978  56.377  1.00  0.00     0.169 HD
ENDROOT
BRANCH   5  14
HETATM   14  O   UNL     1       6.156  27.516  57.175  1.00  0.00    -0.371 OA
HETATM   15  H   UNL     1       6.298  28.396  57.565  1.00  0.00     0.212 HD
ENDBRANCH   5  14
BRANCH   5  16
HETATM   16  C   UNL     1       8.391  28.327  56.571  1.00  0.00     0.018 A 
HETATM   17  C   UNL     1       8.637  29.303  57.607  1.00  0.00     0.002 A 
HETATM   18  C   UNL     1       9.652  30.151  57.155  1.00  0.00     0.043 A 
HETATM   19  C   UNL     1       8.104  29.549  58.892  1.00  0.00     0.014 A 
HETATM   20  C   UNL     1      10.156  31.215  57.914  1.00  0.00     0.030 A 
HETATM   21  N   UNL     1      10.010  29.727  55.900  1.00  0.00    -0.365 N 
HETATM   22  C   UNL     1       9.615  31.424  59.182  1.00  0.00     0.002 A 
HETATM   23  C   UNL     1       8.603  30.603  59.668  1.00  0.00     0.001 A 
HETATM   24  H   UNL     1      10.726  30.159  55.332  1.00  0.00     0.165 HD
HETATM   25  C   UNL     1       9.267  28.640  55.540  1.00  0.00     0.100 A 
ENDBRANCH   5  16
TORSDOF 2
ENDMDL
