MODEL 1
REMARK VINA RESULT:     -10.0      0.000      0.000
REMARK  5 active torsions:
REMARK  status: ('A' for Active; 'I' for Inactive)
REMARK    1  A    between atoms: C_2  and  N_3 
REMARK    2  A    between atoms: C_11  and  C_12 
REMARK    3  A    between atoms: C_14  and  C_15 
REMARK    4  A    between atoms: C_15  and  O_16 
REMARK    5  A    between atoms: O_16  and  C_17 
ROOT
HETATM    1  N   UNL     1       6.409  32.450  62.636  1.00  0.00    -0.067 N 
HETATM    2  H   UNL     1       6.060  31.504  62.841  1.00  0.00     0.280 HD
HETATM    3  C   UNL     1       5.633  32.928  61.408  1.00  0.00     0.281 C 
HETATM    4  C   UNL     1       6.069  32.199  60.185  1.00  0.00     0.018 A 
HETATM    5  C   UNL     1       7.215  31.434  60.075  1.00  0.00    -0.023 A 
HETATM    6  C   UNL     1       7.354  30.893  58.758  1.00  0.00     0.073 A 
HETATM    7  C   UNL     1       6.323  31.288  57.936  1.00  0.00     0.088 A 
HETATM    8  N   UNL     1       6.233  30.924  56.635  1.00  0.00    -0.357 N 
HETATM    9  C   UNL     1       6.957  29.728  56.228  1.00  0.00     0.243 C 
HETATM   10  N   UNL     1       8.234  29.693  56.898  1.00  0.00    -0.330 N 
HETATM   11  C   UNL     1       8.398  30.050  58.210  1.00  0.00     0.256 C 
HETATM   12  O   UNL     1       9.381  29.702  58.855  1.00  0.00    -0.267 OA
HETATM   13  S   UNL     1       5.187  32.271  58.730  1.00  0.00    -0.074 SA
HETATM   14  C   UNL     1       8.136  31.238  61.239  1.00  0.00     0.068 C 
HETATM   15  C   UNL     1       7.902  32.303  62.323  1.00  0.00     0.240 C 
HETATM   16  H   UNL     1       5.307  30.965  56.215  1.00  0.00     0.162 HD
HETATM   17  H   UNL     1       8.942  29.069  56.542  1.00  0.00     0.165 HD
ENDROOT
BRANCH   9  18
HETATM   18  C   UNL     1       6.237  28.428  56.445  1.00  0.00     0.095 A 
HETATM   19  O   UNL     1       7.014  27.314  56.617  1.00  0.00    -0.313 OA
HETATM   20  C   UNL     1       6.175  26.254  56.796  1.00  0.00     0.077 A 
HETATM   21  C   UNL     1       4.865  26.681  56.770  1.00  0.00     0.037 A 
HETATM   22  C   UNL     1       4.903  28.079  56.552  1.00  0.00     0.039 A 
BRANCH  20  23
HETATM   23  C   UNL     1       6.807  24.924  57.009  1.00  0.00     0.240 C 
BRANCH  23  24
HETATM   24  O   UNL     1       7.993  24.881  56.203  1.00  0.00    -0.341 OA
BRANCH  24  25
HETATM   25  C   UNL     1       8.029  23.791  55.369  1.00  0.00     0.112 A 
HETATM   26  C   UNL     1       8.230  22.484  55.837  1.00  0.00     0.070 A 
HETATM   27 CL   UNL     1       8.453  22.129  57.512  1.00  0.00    -0.081 Cl
HETATM   28  C   UNL     1       8.295  21.415  54.939  1.00  0.00     0.050 A 
HETATM   29  C   UNL     1       8.186  21.652  53.573  1.00  0.00     0.037 A 
HETATM   30 CL   UNL     1       8.280  20.336  52.469  1.00  0.00    -0.084 Cl
HETATM   31  C   UNL     1       8.023  22.947  53.088  1.00  0.00     0.050 A 
HETATM   32  C   UNL     1       7.954  24.014  53.986  1.00  0.00     0.070 A 
HETATM   33 CL   UNL     1       7.775  25.609  53.345  1.00  0.00    -0.081 Cl
ENDBRANCH  24  25
ENDBRANCH  23  24
ENDBRANCH  20  23
ENDBRANCH   9  18
BRANCH   1  34
HETATM   34  C   UNL     1       6.186  33.310  63.854  1.00  0.00     0.231 C 
HETATM   35  C   UNL     1       7.478  33.516  64.625  1.00  0.00     0.034 C 
ENDBRANCH   1  34
TORSDOF 5
ENDMDL
MODEL 2
REMARK VINA RESULT:      -9.9      1.269      2.187
REMARK  5 active torsions:
REMARK  status: ('A' for Active; 'I' for Inactive)
REMARK    1  A    between atoms: C_2  and  N_3 
REMARK    2  A    between atoms: C_11  and  C_12 
REMARK    3  A    between atoms: C_14  and  C_15 
REMARK    4  A    between atoms: C_15  and  O_16 
REMARK    5  A    between atoms: O_16  and  C_17 
ROOT
HETATM    1  N   UNL     1       5.088  32.769  63.089  1.00  0.00    -0.067 N 
HETATM    2  H   UNL     1       4.711  31.813  63.137  1.00  0.00     0.280 HD
HETATM    3  C   UNL     1       4.921  33.214  61.636  1.00  0.00     0.281 C 
HETATM    4  C   UNL     1       5.874  32.495  60.745  1.00  0.00     0.018 A 
HETATM    5  C   UNL     1       6.971  31.768  61.169  1.00  0.00    -0.023 A 
HETATM    6  C   UNL     1       7.693  31.226  60.059  1.00  0.00     0.073 A 
HETATM    7  C   UNL     1       7.122  31.581  58.859  1.00  0.00     0.088 A 
HETATM    8  N   UNL     1       7.627  31.208  57.660  1.00  0.00    -0.357 N 
HETATM    9  C   UNL     1       8.490  30.034  57.637  1.00  0.00     0.243 C 
HETATM   10  N   UNL     1       9.339  30.046  58.804  1.00  0.00    -0.330 N 
HETATM   11  C   UNL     1       8.896  30.415  60.046  1.00  0.00     0.256 C 
HETATM   12  O   UNL     1       9.501  30.104  61.066  1.00  0.00    -0.267 OA
HETATM   13  S   UNL     1       5.726  32.529  59.050  1.00  0.00    -0.074 SA
HETATM   14  C   UNL     1       7.287  31.609  62.623  1.00  0.00     0.068 C 
HETATM   15  C   UNL     1       6.569  32.671  63.471  1.00  0.00     0.240 C 
HETATM   16  H   UNL     1       6.982  31.216  56.873  1.00  0.00     0.162 HD
HETATM   17  H   UNL     1      10.148  29.445  58.809  1.00  0.00     0.165 HD
ENDROOT
BRANCH   9  18
HETATM   18  C   UNL     1       7.785  28.713  57.539  1.00  0.00     0.095 A 
HETATM   19  O   UNL     1       8.574  27.599  57.438  1.00  0.00    -0.313 OA
HETATM   20  C   UNL     1       7.747  26.516  57.360  1.00  0.00     0.077 A 
HETATM   21  C   UNL     1       6.433  26.923  57.440  1.00  0.00     0.037 A 
HETATM   22  C   UNL     1       6.455  28.333  57.562  1.00  0.00     0.039 A 
BRANCH  20  23
HETATM   23  C   UNL     1       8.394  25.182  57.249  1.00  0.00     0.240 C 
BRANCH  23  24
HETATM   24  O   UNL     1       7.351  24.220  57.035  1.00  0.00    -0.341 OA
BRANCH  24  25
HETATM   25  C   UNL     1       7.607  23.387  55.974  1.00  0.00     0.112 A 
HETATM   26  C   UNL     1       7.329  23.741  54.646  1.00  0.00     0.070 A 
HETATM   27 CL   UNL     1       6.633  25.264  54.225  1.00  0.00    -0.081 Cl
HETATM   28  C   UNL     1       7.575  22.838  53.608  1.00  0.00     0.050 A 
HETATM   29  C   UNL     1       8.075  21.573  53.897  1.00  0.00     0.037 A 
HETATM   30 CL   UNL     1       8.365  20.459  52.618  1.00  0.00    -0.084 Cl
HETATM   31  C   UNL     1       8.323  21.191  55.213  1.00  0.00     0.050 A 
HETATM   32  C   UNL     1       8.081  22.094  56.248  1.00  0.00     0.070 A 
HETATM   33 CL   UNL     1       8.378  21.575  57.870  1.00  0.00    -0.081 Cl
ENDBRANCH  24  25
ENDBRANCH  23  24
ENDBRANCH  20  23
ENDBRANCH   9  18
BRANCH   1  34
HETATM   34  C   UNL     1       4.325  33.628  64.066  1.00  0.00     0.231 C 
HETATM   35  C   UNL     1       5.022  33.677  65.414  1.00  0.00     0.034 C 
ENDBRANCH   1  34
TORSDOF 5
ENDMDL
MODEL 3
REMARK VINA RESULT:      -9.8      4.231      9.949
REMARK  5 active torsions:
REMARK  status: ('A' for Active; 'I' for Inactive)
REMARK    1  A    between atoms: C_2  and  N_3 
REMARK    2  A    between atoms: C_11  and  C_12 
REMARK    3  A    between atoms: C_14  and  C_15 
REMARK    4  A    between atoms: C_15  and  O_16 
REMARK    5  A    between atoms: O_16  and  C_17 
ROOT
HETATM    1  N   UNL     1       8.714  21.925  54.347  1.00  0.00    -0.067 N 
HETATM    2  H   UNL     1       9.546  22.274  54.842  1.00  0.00     0.280 HD
HETATM    3  C   UNL     1       8.412  22.954  53.256  1.00  0.00     0.281 C 
HETATM    4  C   UNL     1       7.879  24.213  53.843  1.00  0.00     0.018 A 
HETATM    5  C   UNL     1       7.411  24.358  55.137  1.00  0.00    -0.023 A 
HETATM    6  C   UNL     1       6.943  25.689  55.373  1.00  0.00     0.073 A 
HETATM    7  C   UNL     1       7.063  26.476  54.251  1.00  0.00     0.088 A 
HETATM    8  N   UNL     1       6.674  27.772  54.211  1.00  0.00    -0.357 N 
HETATM    9  C   UNL     1       6.578  28.477  55.483  1.00  0.00     0.243 C 
HETATM   10  N   UNL     1       6.026  27.590  56.478  1.00  0.00    -0.330 N 
HETATM   11  C   UNL     1       6.372  26.269  56.574  1.00  0.00     0.256 C 
HETATM   12  O   UNL     1       6.176  25.623  57.597  1.00  0.00    -0.267 OA
HETATM   13  S   UNL     1       7.747  25.648  52.935  1.00  0.00    -0.074 SA
HETATM   14  C   UNL     1       7.435  23.218  56.107  1.00  0.00     0.068 C 
HETATM   15  C   UNL     1       7.585  21.870  55.382  1.00  0.00     0.240 C 
HETATM   16  H   UNL     1       7.098  28.352  53.490  1.00  0.00     0.162 HD
HETATM   17  H   UNL     1       5.674  27.994  57.332  1.00  0.00     0.165 HD
ENDROOT
BRANCH   9  18
HETATM   18  C   UNL     1       7.858  29.073  55.991  1.00  0.00     0.095 A 
HETATM   19  O   UNL     1       7.859  29.519  57.286  1.00  0.00    -0.313 OA
HETATM   20  C   UNL     1       9.102  30.018  57.546  1.00  0.00     0.077 A 
HETATM   21  C   UNL     1       9.908  29.871  56.439  1.00  0.00     0.037 A 
HETATM   22  C   UNL     1       9.113  29.258  55.441  1.00  0.00     0.039 A 
BRANCH  20  23
HETATM   23  C   UNL     1       9.338  30.558  58.912  1.00  0.00     0.240 C 
BRANCH  23  24
HETATM   24  O   UNL     1       8.837  31.903  58.931  1.00  0.00    -0.341 OA
BRANCH  24  25
HETATM   25  C   UNL     1       7.869  32.096  59.884  1.00  0.00     0.112 A 
HETATM   26  C   UNL     1       6.512  32.255  59.567  1.00  0.00     0.070 A 
HETATM   27 CL   UNL     1       5.936  32.224  57.939  1.00  0.00    -0.081 Cl
HETATM   28  C   UNL     1       5.573  32.486  60.577  1.00  0.00     0.050 A 
HETATM   29  C   UNL     1       5.991  32.585  61.899  1.00  0.00     0.037 A 
HETATM   30 CL   UNL     1       4.836  32.882  63.139  1.00  0.00    -0.084 Cl
HETATM   31  C   UNL     1       7.339  32.466  62.229  1.00  0.00     0.050 A 
HETATM   32  C   UNL     1       8.275  32.231  61.221  1.00  0.00     0.070 A 
HETATM   33 CL   UNL     1       9.941  32.113  61.666  1.00  0.00    -0.081 Cl
ENDBRANCH  24  25
ENDBRANCH  23  24
ENDBRANCH  20  23
ENDBRANCH   9  18
BRANCH   1  34
HETATM   34  C   UNL     1       9.028  20.554  53.804  1.00  0.00     0.231 C 
HETATM   35  C   UNL     1       8.266  20.285  52.519  1.00  0.00     0.034 C 
ENDBRANCH   1  34
TORSDOF 5
ENDMDL
MODEL 4
REMARK VINA RESULT:      -9.5      4.704      7.964
REMARK  5 active torsions:
REMARK  status: ('A' for Active; 'I' for Inactive)
REMARK    1  A    between atoms: C_2  and  N_3 
REMARK    2  A    between atoms: C_11  and  C_12 
REMARK    3  A    between atoms: C_14  and  C_15 
REMARK    4  A    between atoms: C_15  and  O_16 
REMARK    5  A    between atoms: O_16  and  C_17 
ROOT
HETATM    1  N   UNL     1       1.857  27.564  49.166  1.00  0.00    -0.067 N 
HETATM    2  H   UNL     1       1.445  26.952  49.883  1.00  0.00     0.280 HD
HETATM    3  C   UNL     1       3.359  27.275  49.182  1.00  0.00     0.281 C 
HETATM    4  C   UNL     1       3.994  27.821  50.413  1.00  0.00     0.018 A 
HETATM    5  C   UNL     1       3.413  28.731  51.277  1.00  0.00    -0.023 A 
HETATM    6  C   UNL     1       4.300  29.070  52.347  1.00  0.00     0.073 A 
HETATM    7  C   UNL     1       5.506  28.418  52.232  1.00  0.00     0.088 A 
HETATM    8  N   UNL     1       6.523  28.583  53.111  1.00  0.00    -0.357 N 
HETATM    9  C   UNL     1       6.181  29.071  54.440  1.00  0.00     0.243 C 
HETATM   10  N   UNL     1       5.156  30.081  54.327  1.00  0.00    -0.330 N 
HETATM   11  C   UNL     1       4.102  29.981  53.459  1.00  0.00     0.256 C 
HETATM   12  O   UNL     1       3.082  30.645  53.603  1.00  0.00    -0.267 OA
HETATM   13  S   UNL     1       5.575  27.394  50.879  1.00  0.00    -0.074 SA
HETATM   14  C   UNL     1       2.023  29.241  51.054  1.00  0.00     0.068 C 
HETATM   15  C   UNL     1       1.566  29.003  49.605  1.00  0.00     0.240 C 
HETATM   16  H   UNL     1       7.215  27.838  53.150  1.00  0.00     0.162 HD
HETATM   17  H   UNL     1       4.989  30.680  55.121  1.00  0.00     0.165 HD
ENDROOT
BRANCH   9  18
HETATM   18  C   UNL     1       5.750  28.022  55.425  1.00  0.00     0.095 A 
HETATM   19  O   UNL     1       6.563  26.929  55.556  1.00  0.00    -0.313 OA
HETATM   20  C   UNL     1       5.998  26.108  56.487  1.00  0.00     0.077 A 
HETATM   21  C   UNL     1       4.843  26.678  56.977  1.00  0.00     0.037 A 
HETATM   22  C   UNL     1       4.686  27.911  56.301  1.00  0.00     0.039 A 
BRANCH  20  23
HETATM   23  C   UNL     1       6.721  24.846  56.799  1.00  0.00     0.240 C 
BRANCH  23  24
HETATM   24  O   UNL     1       7.915  24.831  56.003  1.00  0.00    -0.341 OA
BRANCH  24  25
HETATM   25  C   UNL     1       8.017  23.708  55.219  1.00  0.00     0.112 A 
HETATM   26  C   UNL     1       8.219  22.427  55.750  1.00  0.00     0.070 A 
HETATM   27 CL   UNL     1       8.364  22.145  57.448  1.00  0.00    -0.081 Cl
HETATM   28  C   UNL     1       8.352  21.324  54.902  1.00  0.00     0.050 A 
HETATM   29  C   UNL     1       8.309  21.503  53.523  1.00  0.00     0.037 A 
HETATM   30 CL   UNL     1       8.486  20.146  52.481  1.00  0.00    -0.084 Cl
HETATM   31  C   UNL     1       8.144  22.773  52.978  1.00  0.00     0.050 A 
HETATM   32  C   UNL     1       8.007  23.874  53.825  1.00  0.00     0.070 A 
HETATM   33 CL   UNL     1       7.829  25.437  53.110  1.00  0.00    -0.081 Cl
ENDBRANCH  24  25
ENDBRANCH  23  24
ENDBRANCH  20  23
ENDBRANCH   9  18
BRANCH   1  34
HETATM   34  C   UNL     1       1.204  27.250  47.844  1.00  0.00     0.231 C 
HETATM   35  C   UNL     1       2.142  26.471  46.939  1.00  0.00     0.034 C 
ENDBRANCH   1  34
TORSDOF 5
ENDMDL
MODEL 5
REMARK VINA RESULT:      -9.4      4.749      9.953
REMARK  5 active torsions:
REMARK  status: ('A' for Active; 'I' for Inactive)
REMARK    1  A    between atoms: C_2  and  N_3 
REMARK    2  A    between atoms: C_11  and  C_12 
REMARK    3  A    between atoms: C_14  and  C_15 
REMARK    4  A    between atoms: C_15  and  O_16 
REMARK    5  A    between atoms: O_16  and  C_17 
ROOT
HETATM    1  N   UNL     1       5.106  27.606  50.619  1.00  0.00    -0.067 N 
HETATM    2  H   UNL     1       5.932  28.220  50.630  1.00  0.00     0.280 HD
HETATM    3  C   UNL     1       4.221  28.072  51.776  1.00  0.00     0.281 C 
HETATM    4  C   UNL     1       4.821  27.707  53.088  1.00  0.00     0.018 A 
HETATM    5  C   UNL     1       5.854  26.806  53.272  1.00  0.00    -0.023 A 
HETATM    6  C   UNL     1       6.176  26.663  54.659  1.00  0.00     0.073 A 
HETATM    7  C   UNL     1       5.366  27.443  55.452  1.00  0.00     0.088 A 
HETATM    8  N   UNL     1       5.458  27.471  56.802  1.00  0.00    -0.357 N 
HETATM    9  C   UNL     1       6.723  27.055  57.391  1.00  0.00     0.243 C 
HETATM   10  N   UNL     1       7.240  25.924  56.659  1.00  0.00    -0.330 N 
HETATM   11  C   UNL     1       7.178  25.828  55.294  1.00  0.00     0.256 C 
HETATM   12  O   UNL     1       7.900  25.059  54.668  1.00  0.00    -0.267 OA
HETATM   13  S   UNL     1       4.249  28.355  54.554  1.00  0.00    -0.074 SA
HETATM   14  C   UNL     1       6.505  26.118  52.114  1.00  0.00     0.068 C 
HETATM   15  C   UNL     1       5.622  26.182  50.857  1.00  0.00     0.240 C 
HETATM   16  H   UNL     1       5.080  28.295  57.265  1.00  0.00     0.162 HD
HETATM   17  H   UNL     1       7.970  25.375  57.085  1.00  0.00     0.165 HD
ENDROOT
BRANCH   9  18
HETATM   18  C   UNL     1       7.777  28.120  57.485  1.00  0.00     0.095 A 
HETATM   19  O   UNL     1       7.505  29.187  58.300  1.00  0.00    -0.313 OA
HETATM   20  C   UNL     1       8.576  30.029  58.243  1.00  0.00     0.077 A 
HETATM   21  C   UNL     1       9.547  29.499  57.421  1.00  0.00     0.037 A 
HETATM   22  C   UNL     1       9.038  28.270  56.938  1.00  0.00     0.039 A 
BRANCH  20  23
HETATM   23  C   UNL     1       8.504  31.267  59.064  1.00  0.00     0.240 C 
BRANCH  23  24
HETATM   24  O   UNL     1       7.266  31.225  59.789  1.00  0.00    -0.341 OA
BRANCH  24  25
HETATM   25  C   UNL     1       7.334  31.877  60.995  1.00  0.00     0.112 A 
HETATM   26  C   UNL     1       8.237  31.513  62.005  1.00  0.00     0.070 A 
HETATM   27 CL   UNL     1       9.345  30.202  61.821  1.00  0.00    -0.081 Cl
HETATM   28  C   UNL     1       8.237  32.188  63.229  1.00  0.00     0.050 A 
HETATM   29  C   UNL     1       7.321  33.210  63.455  1.00  0.00     0.037 A 
HETATM   30 CL   UNL     1       7.315  34.031  64.966  1.00  0.00    -0.084 Cl
HETATM   31  C   UNL     1       6.394  33.561  62.476  1.00  0.00     0.050 A 
HETATM   32  C   UNL     1       6.397  32.889  61.253  1.00  0.00     0.070 A 
HETATM   33 CL   UNL     1       5.215  33.337  60.074  1.00  0.00    -0.081 Cl
ENDBRANCH  24  25
ENDBRANCH  23  24
ENDBRANCH  20  23
ENDBRANCH   9  18
BRANCH   1  34
HETATM   34  C   UNL     1       4.442  27.731  49.271  1.00  0.00     0.231 C 
HETATM   35  C   UNL     1       4.253  26.372  48.624  1.00  0.00     0.034 C 
ENDBRANCH   1  34
TORSDOF 5
ENDMDL
MODEL 6
REMARK VINA RESULT:      -9.2      5.063     10.128
REMARK  5 active torsions:
REMARK  status: ('A' for Active; 'I' for Inactive)
REMARK    1  A    between atoms: C_2  and  N_3 
REMARK    2  A    between atoms: C_11  and  C_12 
REMARK    3  A    between atoms: C_14  and  C_15 
REMARK    4  A    between atoms: C_15  and  O_16 
REMARK    5  A    between atoms: O_16  and  C_17 
ROOT
HETATM    1  N   UNL     1       4.587  28.004  49.298  1.00  0.00    -0.067 N 
HETATM    2  H   UNL     1       5.559  28.325  49.404  1.00  0.00     0.280 HD
HETATM    3  C   UNL     1       3.764  28.820  50.295  1.00  0.00     0.281 C 
HETATM    4  C   UNL     1       4.045  28.395  51.693  1.00  0.00     0.018 A 
HETATM    5  C   UNL     1       4.700  27.233  52.060  1.00  0.00    -0.023 A 
HETATM    6  C   UNL     1       4.782  27.112  53.484  1.00  0.00     0.073 A 
HETATM    7  C   UNL     1       4.176  28.170  54.120  1.00  0.00     0.088 A 
HETATM    8  N   UNL     1       4.103  28.281  55.467  1.00  0.00    -0.357 N 
HETATM    9  C   UNL     1       5.082  27.538  56.249  1.00  0.00     0.243 C 
HETATM   10  N   UNL     1       5.292  26.245  55.643  1.00  0.00    -0.330 N 
HETATM   11  C   UNL     1       5.373  26.059  54.289  1.00  0.00     0.256 C 
HETATM   12  O   UNL     1       5.879  25.054  53.804  1.00  0.00    -0.267 OA
HETATM   13  S   UNL     1       3.536  29.310  53.035  1.00  0.00    -0.074 SA
HETATM   14  C   UNL     1       5.232  26.281  51.035  1.00  0.00     0.068 C 
HETATM   15  C   UNL     1       4.581  26.515  49.662  1.00  0.00     0.240 C 
HETATM   16  H   UNL     1       3.957  29.217  55.838  1.00  0.00     0.162 HD
HETATM   17  H   UNL     1       5.747  25.531  56.191  1.00  0.00     0.165 HD
ENDROOT
BRANCH   9  18
HETATM   18  C   UNL     1       6.403  28.221  56.452  1.00  0.00     0.095 A 
HETATM   19  O   UNL     1       6.660  28.707  57.707  1.00  0.00    -0.313 OA
HETATM   20  C   UNL     1       7.896  29.283  57.678  1.00  0.00     0.077 A 
HETATM   21  C   UNL     1       8.448  29.146  56.423  1.00  0.00     0.037 A 
HETATM   22  C   UNL     1       7.494  28.458  55.636  1.00  0.00     0.039 A 
BRANCH  20  23
HETATM   23  C   UNL     1       8.390  29.879  58.947  1.00  0.00     0.240 C 
BRANCH  23  24
HETATM   24  O   UNL     1       8.387  31.304  58.779  1.00  0.00    -0.341 OA
BRANCH  24  25
HETATM   25  C   UNL     1       7.540  31.941  59.653  1.00  0.00     0.112 A 
HETATM   26  C   UNL     1       6.236  32.321  59.305  1.00  0.00     0.070 A 
HETATM   27 CL   UNL     1       5.577  32.025  57.737  1.00  0.00    -0.081 Cl
HETATM   28  C   UNL     1       5.431  33.000  60.223  1.00  0.00     0.050 A 
HETATM   29  C   UNL     1       5.935  33.323  61.479  1.00  0.00     0.037 A 
HETATM   30 CL   UNL     1       4.946  34.170  62.603  1.00  0.00    -0.084 Cl
HETATM   31  C   UNL     1       7.240  32.984  61.828  1.00  0.00     0.050 A 
HETATM   32  C   UNL     1       8.042  32.302  60.912  1.00  0.00     0.070 A 
HETATM   33 CL   UNL     1       9.664  31.922  61.374  1.00  0.00    -0.081 Cl
ENDBRANCH  24  25
ENDBRANCH  23  24
ENDBRANCH  20  23
ENDBRANCH   9  18
BRANCH   1  34
HETATM   34  C   UNL     1       4.173  28.220  47.864  1.00  0.00     0.231 C 
HETATM   35  C   UNL     1       3.547  26.967  47.279  1.00  0.00     0.034 C 
ENDBRANCH   1  34
TORSDOF 5
ENDMDL
MODEL 7
REMARK VINA RESULT:      -9.0      4.319      9.747
REMARK  5 active torsions:
REMARK  status: ('A' for Active; 'I' for Inactive)
REMARK    1  A    between atoms: C_2  and  N_3 
REMARK    2  A    between atoms: C_11  and  C_12 
REMARK    3  A    between atoms: C_14  and  C_15 
REMARK    4  A    between atoms: C_15  and  O_16 
REMARK    5  A    between atoms: O_16  and  C_17 
ROOT
HETATM    1  N   UNL     1       7.324  22.294  55.432  1.00  0.00    -0.067 N 
HETATM    2  H   UNL     1       6.321  22.445  55.603  1.00  0.00     0.280 HD
HETATM    3  C   UNL     1       8.058  23.104  56.501  1.00  0.00     0.281 C 
HETATM    4  C   UNL     1       7.947  24.564  56.235  1.00  0.00     0.018 A 
HETATM    5  C   UNL     1       7.529  25.131  55.045  1.00  0.00    -0.023 A 
HETATM    6  C   UNL     1       7.563  26.560  55.111  1.00  0.00     0.073 A 
HETATM    7  C   UNL     1       8.018  27.001  56.332  1.00  0.00     0.088 A 
HETATM    8  N   UNL     1       8.160  28.312  56.639  1.00  0.00    -0.357 N 
HETATM    9  C   UNL     1       7.378  29.265  55.863  1.00  0.00     0.243 C 
HETATM   10  N   UNL     1       7.354  28.848  54.482  1.00  0.00    -0.330 N 
HETATM   11  C   UNL     1       7.218  27.541  54.100  1.00  0.00     0.256 C 
HETATM   12  O   UNL     1       6.861  27.233  52.967  1.00  0.00    -0.267 OA
HETATM   13  S   UNL     1       8.379  25.729  57.399  1.00  0.00    -0.074 SA
HETATM   14  C   UNL     1       7.102  24.286  53.886  1.00  0.00     0.068 C 
HETATM   15  C   UNL     1       7.611  22.841  54.030  1.00  0.00     0.240 C 
HETATM   16  H   UNL     1       8.166  28.548  57.629  1.00  0.00     0.162 HD
HETATM   17  H   UNL     1       7.067  29.520  53.787  1.00  0.00     0.165 HD
ENDROOT
BRANCH   9  18
HETATM   18  C   UNL     1       5.975  29.497  56.345  1.00  0.00     0.095 A 
HETATM   19  O   UNL     1       5.825  30.294  57.448  1.00  0.00    -0.313 OA
HETATM   20  C   UNL     1       4.491  30.375  57.717  1.00  0.00     0.077 A 
HETATM   21  C   UNL     1       3.778  29.660  56.778  1.00  0.00     0.037 A 
HETATM   22  C   UNL     1       4.730  29.101  55.892  1.00  0.00     0.039 A 
BRANCH  20  23
HETATM   23  C   UNL     1       4.088  31.205  58.884  1.00  0.00     0.240 C 
BRANCH  23  24
HETATM   24  O   UNL     1       4.991  32.318  58.947  1.00  0.00    -0.341 OA
BRANCH  24  25
HETATM   25  C   UNL     1       5.554  32.476  60.189  1.00  0.00     0.112 A 
HETATM   26  C   UNL     1       4.848  32.999  61.282  1.00  0.00     0.070 A 
HETATM   27 CL   UNL     1       3.200  33.497  61.161  1.00  0.00    -0.081 Cl
HETATM   28  C   UNL     1       5.483  33.172  62.515  1.00  0.00     0.050 A 
HETATM   29  C   UNL     1       6.829  32.848  62.651  1.00  0.00     0.037 A 
HETATM   30 CL   UNL     1       7.611  33.074  64.167  1.00  0.00    -0.084 Cl
HETATM   31  C   UNL     1       7.555  32.361  61.567  1.00  0.00     0.050 A 
HETATM   32  C   UNL     1       6.919  32.184  60.337  1.00  0.00     0.070 A 
HETATM   33 CL   UNL     1       7.860  31.602  59.010  1.00  0.00    -0.081 Cl
ENDBRANCH  24  25
ENDBRANCH  23  24
ENDBRANCH  20  23
ENDBRANCH   9  18
BRANCH   1  34
HETATM   34  C   UNL     1       7.599  20.814  55.511  1.00  0.00     0.231 C 
HETATM   35  C   UNL     1       8.328  20.325  54.273  1.00  0.00     0.034 C 
ENDBRANCH   1  34
TORSDOF 5
ENDMDL
MODEL 8
REMARK VINA RESULT:      -8.9      7.165     10.147
REMARK  5 active torsions:
REMARK  status: ('A' for Active; 'I' for Inactive)
REMARK    1  A    between atoms: C_2  and  N_3 
REMARK    2  A    between atoms: C_11  and  C_12 
REMARK    3  A    between atoms: C_14  and  C_15 
REMARK    4  A    between atoms: C_15  and  O_16 
REMARK    5  A    between atoms: O_16  and  C_17 
ROOT
HETATM    1  N   UNL     1      -0.072  28.623  46.611  1.00  0.00    -0.067 N 
HETATM    2  H   UNL     1      -0.470  28.747  47.552  1.00  0.00     0.280 HD
HETATM    3  C   UNL     1       0.749  27.334  46.670  1.00  0.00     0.281 C 
HETATM    4  C   UNL     1       1.988  27.527  47.472  1.00  0.00     0.018 A 
HETATM    5  C   UNL     1       2.512  28.749  47.854  1.00  0.00    -0.023 A 
HETATM    6  C   UNL     1       3.726  28.584  48.594  1.00  0.00     0.073 A 
HETATM    7  C   UNL     1       4.067  27.258  48.721  1.00  0.00     0.088 A 
HETATM    8  N   UNL     1       5.182  26.839  49.364  1.00  0.00    -0.357 N 
HETATM    9  C   UNL     1       5.770  27.749  50.338  1.00  0.00     0.243 C 
HETATM   10  N   UNL     1       5.693  29.099  49.834  1.00  0.00    -0.330 N 
HETATM   11  C   UNL     1       4.599  29.588  49.173  1.00  0.00     0.256 C 
HETATM   12  O   UNL     1       4.400  30.792  49.055  1.00  0.00    -0.267 OA
HETATM   13  S   UNL     1       2.943  26.216  47.988  1.00  0.00    -0.074 SA
HETATM   14  C   UNL     1       1.829  30.034  47.504  1.00  0.00     0.068 C 
HETATM   15  C   UNL     1       0.825  29.839  46.356  1.00  0.00     0.240 C 
HETATM   16  H   UNL     1       5.179  25.878  49.700  1.00  0.00     0.162 HD
HETATM   17  H   UNL     1       6.267  29.803  50.272  1.00  0.00     0.165 HD
ENDROOT
BRANCH   9  18
HETATM   18  C   UNL     1       5.180  27.690  51.717  1.00  0.00     0.095 A 
HETATM   19  O   UNL     1       5.778  26.838  52.607  1.00  0.00    -0.313 OA
HETATM   20  C   UNL     1       5.097  26.934  53.786  1.00  0.00     0.077 A 
HETATM   21  C   UNL     1       4.086  27.863  53.669  1.00  0.00     0.037 A 
HETATM   22  C   UNL     1       4.142  28.355  52.344  1.00  0.00     0.039 A 
BRANCH  20  23
HETATM   23  C   UNL     1       5.580  26.092  54.912  1.00  0.00     0.240 C 
BRANCH  23  24
HETATM   24  O   UNL     1       6.992  25.910  54.734  1.00  0.00    -0.341 OA
BRANCH  24  25
HETATM   25  C   UNL     1       7.433  24.692  55.189  1.00  0.00     0.112 A 
HETATM   26  C   UNL     1       7.764  24.457  56.531  1.00  0.00     0.070 A 
HETATM   27 CL   UNL     1       7.650  25.686  57.737  1.00  0.00    -0.081 Cl
HETATM   28  C   UNL     1       8.243  23.206  56.931  1.00  0.00     0.050 A 
HETATM   29  C   UNL     1       8.417  22.198  55.988  1.00  0.00     0.037 A 
HETATM   30 CL   UNL     1       9.019  20.664  56.480  1.00  0.00    -0.084 Cl
HETATM   31  C   UNL     1       8.127  22.426  54.645  1.00  0.00     0.050 A 
HETATM   32  C   UNL     1       7.644  23.673  54.247  1.00  0.00     0.070 A 
HETATM   33 CL   UNL     1       7.320  23.924  52.568  1.00  0.00    -0.081 Cl
ENDBRANCH  24  25
ENDBRANCH  23  24
ENDBRANCH  20  23
ENDBRANCH   9  18
BRANCH   1  34
HETATM   34  C   UNL     1      -1.208  28.561  45.622  1.00  0.00     0.231 C 
HETATM   35  C   UNL     1      -2.307  29.543  45.986  1.00  0.00     0.034 C 
ENDBRANCH   1  34
TORSDOF 5
ENDMDL
MODEL 9
REMARK VINA RESULT:      -8.8      4.922      8.698
REMARK  5 active torsions:
REMARK  status: ('A' for Active; 'I' for Inactive)
REMARK    1  A    between atoms: C_2  and  N_3 
REMARK    2  A    between atoms: C_11  and  C_12 
REMARK    3  A    between atoms: C_14  and  C_15 
REMARK    4  A    between atoms: C_15  and  O_16 
REMARK    5  A    between atoms: O_16  and  C_17 
ROOT
HETATM    1  N   UNL     1       5.614  31.966  50.586  1.00  0.00    -0.067 N 
HETATM    2  H   UNL     1       6.559  31.793  50.951  1.00  0.00     0.280 HD
HETATM    3  C   UNL     1       4.655  31.636  51.730  1.00  0.00     0.281 C 
HETATM    4  C   UNL     1       4.595  30.168  51.969  1.00  0.00     0.018 A 
HETATM    5  C   UNL     1       5.070  29.197  51.107  1.00  0.00    -0.023 A 
HETATM    6  C   UNL     1       4.833  27.883  51.623  1.00  0.00     0.073 A 
HETATM    7  C   UNL     1       4.181  27.924  52.834  1.00  0.00     0.088 A 
HETATM    8  N   UNL     1       3.827  26.813  53.521  1.00  0.00    -0.357 N 
HETATM    9  C   UNL     1       4.557  25.587  53.227  1.00  0.00     0.243 C 
HETATM   10  N   UNL     1       4.800  25.508  51.806  1.00  0.00    -0.330 N 
HETATM   11  C   UNL     1       5.158  26.592  51.049  1.00  0.00     0.256 C 
HETATM   12  O   UNL     1       5.684  26.465  49.949  1.00  0.00    -0.267 OA
HETATM   13  S   UNL     1       3.874  29.509  53.364  1.00  0.00    -0.074 SA
HETATM   14  C   UNL     1       5.742  29.558  49.819  1.00  0.00     0.068 C 
HETATM   15  C   UNL     1       5.421  31.005  49.408  1.00  0.00     0.240 C 
HETATM   16  H   UNL     1       3.671  26.927  54.521  1.00  0.00     0.162 HD
HETATM   17  H   UNL     1       5.072  24.618  51.419  1.00  0.00     0.165 HD
ENDROOT
BRANCH   9  18
HETATM   18  C   UNL     1       5.849  25.407  53.970  1.00  0.00     0.095 A 
HETATM   19  O   UNL     1       6.130  26.324  54.948  1.00  0.00    -0.313 OA
HETATM   20  C   UNL     1       7.333  25.984  55.493  1.00  0.00     0.077 A 
HETATM   21  C   UNL     1       7.814  24.840  54.894  1.00  0.00     0.037 A 
HETATM   22  C   UNL     1       6.858  24.464  53.920  1.00  0.00     0.039 A 
BRANCH  20  23
HETATM   23  C   UNL     1       7.842  26.847  56.593  1.00  0.00     0.240 C 
BRANCH  23  24
HETATM   24  O   UNL     1       8.001  28.169  56.057  1.00  0.00    -0.341 OA
BRANCH  24  25
HETATM   25  C   UNL     1       8.073  29.132  57.033  1.00  0.00     0.112 A 
HETATM   26  C   UNL     1       6.938  29.650  57.674  1.00  0.00     0.070 A 
HETATM   27 CL   UNL     1       5.340  29.121  57.288  1.00  0.00    -0.081 Cl
HETATM   28  C   UNL     1       7.067  30.657  58.634  1.00  0.00     0.050 A 
HETATM   29  C   UNL     1       8.326  31.166  58.937  1.00  0.00     0.037 A 
HETATM   30 CL   UNL     1       8.481  32.414  60.110  1.00  0.00    -0.084 Cl
HETATM   31  C   UNL     1       9.460  30.689  58.284  1.00  0.00     0.050 A 
HETATM   32  C   UNL     1       9.331  29.681  57.328  1.00  0.00     0.070 A 
HETATM   33 CL   UNL     1      10.758  29.133  56.523  1.00  0.00    -0.081 Cl
ENDBRANCH  24  25
ENDBRANCH  23  24
ENDBRANCH  20  23
ENDBRANCH   9  18
BRANCH   1  34
HETATM   34  C   UNL     1       5.536  33.404  50.139  1.00  0.00     0.231 C 
HETATM   35  C   UNL     1       6.057  33.568  48.723  1.00  0.00     0.034 C 
ENDBRANCH   1  34
TORSDOF 5
ENDMDL
MODEL 10
REMARK VINA RESULT:      -8.7      1.776      2.594
REMARK  5 active torsions:
REMARK  status: ('A' for Active; 'I' for Inactive)
REMARK    1  A    between atoms: C_2  and  N_3 
REMARK    2  A    between atoms: C_11  and  C_12 
REMARK    3  A    between atoms: C_14  and  C_15 
REMARK    4  A    between atoms: C_15  and  O_16 
REMARK    5  A    between atoms: O_16  and  C_17 
ROOT
HETATM    1  N   UNL     1       3.123  33.267  61.836  1.00  0.00    -0.067 N 
HETATM    2  H   UNL     1       2.849  32.284  61.965  1.00  0.00     0.280 HD
HETATM    3  C   UNL     1       2.865  33.584  60.362  1.00  0.00     0.281 C 
HETATM    4  C   UNL     1       3.858  32.901  59.489  1.00  0.00     0.018 A 
HETATM    5  C   UNL     1       5.038  32.321  59.919  1.00  0.00    -0.023 A 
HETATM    6  C   UNL     1       5.777  31.775  58.822  1.00  0.00     0.073 A 
HETATM    7  C   UNL     1       5.134  31.980  57.623  1.00  0.00     0.088 A 
HETATM    8  N   UNL     1       5.637  31.572  56.435  1.00  0.00    -0.357 N 
HETATM    9  C   UNL     1       6.616  30.494  56.461  1.00  0.00     0.243 C 
HETATM   10  N   UNL     1       7.496  30.678  57.590  1.00  0.00    -0.330 N 
HETATM   11  C   UNL     1       7.056  31.091  58.819  1.00  0.00     0.256 C 
HETATM   12  O   UNL     1       7.723  30.919  59.834  1.00  0.00    -0.267 OA
HETATM   13  S   UNL     1       3.654  32.794  57.802  1.00  0.00    -0.074 SA
HETATM   14  C   UNL     1       5.415  32.303  61.367  1.00  0.00     0.068 C 
HETATM   15  C   UNL     1       4.617  33.347  62.166  1.00  0.00     0.240 C 
HETATM   16  H   UNL     1       4.970  31.457  55.675  1.00  0.00     0.162 HD
HETATM   17  H   UNL     1       8.363  30.163  57.606  1.00  0.00     0.165 HD
ENDROOT
BRANCH   9  18
HETATM   18  C   UNL     1       6.049  29.104  56.484  1.00  0.00     0.095 A 
HETATM   19  O   UNL     1       6.404  28.276  55.453  1.00  0.00    -0.313 OA
HETATM   20  C   UNL     1       5.789  27.077  55.661  1.00  0.00     0.077 A 
HETATM   21  C   UNL     1       5.064  27.117  56.832  1.00  0.00     0.037 A 
HETATM   22  C   UNL     1       5.236  28.416  57.367  1.00  0.00     0.039 A 
BRANCH  20  23
HETATM   23  C   UNL     1       6.039  26.009  54.656  1.00  0.00     0.240 C 
BRANCH  23  24
HETATM   24  O   UNL     1       7.457  25.798  54.602  1.00  0.00    -0.341 OA
BRANCH  24  25
HETATM   25  C   UNL     1       7.791  24.481  54.409  1.00  0.00     0.112 A 
HETATM   26  C   UNL     1       7.883  23.899  53.137  1.00  0.00     0.070 A 
HETATM   27 CL   UNL     1       7.578  24.792  51.691  1.00  0.00    -0.081 Cl
HETATM   28  C   UNL     1       8.191  22.542  53.001  1.00  0.00     0.050 A 
HETATM   29  C   UNL     1       8.382  21.760  54.136  1.00  0.00     0.037 A 
HETATM   30 CL   UNL     1       8.749  20.088  53.967  1.00  0.00    -0.084 Cl
HETATM   31  C   UNL     1       8.260  22.313  55.408  1.00  0.00     0.050 A 
HETATM   32  C   UNL     1       7.956  23.669  55.542  1.00  0.00     0.070 A 
HETATM   33 CL   UNL     1       7.789  24.313  57.137  1.00  0.00    -0.081 Cl
ENDBRANCH  24  25
ENDBRANCH  23  24
ENDBRANCH  20  23
ENDBRANCH   9  18
BRANCH   1  34
HETATM   34  C   UNL     1       2.306  34.114  62.780  1.00  0.00     0.231 C 
HETATM   35  C   UNL     1       3.184  35.094  63.536  1.00  0.00     0.034 C 
ENDBRANCH   1  34
TORSDOF 5
ENDMDL
