MODEL 1
REMARK VINA RESULT:      -9.9      0.000      0.000
REMARK  6 active torsions:
REMARK  status: ('A' for Active; 'I' for Inactive)
REMARK    1  A    between atoms: O_2  and  C_3 
REMARK    2  A    between atoms: C_6  and  C_7 
REMARK    3  A    between atoms: C_13  and  C_14 
REMARK       I    between atoms: C_14  and  N_15 
REMARK    4  A    between atoms: N_15  and  C_16 
REMARK    5  A    between atoms: C_18  and  O_19 
REMARK    6  A    between atoms: C_24  and  C_25 
ROOT
HETATM    1  C   UNL     1       4.962  27.998  56.574  1.00  0.00     0.118 C 
HETATM    2  N   UNL     1       5.088  26.857  55.644  1.00  0.00    -0.365 N 
HETATM    3  C   UNL     1       5.280  27.102  54.313  1.00  0.00     0.138 A 
HETATM    4  N   UNL     1       5.150  28.375  53.799  1.00  0.00    -0.240 N 
HETATM    5  N   UNL     1       5.434  28.459  52.493  1.00  0.00    -0.181 NA
HETATM    6  C   UNL     1       5.661  27.191  52.143  1.00  0.00     0.160 A 
HETATM    7  C   UNL     1       5.583  26.290  53.234  1.00  0.00     0.096 A 
HETATM    8  C   UNL     1       4.750  29.536  54.573  1.00  0.00     0.221 C 
HETATM    9  C   UNL     1       4.102  29.075  55.895  1.00  0.00     0.066 C 
HETATM   10  H   UNL     1       4.455  26.092  55.890  1.00  0.00     0.161 HD
ENDROOT
BRANCH   7  11
HETATM   11  C   UNL     1       5.802  24.854  53.166  1.00  0.00     0.261 C 
HETATM   12  N   UNL     1       6.917  24.425  53.861  1.00  0.00    -0.323 N 
HETATM   13  H   UNL     1       7.501  25.163  54.237  1.00  0.00     0.169 HD
HETATM   14  O   UNL     1       5.035  24.140  52.530  1.00  0.00    -0.267 OA
BRANCH  12  15
HETATM   15  C   UNL     1       7.337  23.099  54.088  1.00  0.00     0.037 A 
HETATM   16  C   UNL     1       7.641  22.191  53.068  1.00  0.00     0.066 A 
HETATM   17  C   UNL     1       8.024  20.889  53.388  1.00  0.00     0.067 A 
HETATM   18  C   UNL     1       8.105  20.469  54.708  1.00  0.00     0.036 A 
HETATM   19  C   UNL     1       7.807  21.366  55.730  1.00  0.00     0.005 A 
HETATM   20  C   UNL     1       7.428  22.676  55.422  1.00  0.00     0.029 A 
BRANCH  17  21
HETATM   21  O   UNL     1       8.331  19.983  52.414  1.00  0.00    -0.361 OA
HETATM   22  H   UNL     1       8.592  19.149  52.840  1.00  0.00     0.217 HD
ENDBRANCH  17  21
ENDBRANCH  12  15
ENDBRANCH   7  11
BRANCH   1  23
HETATM   23  C   UNL     1       6.311  28.532  57.052  1.00  0.00    -0.035 A 
HETATM   24  C   UNL     1       7.515  27.833  56.871  1.00  0.00     0.012 A 
HETATM   25  C   UNL     1       8.736  28.389  57.263  1.00  0.00     0.037 A 
HETATM   26  C   UNL     1       8.788  29.656  57.840  1.00  0.00     0.068 A 
HETATM   27  C   UNL     1       7.601  30.339  58.087  1.00  0.00     0.037 A 
HETATM   28  C   UNL     1       6.376  29.778  57.705  1.00  0.00     0.012 A 
BRANCH  26  29
HETATM   29  O   UNL     1      10.039  30.110  58.149  1.00  0.00    -0.356 OA
HETATM   30  C   UNL     1      11.045  29.848  57.175  1.00  0.00     0.210 C 
ENDBRANCH  26  29
ENDBRANCH   1  23
BRANCH   8  31
HETATM   31  C   UNL     1       3.775  30.421  53.825  1.00  0.00     0.409 C 
HETATM   32  F   UNL     1       2.943  29.713  53.027  1.00  0.00    -0.169 F 
HETATM   33  F   UNL     1       2.980  31.071  54.721  1.00  0.00    -0.169 F 
HETATM   34  F   UNL     1       4.365  31.381  53.087  1.00  0.00    -0.169 F 
ENDBRANCH   8  31
TORSDOF 6
ENDMDL
MODEL 2
REMARK VINA RESULT:      -9.6      1.720      2.255
REMARK  6 active torsions:
REMARK  status: ('A' for Active; 'I' for Inactive)
REMARK    1  A    between atoms: O_2  and  C_3 
REMARK    2  A    between atoms: C_6  and  C_7 
REMARK    3  A    between atoms: C_13  and  C_14 
REMARK       I    between atoms: C_14  and  N_15 
REMARK    4  A    between atoms: N_15  and  C_16 
REMARK    5  A    between atoms: C_18  and  O_19 
REMARK    6  A    between atoms: C_24  and  C_25 
ROOT
HETATM    1  C   UNL     1       5.170  28.333  57.173  1.00  0.00     0.118 C 
HETATM    2  N   UNL     1       5.787  27.095  56.656  1.00  0.00    -0.365 N 
HETATM    3  C   UNL     1       6.180  27.043  55.347  1.00  0.00     0.138 A 
HETATM    4  N   UNL     1       5.826  28.036  54.459  1.00  0.00    -0.240 N 
HETATM    5  N   UNL     1       6.343  27.873  53.234  1.00  0.00    -0.181 NA
HETATM    6  C   UNL     1       6.968  26.697  53.317  1.00  0.00     0.160 A 
HETATM    7  C   UNL     1       6.908  26.124  54.611  1.00  0.00     0.096 A 
HETATM    8  C   UNL     1       4.977  29.167  54.789  1.00  0.00     0.221 C 
HETATM    9  C   UNL     1       4.215  28.875  56.098  1.00  0.00     0.066 C 
HETATM   10  H   UNL     1       5.344  26.257  57.042  1.00  0.00     0.161 HD
ENDROOT
BRANCH   7  11
HETATM   11  C   UNL     1       7.512  24.862  55.011  1.00  0.00     0.261 C 
HETATM   12  N   UNL     1       7.289  23.829  54.121  1.00  0.00    -0.323 N 
HETATM   13  H   UNL     1       6.648  24.041  53.364  1.00  0.00     0.169 HD
HETATM   14  O   UNL     1       8.148  24.784  56.055  1.00  0.00    -0.267 OA
BRANCH  12  15
HETATM   15  C   UNL     1       7.828  22.527  54.155  1.00  0.00     0.037 A 
HETATM   16  C   UNL     1       8.410  21.952  55.289  1.00  0.00     0.066 A 
HETATM   17  C   UNL     1       8.942  20.665  55.220  1.00  0.00     0.067 A 
HETATM   18  C   UNL     1       8.911  19.938  54.039  1.00  0.00     0.036 A 
HETATM   19  C   UNL     1       8.332  20.500  52.905  1.00  0.00     0.005 A 
HETATM   20  C   UNL     1       7.790  21.787  52.963  1.00  0.00     0.029 A 
BRANCH  17  21
HETATM   21  O   UNL     1       9.512  20.078  56.314  1.00  0.00    -0.361 OA
HETATM   22  H   UNL     1       8.812  19.641  56.828  1.00  0.00     0.217 HD
ENDBRANCH  17  21
ENDBRANCH  12  15
ENDBRANCH   7  11
BRANCH   1  23
HETATM   23  C   UNL     1       6.196  29.368  57.629  1.00  0.00    -0.035 A 
HETATM   24  C   UNL     1       5.858  30.698  57.922  1.00  0.00     0.012 A 
HETATM   25  C   UNL     1       6.816  31.596  58.402  1.00  0.00     0.037 A 
HETATM   26  C   UNL     1       8.133  31.189  58.606  1.00  0.00     0.068 A 
HETATM   27  C   UNL     1       8.504  29.892  58.262  1.00  0.00     0.037 A 
HETATM   28  C   UNL     1       7.547  28.995  57.771  1.00  0.00     0.012 A 
BRANCH  26  29
HETATM   29  O   UNL     1       8.971  32.142  59.112  1.00  0.00    -0.356 OA
HETATM   30  C   UNL     1       8.749  32.494  60.474  1.00  0.00     0.210 C 
ENDBRANCH  26  29
ENDBRANCH   1  23
BRANCH   8  31
HETATM   31  C   UNL     1       3.980  29.479  53.693  1.00  0.00     0.409 C 
HETATM   32  F   UNL     1       3.326  28.378  53.261  1.00  0.00    -0.169 F 
HETATM   33  F   UNL     1       3.026  30.322  54.181  1.00  0.00    -0.169 F 
HETATM   34  F   UNL     1       4.518  30.106  52.628  1.00  0.00    -0.169 F 
ENDBRANCH   8  31
TORSDOF 6
ENDMDL
MODEL 3
REMARK VINA RESULT:      -9.4      2.438      7.725
REMARK  6 active torsions:
REMARK  status: ('A' for Active; 'I' for Inactive)
REMARK    1  A    between atoms: O_2  and  C_3 
REMARK    2  A    between atoms: C_6  and  C_7 
REMARK    3  A    between atoms: C_13  and  C_14 
REMARK       I    between atoms: C_14  and  N_15 
REMARK    4  A    between atoms: N_15  and  C_16 
REMARK    5  A    between atoms: C_18  and  O_19 
REMARK    6  A    between atoms: C_24  and  C_25 
ROOT
HETATM    1  C   UNL     1       7.696  27.060  53.571  1.00  0.00     0.118 C 
HETATM    2  N   UNL     1       7.827  27.796  54.845  1.00  0.00    -0.365 N 
HETATM    3  C   UNL     1       6.698  28.112  55.549  1.00  0.00     0.138 A 
HETATM    4  N   UNL     1       5.446  27.946  54.998  1.00  0.00    -0.240 N 
HETATM    5  N   UNL     1       4.445  28.238  55.837  1.00  0.00    -0.181 NA
HETATM    6  C   UNL     1       5.074  28.693  56.923  1.00  0.00     0.160 A 
HETATM    7  C   UNL     1       6.486  28.640  56.811  1.00  0.00     0.096 A 
HETATM    8  C   UNL     1       5.201  27.493  53.641  1.00  0.00     0.221 C 
HETATM    9  C   UNL     1       6.492  27.636  52.808  1.00  0.00     0.066 C 
HETATM   10  H   UNL     1       8.563  28.505  54.803  1.00  0.00     0.161 HD
ENDROOT
BRANCH   7  11
HETATM   11  C   UNL     1       7.435  29.046  57.837  1.00  0.00     0.261 C 
HETATM   12  N   UNL     1       7.178  30.292  58.375  1.00  0.00    -0.323 N 
HETATM   13  H   UNL     1       6.435  30.813  57.922  1.00  0.00     0.169 HD
HETATM   14  O   UNL     1       8.361  28.307  58.149  1.00  0.00    -0.267 OA
BRANCH  12  15
HETATM   15  C   UNL     1       7.830  30.918  59.456  1.00  0.00     0.037 A 
HETATM   16  C   UNL     1       7.217  31.200  60.680  1.00  0.00     0.066 A 
HETATM   17  C   UNL     1       7.936  31.848  61.684  1.00  0.00     0.067 A 
HETATM   18  C   UNL     1       9.257  32.228  61.490  1.00  0.00     0.036 A 
HETATM   19  C   UNL     1       9.876  31.950  60.275  1.00  0.00     0.005 A 
HETATM   20  C   UNL     1       9.168  31.295  59.264  1.00  0.00     0.029 A 
BRANCH  17  21
HETATM   21  O   UNL     1       7.364  32.132  62.892  1.00  0.00    -0.361 OA
HETATM   22  H   UNL     1       8.073  32.325  63.530  1.00  0.00     0.217 HD
ENDBRANCH  17  21
ENDBRANCH  12  15
ENDBRANCH   7  11
BRANCH   1  23
HETATM   23  C   UNL     1       7.608  25.547  53.760  1.00  0.00    -0.035 A 
HETATM   24  C   UNL     1       7.541  24.648  52.684  1.00  0.00     0.012 A 
HETATM   25  C   UNL     1       7.531  23.266  52.900  1.00  0.00     0.037 A 
HETATM   26  C   UNL     1       7.592  22.748  54.192  1.00  0.00     0.068 A 
HETATM   27  C   UNL     1       7.593  23.623  55.275  1.00  0.00     0.037 A 
HETATM   28  C   UNL     1       7.593  25.006  55.060  1.00  0.00     0.012 A 
BRANCH  26  29
HETATM   29  O   UNL     1       7.612  21.385  54.278  1.00  0.00    -0.356 OA
HETATM   30  C   UNL     1       8.132  20.705  53.139  1.00  0.00     0.210 C 
ENDBRANCH  26  29
ENDBRANCH   1  23
BRANCH   8  31
HETATM   31  C   UNL     1       4.087  28.266  52.966  1.00  0.00     0.409 C 
HETATM   32  F   UNL     1       4.149  29.592  53.226  1.00  0.00    -0.169 F 
HETATM   33  F   UNL     1       4.206  28.137  51.615  1.00  0.00    -0.169 F 
HETATM   34  F   UNL     1       2.852  27.825  53.274  1.00  0.00    -0.169 F 
ENDBRANCH   8  31
TORSDOF 6
ENDMDL
MODEL 4
REMARK VINA RESULT:      -9.1      3.290      6.584
REMARK  6 active torsions:
REMARK  status: ('A' for Active; 'I' for Inactive)
REMARK    1  A    between atoms: O_2  and  C_3 
REMARK    2  A    between atoms: C_6  and  C_7 
REMARK    3  A    between atoms: C_13  and  C_14 
REMARK       I    between atoms: C_14  and  N_15 
REMARK    4  A    between atoms: N_15  and  C_16 
REMARK    5  A    between atoms: C_18  and  O_19 
REMARK    6  A    between atoms: C_24  and  C_25 
ROOT
HETATM    1  C   UNL     1       5.750  25.124  55.891  1.00  0.00     0.118 C 
HETATM    2  N   UNL     1       5.193  25.884  54.754  1.00  0.00    -0.365 N 
HETATM    3  C   UNL     1       5.912  26.922  54.231  1.00  0.00     0.138 A 
HETATM    4  N   UNL     1       7.036  27.401  54.870  1.00  0.00    -0.240 N 
HETATM    5  N   UNL     1       7.664  28.375  54.198  1.00  0.00    -0.181 NA
HETATM    6  C   UNL     1       6.869  28.588  53.147  1.00  0.00     0.160 A 
HETATM    7  C   UNL     1       5.755  27.712  53.105  1.00  0.00     0.096 A 
HETATM    8  C   UNL     1       7.523  26.915  56.148  1.00  0.00     0.221 C 
HETATM    9  C   UNL     1       6.406  26.122  56.858  1.00  0.00     0.066 C 
HETATM   10  H   UNL     1       4.182  26.015  54.841  1.00  0.00     0.161 HD
ENDROOT
BRANCH   7  11
HETATM   11  C   UNL     1       4.730  27.691  52.073  1.00  0.00     0.261 C 
HETATM   12  N   UNL     1       5.195  27.307  50.830  1.00  0.00    -0.323 N 
HETATM   13  H   UNL     1       6.201  27.194  50.762  1.00  0.00     0.169 HD
HETATM   14  O   UNL     1       3.575  28.001  52.342  1.00  0.00    -0.267 OA
BRANCH  12  15
HETATM   15  C   UNL     1       4.445  27.075  49.660  1.00  0.00     0.037 A 
HETATM   16  C   UNL     1       4.065  25.804  49.216  1.00  0.00     0.066 A 
HETATM   17  C   UNL     1       3.345  25.670  48.030  1.00  0.00     0.067 A 
HETATM   18  C   UNL     1       3.000  26.778  47.270  1.00  0.00     0.036 A 
HETATM   19  C   UNL     1       3.372  28.047  47.705  1.00  0.00     0.005 A 
HETATM   20  C   UNL     1       4.088  28.195  48.896  1.00  0.00     0.029 A 
BRANCH  17  21
HETATM   21  O   UNL     1       2.957  24.442  47.575  1.00  0.00    -0.361 OA
HETATM   22  H   UNL     1       2.789  24.507  46.619  1.00  0.00     0.217 HD
ENDBRANCH  17  21
ENDBRANCH  12  15
ENDBRANCH   7  11
BRANCH   1  23
HETATM   23  C   UNL     1       6.701  24.010  55.457  1.00  0.00    -0.035 A 
HETATM   24  C   UNL     1       7.445  23.245  56.369  1.00  0.00     0.012 A 
HETATM   25  C   UNL     1       8.252  22.189  55.935  1.00  0.00     0.037 A 
HETATM   26  C   UNL     1       8.333  21.867  54.582  1.00  0.00     0.068 A 
HETATM   27  C   UNL     1       7.654  22.652  53.655  1.00  0.00     0.037 A 
HETATM   28  C   UNL     1       6.854  23.717  54.088  1.00  0.00     0.012 A 
BRANCH  26  29
HETATM   29  O   UNL     1       9.124  20.794  54.280  1.00  0.00    -0.356 OA
HETATM   30  C   UNL     1       8.826  20.139  53.051  1.00  0.00     0.210 C 
ENDBRANCH  26  29
ENDBRANCH   1  23
BRANCH   8  31
HETATM   31  C   UNL     1       7.988  28.036  57.053  1.00  0.00     0.409 C 
HETATM   32  F   UNL     1       7.342  29.199  56.808  1.00  0.00    -0.169 F 
HETATM   33  F   UNL     1       7.710  27.713  58.348  1.00  0.00    -0.169 F 
HETATM   34  F   UNL     1       9.315  28.263  57.004  1.00  0.00    -0.169 F 
ENDBRANCH   8  31
TORSDOF 6
ENDMDL
MODEL 5
REMARK VINA RESULT:      -8.9      3.492      6.539
REMARK  6 active torsions:
REMARK  status: ('A' for Active; 'I' for Inactive)
REMARK    1  A    between atoms: O_2  and  C_3 
REMARK    2  A    between atoms: C_6  and  C_7 
REMARK    3  A    between atoms: C_13  and  C_14 
REMARK       I    between atoms: C_14  and  N_15 
REMARK    4  A    between atoms: N_15  and  C_16 
REMARK    5  A    between atoms: C_18  and  O_19 
REMARK    6  A    between atoms: C_24  and  C_25 
ROOT
HETATM    1  C   UNL     1       5.568  28.486  49.620  1.00  0.00     0.118 C 
HETATM    2  N   UNL     1       6.145  27.437  50.485  1.00  0.00    -0.365 N 
HETATM    3  C   UNL     1       5.559  27.173  51.692  1.00  0.00     0.138 A 
HETATM    4  N   UNL     1       4.580  27.998  52.202  1.00  0.00    -0.240 N 
HETATM    5  N   UNL     1       4.062  27.568  53.359  1.00  0.00    -0.181 NA
HETATM    6  C   UNL     1       4.793  26.487  53.643  1.00  0.00     0.160 A 
HETATM    7  C   UNL     1       5.748  26.183  52.641  1.00  0.00     0.096 A 
HETATM    8  C   UNL     1       4.128  29.223  51.568  1.00  0.00     0.221 C 
HETATM    9  C   UNL     1       5.159  29.669  50.511  1.00  0.00     0.066 C 
HETATM   10  H   UNL     1       7.168  27.436  50.454  1.00  0.00     0.161 HD
ENDROOT
BRANCH   7  11
HETATM   11  C   UNL     1       6.670  25.058  52.660  1.00  0.00     0.261 C 
HETATM   12  N   UNL     1       6.563  24.267  53.788  1.00  0.00    -0.323 N 
HETATM   13  H   UNL     1       5.942  24.621  54.507  1.00  0.00     0.169 HD
HETATM   14  O   UNL     1       7.451  24.882  51.732  1.00  0.00    -0.267 OA
BRANCH  12  15
HETATM   15  C   UNL     1       7.223  23.050  54.057  1.00  0.00     0.037 A 
HETATM   16  C   UNL     1       7.474  22.069  53.092  1.00  0.00     0.066 A 
HETATM   17  C   UNL     1       8.110  20.883  53.457  1.00  0.00     0.067 A 
HETATM   18  C   UNL     1       8.498  20.651  54.769  1.00  0.00     0.036 A 
HETATM   19  C   UNL     1       8.254  21.623  55.736  1.00  0.00     0.005 A 
HETATM   20  C   UNL     1       7.623  22.818  55.381  1.00  0.00     0.029 A 
BRANCH  17  21
HETATM   21  O   UNL     1       8.372  19.910  52.536  1.00  0.00    -0.361 OA
HETATM   22  H   UNL     1       8.279  20.295  51.647  1.00  0.00     0.217 HD
ENDBRANCH  17  21
ENDBRANCH  12  15
ENDBRANCH   7  11
BRANCH   1  23
HETATM   23  C   UNL     1       4.422  27.978  48.748  1.00  0.00    -0.035 A 
HETATM   24  C   UNL     1       4.093  26.618  48.637  1.00  0.00     0.012 A 
HETATM   25  C   UNL     1       2.993  26.202  47.881  1.00  0.00     0.037 A 
HETATM   26  C   UNL     1       2.191  27.132  47.221  1.00  0.00     0.068 A 
HETATM   27  C   UNL     1       2.537  28.479  47.265  1.00  0.00     0.037 A 
HETATM   28  C   UNL     1       3.645  28.895  48.013  1.00  0.00     0.012 A 
BRANCH  26  29
HETATM   29  O   UNL     1       1.124  26.612  46.544  1.00  0.00    -0.356 OA
HETATM   30  C   UNL     1       0.134  27.554  46.143  1.00  0.00     0.210 C 
ENDBRANCH  26  29
ENDBRANCH   1  23
BRANCH   8  31
HETATM   31  C   UNL     1       3.920  30.345  52.563  1.00  0.00     0.409 C 
HETATM   32  F   UNL     1       4.984  30.514  53.381  1.00  0.00    -0.169 F 
HETATM   33  F   UNL     1       3.769  31.521  51.889  1.00  0.00    -0.169 F 
HETATM   34  F   UNL     1       2.814  30.207  53.320  1.00  0.00    -0.169 F 
ENDBRANCH   8  31
TORSDOF 6
ENDMDL
MODEL 6
REMARK VINA RESULT:      -8.7      2.854      7.546
REMARK  6 active torsions:
REMARK  status: ('A' for Active; 'I' for Inactive)
REMARK    1  A    between atoms: O_2  and  C_3 
REMARK    2  A    between atoms: C_6  and  C_7 
REMARK    3  A    between atoms: C_13  and  C_14 
REMARK       I    between atoms: C_14  and  N_15 
REMARK    4  A    between atoms: N_15  and  C_16 
REMARK    5  A    between atoms: C_18  and  O_19 
REMARK    6  A    between atoms: C_24  and  C_25 
ROOT
HETATM    1  C   UNL     1       7.580  28.223  54.463  1.00  0.00     0.118 C 
HETATM    2  N   UNL     1       7.340  29.288  55.458  1.00  0.00    -0.365 N 
HETATM    3  C   UNL     1       6.060  29.543  55.864  1.00  0.00     0.138 A 
HETATM    4  N   UNL     1       4.983  28.977  55.216  1.00  0.00    -0.240 N 
HETATM    5  N   UNL     1       3.802  29.273  55.775  1.00  0.00    -0.181 NA
HETATM    6  C   UNL     1       4.126  30.125  56.749  1.00  0.00     0.160 A 
HETATM    7  C   UNL     1       5.522  30.338  56.862  1.00  0.00     0.096 A 
HETATM    8  C   UNL     1       5.084  28.131  54.041  1.00  0.00     0.221 C 
HETATM    9  C   UNL     1       6.476  28.307  53.398  1.00  0.00     0.066 C 
HETATM   10  H   UNL     1       7.951  30.095  55.308  1.00  0.00     0.161 HD
ENDROOT
BRANCH   7  11
HETATM   11  C   UNL     1       6.175  31.195  57.840  1.00  0.00     0.261 C 
HETATM   12  N   UNL     1       6.953  30.509  58.753  1.00  0.00    -0.323 N 
HETATM   13  H   UNL     1       6.890  29.498  58.702  1.00  0.00     0.169 HD
HETATM   14  O   UNL     1       6.008  32.408  57.808  1.00  0.00    -0.267 OA
BRANCH  12  15
HETATM   15  C   UNL     1       7.798  31.047  59.745  1.00  0.00     0.037 A 
HETATM   16  C   UNL     1       7.392  31.311  61.056  1.00  0.00     0.066 A 
HETATM   17  C   UNL     1       8.293  31.869  61.963  1.00  0.00     0.067 A 
HETATM   18  C   UNL     1       9.593  32.175  61.587  1.00  0.00     0.036 A 
HETATM   19  C   UNL     1      10.007  31.913  60.284  1.00  0.00     0.005 A 
HETATM   20  C   UNL     1       9.115  31.348  59.368  1.00  0.00     0.029 A 
BRANCH  17  21
HETATM   21  O   UNL     1       7.925  32.134  63.251  1.00  0.00    -0.361 OA
HETATM   22  H   UNL     1       8.727  32.326  63.766  1.00  0.00     0.217 HD
ENDBRANCH  17  21
ENDBRANCH  12  15
ENDBRANCH   7  11
BRANCH   1  23
HETATM   23  C   UNL     1       7.694  26.834  55.089  1.00  0.00    -0.035 A 
HETATM   24  C   UNL     1       7.847  26.630  56.469  1.00  0.00     0.012 A 
HETATM   25  C   UNL     1       7.879  25.340  57.008  1.00  0.00     0.037 A 
HETATM   26  C   UNL     1       7.755  24.223  56.185  1.00  0.00     0.068 A 
HETATM   27  C   UNL     1       7.667  24.401  54.807  1.00  0.00     0.037 A 
HETATM   28  C   UNL     1       7.645  25.692  54.266  1.00  0.00     0.012 A 
BRANCH  26  29
HETATM   29  O   UNL     1       7.763  23.017  56.826  1.00  0.00    -0.356 OA
HETATM   30  C   UNL     1       8.018  21.884  56.001  1.00  0.00     0.210 C 
ENDBRANCH  26  29
ENDBRANCH   1  23
BRANCH   8  31
HETATM   31  C   UNL     1       4.019  28.444  53.011  1.00  0.00     0.409 C 
HETATM   32  F   UNL     1       3.835  29.774  52.846  1.00  0.00    -0.169 F 
HETATM   33  F   UNL     1       4.412  27.961  51.798  1.00  0.00    -0.169 F 
HETATM   34  F   UNL     1       2.826  27.873  53.269  1.00  0.00    -0.169 F 
ENDBRANCH   8  31
TORSDOF 6
ENDMDL
MODEL 7
REMARK VINA RESULT:      -8.6      4.828      9.090
REMARK  6 active torsions:
REMARK  status: ('A' for Active; 'I' for Inactive)
REMARK    1  A    between atoms: O_2  and  C_3 
REMARK    2  A    between atoms: C_6  and  C_7 
REMARK    3  A    between atoms: C_13  and  C_14 
REMARK       I    between atoms: C_14  and  N_15 
REMARK    4  A    between atoms: N_15  and  C_16 
REMARK    5  A    between atoms: C_18  and  O_19 
REMARK    6  A    between atoms: C_24  and  C_25 
ROOT
HETATM    1  C   UNL     1       4.527  29.538  57.024  1.00  0.00     0.118 C 
HETATM    2  N   UNL     1       5.367  30.167  58.063  1.00  0.00    -0.365 N 
HETATM    3  C   UNL     1       6.725  30.019  58.001  1.00  0.00     0.138 A 
HETATM    4  N   UNL     1       7.303  29.132  57.119  1.00  0.00    -0.240 N 
HETATM    5  N   UNL     1       8.642  29.153  57.135  1.00  0.00    -0.181 NA
HETATM    6  C   UNL     1       8.927  30.009  58.118  1.00  0.00     0.160 A 
HETATM    7  C   UNL     1       7.773  30.589  58.702  1.00  0.00     0.096 A 
HETATM    8  C   UNL     1       6.560  28.248  56.239  1.00  0.00     0.221 C 
HETATM    9  C   UNL     1       5.100  28.144  56.725  1.00  0.00     0.066 C 
HETATM   10  H   UNL     1       4.934  30.111  58.989  1.00  0.00     0.161 HD
ENDROOT
BRANCH   7  11
HETATM   11  C   UNL     1       7.767  31.569  59.778  1.00  0.00     0.261 C 
HETATM   12  N   UNL     1       7.008  31.196  60.870  1.00  0.00    -0.323 N 
HETATM   13  H   UNL     1       6.465  30.348  60.750  1.00  0.00     0.169 HD
HETATM   14  O   UNL     1       8.396  32.615  59.665  1.00  0.00    -0.267 OA
BRANCH  12  15
HETATM   15  C   UNL     1       6.890  31.859  62.109  1.00  0.00     0.037 A 
HETATM   16  C   UNL     1       5.668  32.169  62.714  1.00  0.00     0.066 A 
HETATM   17  C   UNL     1       5.649  32.852  63.930  1.00  0.00     0.067 A 
HETATM   18  C   UNL     1       6.826  33.239  64.554  1.00  0.00     0.036 A 
HETATM   19  C   UNL     1       8.048  32.933  63.960  1.00  0.00     0.005 A 
HETATM   20  C   UNL     1       8.080  32.243  62.745  1.00  0.00     0.029 A 
BRANCH  17  21
HETATM   21  O   UNL     1       4.471  33.164  64.546  1.00  0.00    -0.361 OA
HETATM   22  H   UNL     1       4.462  32.743  65.422  1.00  0.00     0.217 HD
ENDBRANCH  17  21
ENDBRANCH  12  15
ENDBRANCH   7  11
BRANCH   1  23
HETATM   23  C   UNL     1       4.382  30.399  55.770  1.00  0.00    -0.035 A 
HETATM   24  C   UNL     1       3.919  29.891  54.547  1.00  0.00     0.012 A 
HETATM   25  C   UNL     1       3.736  30.728  53.442  1.00  0.00     0.037 A 
HETATM   26  C   UNL     1       4.005  32.092  53.531  1.00  0.00     0.068 A 
HETATM   27  C   UNL     1       4.526  32.605  54.716  1.00  0.00     0.037 A 
HETATM   28  C   UNL     1       4.719  31.766  55.820  1.00  0.00     0.012 A 
BRANCH  26  29
HETATM   29  O   UNL     1       3.755  32.816  52.400  1.00  0.00    -0.356 OA
HETATM   30  C   UNL     1       4.235  32.245  51.187  1.00  0.00     0.210 C 
ENDBRANCH  26  29
ENDBRANCH   1  23
BRANCH   8  31
HETATM   31  C   UNL     1       7.162  26.860  56.173  1.00  0.00     0.409 C 
HETATM   32  F   UNL     1       7.776  26.509  57.325  1.00  0.00    -0.169 F 
HETATM   33  F   UNL     1       6.167  25.949  55.979  1.00  0.00    -0.169 F 
HETATM   34  F   UNL     1       8.027  26.687  55.154  1.00  0.00    -0.169 F 
ENDBRANCH   8  31
TORSDOF 6
ENDMDL
MODEL 8
REMARK VINA RESULT:      -8.6      4.358      8.876
REMARK  6 active torsions:
REMARK  status: ('A' for Active; 'I' for Inactive)
REMARK    1  A    between atoms: O_2  and  C_3 
REMARK    2  A    between atoms: C_6  and  C_7 
REMARK    3  A    between atoms: C_13  and  C_14 
REMARK       I    between atoms: C_14  and  N_15 
REMARK    4  A    between atoms: N_15  and  C_16 
REMARK    5  A    between atoms: C_18  and  O_19 
REMARK    6  A    between atoms: C_24  and  C_25 
ROOT
HETATM    1  C   UNL     1       4.635  28.413  56.959  1.00  0.00     0.118 C 
HETATM    2  N   UNL     1       5.526  29.242  57.797  1.00  0.00    -0.365 N 
HETATM    3  C   UNL     1       6.879  29.080  57.692  1.00  0.00     0.138 A 
HETATM    4  N   UNL     1       7.416  28.026  56.983  1.00  0.00    -0.240 N 
HETATM    5  N   UNL     1       8.753  28.045  56.920  1.00  0.00    -0.181 NA
HETATM    6  C   UNL     1       9.084  29.086  57.687  1.00  0.00     0.160 A 
HETATM    7  C   UNL     1       7.960  29.779  58.201  1.00  0.00     0.096 A 
HETATM    8  C   UNL     1       6.633  26.981  56.348  1.00  0.00     0.221 C 
HETATM    9  C   UNL     1       5.203  26.985  56.925  1.00  0.00     0.066 C 
HETATM   10  H   UNL     1       5.145  29.381  58.737  1.00  0.00     0.161 HD
ENDROOT
BRANCH   7  11
HETATM   11  C   UNL     1       8.005  30.962  59.047  1.00  0.00     0.261 C 
HETATM   12  N   UNL     1       7.257  30.850  60.204  1.00  0.00    -0.323 N 
HETATM   13  H   UNL     1       6.687  30.014  60.271  1.00  0.00     0.169 HD
HETATM   14  O   UNL     1       8.662  31.939  58.709  1.00  0.00    -0.267 OA
BRANCH  12  15
HETATM   15  C   UNL     1       7.184  31.760  61.277  1.00  0.00     0.037 A 
HETATM   16  C   UNL     1       6.378  32.903  61.278  1.00  0.00     0.066 A 
HETATM   17  C   UNL     1       6.390  33.761  62.377  1.00  0.00     0.067 A 
HETATM   18  C   UNL     1       7.197  33.507  63.477  1.00  0.00     0.036 A 
HETATM   19  C   UNL     1       8.001  32.371  63.487  1.00  0.00     0.005 A 
HETATM   20  C   UNL     1       7.992  31.500  62.394  1.00  0.00     0.029 A 
BRANCH  17  21
HETATM   21  O   UNL     1       5.610  34.882  62.406  1.00  0.00    -0.361 OA
HETATM   22  H   UNL     1       6.003  35.545  61.814  1.00  0.00     0.217 HD
ENDBRANCH  17  21
ENDBRANCH  12  15
ENDBRANCH   7  11
BRANCH   1  23
HETATM   23  C   UNL     1       4.414  28.995  55.564  1.00  0.00    -0.035 A 
HETATM   24  C   UNL     1       4.188  28.196  54.433  1.00  0.00     0.012 A 
HETATM   25  C   UNL     1       3.923  28.770  53.186  1.00  0.00     0.037 A 
HETATM   26  C   UNL     1       3.871  30.155  53.038  1.00  0.00     0.068 A 
HETATM   27  C   UNL     1       4.156  30.966  54.133  1.00  0.00     0.037 A 
HETATM   28  C   UNL     1       4.432  30.391  55.380  1.00  0.00     0.012 A 
BRANCH  26  29
HETATM   29  O   UNL     1       3.568  30.601  51.783  1.00  0.00    -0.356 OA
HETATM   30  C   UNL     1       3.824  29.681  50.726  1.00  0.00     0.210 C 
ENDBRANCH  26  29
ENDBRANCH   1  23
BRANCH   8  31
HETATM   31  C   UNL     1       7.242  25.608  56.539  1.00  0.00     0.409 C 
HETATM   32  F   UNL     1       7.795  25.454  57.764  1.00  0.00    -0.169 F 
HETATM   33  F   UNL     1       6.261  24.666  56.444  1.00  0.00    -0.169 F 
HETATM   34  F   UNL     1       8.160  25.283  55.609  1.00  0.00    -0.169 F 
ENDBRANCH   8  31
TORSDOF 6
ENDMDL
MODEL 9
REMARK VINA RESULT:      -8.5      3.801      7.097
REMARK  6 active torsions:
REMARK  status: ('A' for Active; 'I' for Inactive)
REMARK    1  A    between atoms: O_2  and  C_3 
REMARK    2  A    between atoms: C_6  and  C_7 
REMARK    3  A    between atoms: C_13  and  C_14 
REMARK       I    between atoms: C_14  and  N_15 
REMARK    4  A    between atoms: N_15  and  C_16 
REMARK    5  A    between atoms: C_18  and  O_19 
REMARK    6  A    between atoms: C_24  and  C_25 
ROOT
HETATM    1  C   UNL     1       5.153  28.230  49.155  1.00  0.00     0.118 C 
HETATM    2  N   UNL     1       5.393  27.338  50.307  1.00  0.00    -0.365 N 
HETATM    3  C   UNL     1       4.804  27.627  51.506  1.00  0.00     0.138 A 
HETATM    4  N   UNL     1       4.169  28.832  51.714  1.00  0.00    -0.240 N 
HETATM    5  N   UNL     1       3.588  28.935  52.916  1.00  0.00    -0.181 NA
HETATM    6  C   UNL     1       3.939  27.802  53.527  1.00  0.00     0.160 A 
HETATM    7  C   UNL     1       4.700  26.937  52.701  1.00  0.00     0.096 A 
HETATM    8  C   UNL     1       4.113  29.909  50.741  1.00  0.00     0.221 C 
HETATM    9  C   UNL     1       5.188  29.682  49.659  1.00  0.00     0.066 C 
HETATM   10  H   UNL     1       6.358  26.998  50.332  1.00  0.00     0.161 HD
ENDROOT
BRANCH   7  11
HETATM   11  C   UNL     1       5.207  25.627  53.082  1.00  0.00     0.261 C 
HETATM   12  N   UNL     1       6.457  25.660  53.670  1.00  0.00    -0.323 N 
HETATM   13  H   UNL     1       6.912  26.566  53.666  1.00  0.00     0.169 HD
HETATM   14  O   UNL     1       4.540  24.621  52.871  1.00  0.00    -0.267 OA
BRANCH  12  15
HETATM   15  C   UNL     1       7.168  24.591  54.250  1.00  0.00     0.037 A 
HETATM   16  C   UNL     1       7.331  24.419  55.628  1.00  0.00     0.066 A 
HETATM   17  C   UNL     1       8.075  23.343  56.111  1.00  0.00     0.067 A 
HETATM   18  C   UNL     1       8.667  22.434  55.246  1.00  0.00     0.036 A 
HETATM   19  C   UNL     1       8.508  22.595  53.872  1.00  0.00     0.005 A 
HETATM   20  C   UNL     1       7.759  23.666  53.377  1.00  0.00     0.029 A 
BRANCH  17  21
HETATM   21  O   UNL     1       8.247  23.148  57.452  1.00  0.00    -0.361 OA
HETATM   22  H   UNL     1       9.055  23.613  57.729  1.00  0.00     0.217 HD
ENDBRANCH  17  21
ENDBRANCH  12  15
ENDBRANCH   7  11
BRANCH   1  23
HETATM   23  C   UNL     1       3.868  27.898  48.398  1.00  0.00    -0.035 A 
HETATM   24  C   UNL     1       3.157  28.849  47.649  1.00  0.00     0.012 A 
HETATM   25  C   UNL     1       2.023  28.487  46.916  1.00  0.00     0.037 A 
HETATM   26  C   UNL     1       1.573  27.168  46.908  1.00  0.00     0.068 A 
HETATM   27  C   UNL     1       2.225  26.223  47.695  1.00  0.00     0.037 A 
HETATM   28  C   UNL     1       3.355  26.587  48.437  1.00  0.00     0.012 A 
BRANCH  26  29
HETATM   29  O   UNL     1       0.478  26.926  46.127  1.00  0.00    -0.356 OA
HETATM   30  C   UNL     1      -0.538  27.923  46.168  1.00  0.00     0.210 C 
ENDBRANCH  26  29
ENDBRANCH   1  23
BRANCH   8  31
HETATM   31  C   UNL     1       4.323  31.269  51.372  1.00  0.00     0.409 C 
HETATM   32  F   UNL     1       5.207  32.026  50.684  1.00  0.00    -0.169 F 
HETATM   33  F   UNL     1       3.145  31.955  51.361  1.00  0.00    -0.169 F 
HETATM   34  F   UNL     1       4.711  31.219  52.662  1.00  0.00    -0.169 F 
ENDBRANCH   8  31
TORSDOF 6
ENDMDL
MODEL 10
REMARK VINA RESULT:      -8.3      2.879      7.749
REMARK  6 active torsions:
REMARK  status: ('A' for Active; 'I' for Inactive)
REMARK    1  A    between atoms: O_2  and  C_3 
REMARK    2  A    between atoms: C_6  and  C_7 
REMARK    3  A    between atoms: C_13  and  C_14 
REMARK       I    between atoms: C_14  and  N_15 
REMARK    4  A    between atoms: N_15  and  C_16 
REMARK    5  A    between atoms: C_18  and  O_19 
REMARK    6  A    between atoms: C_24  and  C_25 
ROOT
HETATM    1  C   UNL     1       7.852  26.282  53.352  1.00  0.00     0.118 C 
HETATM    2  N   UNL     1       7.324  27.253  54.331  1.00  0.00    -0.365 N 
HETATM    3  C   UNL     1       5.989  27.549  54.320  1.00  0.00     0.138 A 
HETATM    4  N   UNL     1       5.175  27.125  53.292  1.00  0.00    -0.240 N 
HETATM    5  N   UNL     1       3.885  27.440  53.462  1.00  0.00    -0.181 NA
HETATM    6  C   UNL     1       3.888  28.165  54.582  1.00  0.00     0.160 A 
HETATM    7  C   UNL     1       5.172  28.272  55.172  1.00  0.00     0.096 A 
HETATM    8  C   UNL     1       5.640  26.399  52.124  1.00  0.00     0.221 C 
HETATM    9  C   UNL     1       7.171  26.547  52.000  1.00  0.00     0.066 C 
HETATM   10  H   UNL     1       7.972  28.029  54.487  1.00  0.00     0.161 HD
ENDROOT
BRANCH   7  11
HETATM   11  C   UNL     1       5.484  28.980  56.405  1.00  0.00     0.261 C 
HETATM   12  N   UNL     1       4.737  30.126  56.596  1.00  0.00    -0.323 N 
HETATM   13  H   UNL     1       4.148  30.393  55.815  1.00  0.00     0.169 HD
HETATM   14  O   UNL     1       6.345  28.550  57.163  1.00  0.00    -0.267 OA
BRANCH  12  15
HETATM   15  C   UNL     1       4.713  30.963  57.730  1.00  0.00     0.037 A 
HETATM   16  C   UNL     1       3.594  31.135  58.549  1.00  0.00     0.066 A 
HETATM   17  C   UNL     1       3.656  32.007  59.636  1.00  0.00     0.067 A 
HETATM   18  C   UNL     1       4.812  32.718  59.920  1.00  0.00     0.036 A 
HETATM   19  C   UNL     1       5.933  32.552  59.111  1.00  0.00     0.005 A 
HETATM   20  C   UNL     1       5.885  31.676  58.023  1.00  0.00     0.029 A 
BRANCH  17  21
HETATM   21  O   UNL     1       2.579  32.191  60.456  1.00  0.00    -0.361 OA
HETATM   22  H   UNL     1       2.803  31.850  61.338  1.00  0.00     0.217 HD
ENDBRANCH  17  21
ENDBRANCH  12  15
ENDBRANCH   7  11
BRANCH   1  23
HETATM   23  C   UNL     1       7.711  24.832  53.811  1.00  0.00    -0.035 A 
HETATM   24  C   UNL     1       7.912  23.738  52.954  1.00  0.00     0.012 A 
HETATM   25  C   UNL     1       7.840  22.426  53.431  1.00  0.00     0.037 A 
HETATM   26  C   UNL     1       7.570  22.172  54.775  1.00  0.00     0.068 A 
HETATM   27  C   UNL     1       7.304  23.240  55.628  1.00  0.00     0.037 A 
HETATM   28  C   UNL     1       7.366  24.554  55.148  1.00  0.00     0.012 A 
BRANCH  26  29
HETATM   29  O   UNL     1       7.560  20.854  55.133  1.00  0.00    -0.356 OA
HETATM   30  C   UNL     1       8.635  20.070  54.623  1.00  0.00     0.210 C 
ENDBRANCH  26  29
ENDBRANCH   1  23
BRANCH   8  31
HETATM   31  C   UNL     1       4.990  26.885  50.846  1.00  0.00     0.409 C 
HETATM   32  F   UNL     1       5.875  27.465  50.004  1.00  0.00    -0.169 F 
HETATM   33  F   UNL     1       4.469  25.819  50.175  1.00  0.00    -0.169 F 
HETATM   34  F   UNL     1       3.964  27.736  51.044  1.00  0.00    -0.169 F 
ENDBRANCH   8  31
TORSDOF 6
ENDMDL
