MODEL 1
REMARK VINA RESULT:     -10.2      0.000      0.000
REMARK  9 active torsions:
REMARK  status: ('A' for Active; 'I' for Inactive)
REMARK    1  A    between atoms: C_2  and  C_3 
REMARK    2  A    between atoms: C_4  and  N_5 
REMARK       I    between atoms: N_5  and  C_6 
REMARK    3  A    between atoms: C_6  and  C_7 
REMARK    4  A    between atoms: C_7  and  S_8 
REMARK    5  A    between atoms: S_8  and  C_9 
REMARK    6  A    between atoms: C_13  and  C_14 
REMARK       I    between atoms: C_14  and  N_15 
REMARK    7  A    between atoms: N_15  and  C_16 
REMARK    8  A    between atoms: C_17  and  O_18 
REMARK    9  A    between atoms: C_25  and  C_26 
ROOT
HETATM    1  C   UNL     1       6.667  28.606  57.317  1.00  0.00     0.088 C 
HETATM    2  N   UNL     1       5.385  28.912  57.746  1.00  0.00    -0.353 N 
HETATM    3  C   UNL     1       4.920  30.219  57.887  1.00  0.00     0.019 C 
HETATM    4  C   UNL     1       3.439  30.363  57.637  1.00  0.00     0.069 C 
HETATM    5  C   UNL     1       5.804  31.231  58.075  1.00  0.00     0.046 C 
HETATM    6  C   UNL     1       7.315  30.923  57.994  1.00  0.00     0.106 C 
HETATM    7  C   UNL     1       7.643  29.536  57.427  1.00  0.00     0.069 C 
HETATM    8  C   UNL     1       8.966  29.339  56.927  1.00  0.00     0.099 C 
HETATM    9  N   UNL     1      10.046  29.195  56.529  1.00  0.00    -0.192 NA
HETATM   10  H   UNL     1       4.699  28.242  57.404  1.00  0.00     0.166 HD
ENDROOT
BRANCH   1  11
HETATM   11  S   UNL     1       6.897  27.113  56.431  1.00  0.00    -0.102 SA
BRANCH  11  12
HETATM   12  C   UNL     1       7.419  25.948  57.728  1.00  0.00     0.184 C 
BRANCH  12  13
HETATM   13  C   UNL     1       8.052  24.741  57.039  1.00  0.00     0.231 C 
HETATM   14  N   UNL     1       7.128  23.977  56.339  1.00  0.00    -0.326 N 
HETATM   15  H   UNL     1       6.156  24.190  56.510  1.00  0.00     0.169 HD
HETATM   16  O   UNL     1       9.254  24.511  57.135  1.00  0.00    -0.272 OA
BRANCH  14  17
HETATM   17  C   UNL     1       7.386  23.033  55.317  1.00  0.00     0.041 A 
HETATM   18  C   UNL     1       7.502  23.478  53.980  1.00  0.00    -0.032 A 
HETATM   19  C   UNL     1       7.875  22.558  52.981  1.00  0.00     0.009 A 
HETATM   20  C   UNL     1       8.114  21.221  53.288  1.00  0.00     0.001 A 
HETATM   21  C   UNL     1       7.976  20.782  54.598  1.00  0.00     0.002 A 
HETATM   22  C   UNL     1       7.613  21.681  55.604  1.00  0.00     0.030 A 
BRANCH  18  23
HETATM   23  C   UNL     1       7.244  24.907  53.553  1.00  0.00     0.036 C 
HETATM   24  C   UNL     1       7.736  25.188  52.141  1.00  0.00     0.010 C 
ENDBRANCH  18  23
ENDBRANCH  14  17
ENDBRANCH  12  13
ENDBRANCH  11  12
ENDBRANCH   1  11
BRANCH   6  25
HETATM   25  C   UNL     1       8.085  31.184  59.286  1.00  0.00    -0.044 A 
HETATM   26  C   UNL     1       7.901  30.398  60.432  1.00  0.00     0.008 A 
HETATM   27  C   UNL     1       8.677  30.616  61.574  1.00  0.00     0.001 A 
HETATM   28  C   UNL     1       9.645  31.619  61.584  1.00  0.00     0.000 A 
HETATM   29  C   UNL     1       9.842  32.405  60.453  1.00  0.00     0.001 A 
HETATM   30  C   UNL     1       9.067  32.190  59.312  1.00  0.00     0.008 A 
ENDBRANCH   6  25
BRANCH   5  31
HETATM   31  C   UNL     1       5.498  32.698  58.009  1.00  0.00     0.255 C 
HETATM   32  N   UNL     1       4.942  33.442  59.002  1.00  0.00    -0.321 N 
HETATM   33  H   UNL     1       4.543  34.286  58.607  1.00  0.00     0.169 HD
HETATM   34  O   UNL     1       5.642  33.273  56.923  1.00  0.00    -0.268 OA
BRANCH  32  35
HETATM   35  C   UNL     1       4.798  33.304  60.390  1.00  0.00     0.068 A 
HETATM   36  C   UNL     1       3.585  33.233  61.083  1.00  0.00     0.095 A 
HETATM   37  C   UNL     1       3.585  33.173  62.485  1.00  0.00     0.039 A 
HETATM   38  C   UNL     1       4.786  33.108  63.193  1.00  0.00     0.003 A 
HETATM   39  C   UNL     1       5.994  33.092  62.504  1.00  0.00     0.002 A 
HETATM   40  C   UNL     1       5.997  33.178  61.111  1.00  0.00     0.032 A 
BRANCH  36  41
HETATM   41  O   UNL     1       2.413  33.176  60.378  1.00  0.00    -0.354 OA
HETATM   42  C   UNL     1       1.716  34.424  60.383  1.00  0.00     0.210 C 
ENDBRANCH  36  41
ENDBRANCH  32  35
ENDBRANCH   5  31
TORSDOF 9
ENDMDL
MODEL 2
REMARK VINA RESULT:      -9.9      1.384      1.732
REMARK  9 active torsions:
REMARK  status: ('A' for Active; 'I' for Inactive)
REMARK    1  A    between atoms: C_2  and  C_3 
REMARK    2  A    between atoms: C_4  and  N_5 
REMARK       I    between atoms: N_5  and  C_6 
REMARK    3  A    between atoms: C_6  and  C_7 
REMARK    4  A    between atoms: C_7  and  S_8 
REMARK    5  A    between atoms: S_8  and  C_9 
REMARK    6  A    between atoms: C_13  and  C_14 
REMARK       I    between atoms: C_14  and  N_15 
REMARK    7  A    between atoms: N_15  and  C_16 
REMARK    8  A    between atoms: C_17  and  O_18 
REMARK    9  A    between atoms: C_25  and  C_26 
ROOT
HETATM    1  C   UNL     1       7.110  29.027  57.370  1.00  0.00     0.088 C 
HETATM    2  N   UNL     1       5.777  29.160  57.726  1.00  0.00    -0.353 N 
HETATM    3  C   UNL     1       5.175  30.390  57.986  1.00  0.00     0.019 C 
HETATM    4  C   UNL     1       3.708  30.432  57.635  1.00  0.00     0.069 C 
HETATM    5  C   UNL     1       5.938  31.445  58.367  1.00  0.00     0.046 C 
HETATM    6  C   UNL     1       7.475  31.287  58.373  1.00  0.00     0.106 C 
HETATM    7  C   UNL     1       7.978  30.019  57.671  1.00  0.00     0.069 C 
HETATM    8  C   UNL     1       9.346  30.008  57.262  1.00  0.00     0.099 C 
HETATM    9  N   UNL     1      10.460  30.014  56.939  1.00  0.00    -0.192 NA
HETATM   10  H   UNL     1       5.187  28.480  57.251  1.00  0.00     0.166 HD
ENDROOT
BRANCH   1  11
HETATM   11  S   UNL     1       7.549  27.688  56.332  1.00  0.00    -0.102 SA
BRANCH  11  12
HETATM   12  C   UNL     1       7.573  26.276  57.479  1.00  0.00     0.184 C 
BRANCH  12  13
HETATM   13  C   UNL     1       7.095  25.045  56.711  1.00  0.00     0.231 C 
HETATM   14  N   UNL     1       8.139  24.328  56.142  1.00  0.00    -0.326 N 
HETATM   15  H   UNL     1       9.041  24.784  56.142  1.00  0.00     0.169 HD
HETATM   16  O   UNL     1       5.901  24.770  56.629  1.00  0.00    -0.272 OA
BRANCH  14  17
HETATM   17  C   UNL     1       8.120  22.988  55.689  1.00  0.00     0.041 A 
HETATM   18  C   UNL     1       8.070  22.731  54.301  1.00  0.00    -0.032 A 
HETATM   19  C   UNL     1       8.170  21.402  53.844  1.00  0.00     0.009 A 
HETATM   20  C   UNL     1       8.302  20.343  54.740  1.00  0.00     0.001 A 
HETATM   21  C   UNL     1       8.327  20.598  56.105  1.00  0.00     0.002 A 
HETATM   22  C   UNL     1       8.236  21.910  56.575  1.00  0.00     0.030 A 
BRANCH  18  23
HETATM   23  C   UNL     1       7.911  23.816  53.257  1.00  0.00     0.036 C 
HETATM   24  C   UNL     1       6.453  24.152  52.987  1.00  0.00     0.010 C 
ENDBRANCH  18  23
ENDBRANCH  14  17
ENDBRANCH  12  13
ENDBRANCH  11  12
ENDBRANCH   1  11
BRANCH   6  25
HETATM   25  C   UNL     1       8.123  31.448  59.746  1.00  0.00    -0.044 A 
HETATM   26  C   UNL     1       8.432  32.707  60.278  1.00  0.00     0.008 A 
HETATM   27  C   UNL     1       8.954  32.822  61.570  1.00  0.00     0.001 A 
HETATM   28  C   UNL     1       9.171  31.684  62.344  1.00  0.00     0.000 A 
HETATM   29  C   UNL     1       8.865  30.427  61.831  1.00  0.00     0.001 A 
HETATM   30  C   UNL     1       8.346  30.309  60.541  1.00  0.00     0.008 A 
ENDBRANCH   6  25
BRANCH   5  31
HETATM   31  C   UNL     1       5.494  32.875  58.454  1.00  0.00     0.255 C 
HETATM   32  N   UNL     1       5.061  33.508  59.576  1.00  0.00    -0.321 N 
HETATM   33  H   UNL     1       4.522  34.326  59.315  1.00  0.00     0.169 HD
HETATM   34  O   UNL     1       5.386  33.515  57.401  1.00  0.00    -0.268 OA
BRANCH  32  35
HETATM   35  C   UNL     1       5.183  33.286  60.957  1.00  0.00     0.068 A 
HETATM   36  C   UNL     1       5.393  34.271  61.927  1.00  0.00     0.095 A 
HETATM   37  C   UNL     1       5.575  33.900  63.269  1.00  0.00     0.039 A 
HETATM   38  C   UNL     1       5.473  32.564  63.656  1.00  0.00     0.003 A 
HETATM   39  C   UNL     1       5.179  31.590  62.708  1.00  0.00     0.002 A 
HETATM   40  C   UNL     1       5.024  31.953  61.369  1.00  0.00     0.032 A 
BRANCH  36  41
HETATM   41  O   UNL     1       5.373  35.590  61.559  1.00  0.00    -0.354 OA
HETATM   42  C   UNL     1       5.702  36.460  62.645  1.00  0.00     0.210 C 
ENDBRANCH  36  41
ENDBRANCH  32  35
ENDBRANCH   5  31
TORSDOF 9
ENDMDL
MODEL 3
REMARK VINA RESULT:      -9.6      2.491      4.838
REMARK  9 active torsions:
REMARK  status: ('A' for Active; 'I' for Inactive)
REMARK    1  A    between atoms: C_2  and  C_3 
REMARK    2  A    between atoms: C_4  and  N_5 
REMARK       I    between atoms: N_5  and  C_6 
REMARK    3  A    between atoms: C_6  and  C_7 
REMARK    4  A    between atoms: C_7  and  S_8 
REMARK    5  A    between atoms: S_8  and  C_9 
REMARK    6  A    between atoms: C_13  and  C_14 
REMARK       I    between atoms: C_14  and  N_15 
REMARK    7  A    between atoms: N_15  and  C_16 
REMARK    8  A    between atoms: C_17  and  O_18 
REMARK    9  A    between atoms: C_25  and  C_26 
ROOT
HETATM    1  C   UNL     1       6.238  31.519  58.722  1.00  0.00     0.088 C 
HETATM    2  N   UNL     1       7.191  31.805  59.687  1.00  0.00    -0.353 N 
HETATM    3  C   UNL     1       6.903  31.867  61.049  1.00  0.00     0.019 C 
HETATM    4  C   UNL     1       8.058  31.460  61.930  1.00  0.00     0.069 C 
HETATM    5  C   UNL     1       5.635  32.123  61.457  1.00  0.00     0.046 C 
HETATM    6  C   UNL     1       4.515  32.207  60.397  1.00  0.00     0.106 C 
HETATM    7  C   UNL     1       4.930  31.710  59.006  1.00  0.00     0.069 C 
HETATM    8  C   UNL     1       3.878  31.356  58.108  1.00  0.00     0.099 C 
HETATM    9  N   UNL     1       3.011  31.076  57.389  1.00  0.00    -0.192 NA
HETATM   10  H   UNL     1       8.099  31.408  59.453  1.00  0.00     0.166 HD
ENDROOT
BRANCH   1  11
HETATM   11  S   UNL     1       6.765  30.697  57.270  1.00  0.00    -0.102 SA
BRANCH  11  12
HETATM   12  C   UNL     1       6.381  28.955  57.627  1.00  0.00     0.184 C 
BRANCH  12  13
HETATM   13  C   UNL     1       7.350  28.090  56.822  1.00  0.00     0.231 C 
HETATM   14  N   UNL     1       6.726  27.008  56.214  1.00  0.00    -0.326 N 
HETATM   15  H   UNL     1       5.781  26.818  56.513  1.00  0.00     0.169 HD
HETATM   16  O   UNL     1       8.545  28.363  56.760  1.00  0.00    -0.272 OA
BRANCH  14  17
HETATM   17  C   UNL     1       7.206  26.230  55.135  1.00  0.00     0.041 A 
HETATM   18  C   UNL     1       7.564  24.882  55.363  1.00  0.00    -0.032 A 
HETATM   19  C   UNL     1       7.928  24.074  54.268  1.00  0.00     0.009 A 
HETATM   20  C   UNL     1       7.957  24.588  52.974  1.00  0.00     0.001 A 
HETATM   21  C   UNL     1       7.629  25.920  52.757  1.00  0.00     0.002 A 
HETATM   22  C   UNL     1       7.258  26.734  53.830  1.00  0.00     0.030 A 
BRANCH  18  23
HETATM   23  C   UNL     1       7.577  24.244  56.735  1.00  0.00     0.036 C 
HETATM   24  C   UNL     1       8.917  24.407  57.438  1.00  0.00     0.010 C 
ENDBRANCH  18  23
ENDBRANCH  14  17
ENDBRANCH  12  13
ENDBRANCH  11  12
ENDBRANCH   1  11
BRANCH   6  25
HETATM   25  C   UNL     1       3.826  33.567  60.310  1.00  0.00    -0.044 A 
HETATM   26  C   UNL     1       2.625  33.835  60.982  1.00  0.00     0.008 A 
HETATM   27  C   UNL     1       2.061  35.113  60.943  1.00  0.00     0.001 A 
HETATM   28  C   UNL     1       2.689  36.138  60.237  1.00  0.00     0.000 A 
HETATM   29  C   UNL     1       3.884  35.887  59.568  1.00  0.00     0.001 A 
HETATM   30  C   UNL     1       4.448  34.612  59.603  1.00  0.00     0.008 A 
ENDBRANCH   6  25
BRANCH   5  31
HETATM   31  C   UNL     1       5.111  31.992  62.857  1.00  0.00     0.255 C 
HETATM   32  N   UNL     1       4.974  33.004  63.755  1.00  0.00    -0.321 N 
HETATM   33  H   UNL     1       4.926  32.619  64.691  1.00  0.00     0.169 HD
HETATM   34  O   UNL     1       4.897  30.854  63.293  1.00  0.00    -0.268 OA
BRANCH  32  35
HETATM   35  C   UNL     1       4.895  34.402  63.677  1.00  0.00     0.068 A 
HETATM   36  C   UNL     1       3.981  35.209  64.362  1.00  0.00     0.095 A 
HETATM   37  C   UNL     1       3.963  36.593  64.132  1.00  0.00     0.039 A 
HETATM   38  C   UNL     1       4.898  37.183  63.281  1.00  0.00     0.003 A 
HETATM   39  C   UNL     1       5.863  36.397  62.663  1.00  0.00     0.002 A 
HETATM   40  C   UNL     1       5.867  35.017  62.870  1.00  0.00     0.032 A 
BRANCH  36  41
HETATM   41  O   UNL     1       3.145  34.640  65.286  1.00  0.00    -0.354 OA
HETATM   42  C   UNL     1       3.183  35.320  66.542  1.00  0.00     0.210 C 
ENDBRANCH  36  41
ENDBRANCH  32  35
ENDBRANCH   5  31
TORSDOF 9
ENDMDL
MODEL 4
REMARK VINA RESULT:      -9.6      2.538      4.717
REMARK  9 active torsions:
REMARK  status: ('A' for Active; 'I' for Inactive)
REMARK    1  A    between atoms: C_2  and  C_3 
REMARK    2  A    between atoms: C_4  and  N_5 
REMARK       I    between atoms: N_5  and  C_6 
REMARK    3  A    between atoms: C_6  and  C_7 
REMARK    4  A    between atoms: C_7  and  S_8 
REMARK    5  A    between atoms: S_8  and  C_9 
REMARK    6  A    between atoms: C_13  and  C_14 
REMARK       I    between atoms: C_14  and  N_15 
REMARK    7  A    between atoms: N_15  and  C_16 
REMARK    8  A    between atoms: C_17  and  O_18 
REMARK    9  A    between atoms: C_25  and  C_26 
ROOT
HETATM    1  C   UNL     1       6.259  31.549  58.832  1.00  0.00     0.088 C 
HETATM    2  N   UNL     1       7.206  31.834  59.803  1.00  0.00    -0.353 N 
HETATM    3  C   UNL     1       6.910  31.895  61.163  1.00  0.00     0.019 C 
HETATM    4  C   UNL     1       8.060  31.488  62.051  1.00  0.00     0.069 C 
HETATM    5  C   UNL     1       5.639  32.151  61.564  1.00  0.00     0.046 C 
HETATM    6  C   UNL     1       4.526  32.236  60.496  1.00  0.00     0.106 C 
HETATM    7  C   UNL     1       4.949  31.739  59.109  1.00  0.00     0.069 C 
HETATM    8  C   UNL     1       3.903  31.386  58.204  1.00  0.00     0.099 C 
HETATM    9  N   UNL     1       3.040  31.106  57.479  1.00  0.00    -0.192 NA
HETATM   10  H   UNL     1       8.116  31.438  59.574  1.00  0.00     0.166 HD
ENDROOT
BRANCH   1  11
HETATM   11  S   UNL     1       6.796  30.727  57.382  1.00  0.00    -0.102 SA
BRANCH  11  12
HETATM   12  C   UNL     1       7.681  29.280  58.040  1.00  0.00     0.184 C 
BRANCH  12  13
HETATM   13  C   UNL     1       7.089  28.035  57.383  1.00  0.00     0.231 C 
HETATM   14  N   UNL     1       8.055  27.219  56.809  1.00  0.00    -0.326 N 
HETATM   15  H   UNL     1       8.980  27.617  56.730  1.00  0.00     0.169 HD
HETATM   16  O   UNL     1       5.878  27.830  57.383  1.00  0.00    -0.272 OA
BRANCH  14  17
HETATM   17  C   UNL     1       7.932  25.857  56.449  1.00  0.00     0.041 A 
HETATM   18  C   UNL     1       7.618  25.523  55.112  1.00  0.00    -0.032 A 
HETATM   19  C   UNL     1       7.612  24.169  54.726  1.00  0.00     0.009 A 
HETATM   20  C   UNL     1       7.894  23.159  55.643  1.00  0.00     0.001 A 
HETATM   21  C   UNL     1       8.179  23.489  56.961  1.00  0.00     0.002 A 
HETATM   22  C   UNL     1       8.196  24.828  57.361  1.00  0.00     0.030 A 
BRANCH  18  23
HETATM   23  C   UNL     1       7.283  26.552  54.054  1.00  0.00     0.036 C 
HETATM   24  C   UNL     1       7.124  25.933  52.673  1.00  0.00     0.010 C 
ENDBRANCH  18  23
ENDBRANCH  14  17
ENDBRANCH  12  13
ENDBRANCH  11  12
ENDBRANCH   1  11
BRANCH   6  25
HETATM   25  C   UNL     1       3.837  33.596  60.407  1.00  0.00    -0.044 A 
HETATM   26  C   UNL     1       2.629  33.860  61.065  1.00  0.00     0.008 A 
HETATM   27  C   UNL     1       2.065  35.139  61.024  1.00  0.00     0.001 A 
HETATM   28  C   UNL     1       2.700  36.166  60.328  1.00  0.00     0.000 A 
HETATM   29  C   UNL     1       3.903  35.918  59.673  1.00  0.00     0.001 A 
HETATM   30  C   UNL     1       4.467  34.643  59.710  1.00  0.00     0.008 A 
ENDBRANCH   6  25
BRANCH   5  31
HETATM   31  C   UNL     1       5.106  32.020  62.961  1.00  0.00     0.255 C 
HETATM   32  N   UNL     1       4.967  33.030  63.859  1.00  0.00    -0.321 N 
HETATM   33  H   UNL     1       4.913  32.643  64.794  1.00  0.00     0.169 HD
HETATM   34  O   UNL     1       4.887  30.881  63.393  1.00  0.00    -0.268 OA
BRANCH  32  35
HETATM   35  C   UNL     1       4.894  34.429  63.783  1.00  0.00     0.068 A 
HETATM   36  C   UNL     1       3.964  35.235  64.448  1.00  0.00     0.095 A 
HETATM   37  C   UNL     1       3.954  36.620  64.221  1.00  0.00     0.039 A 
HETATM   38  C   UNL     1       4.912  37.211  63.395  1.00  0.00     0.003 A 
HETATM   39  C   UNL     1       5.891  36.424  62.800  1.00  0.00     0.002 A 
HETATM   40  C   UNL     1       5.887  35.043  63.003  1.00  0.00     0.032 A 
BRANCH  36  41
HETATM   41  O   UNL     1       3.104  34.665  65.348  1.00  0.00    -0.354 OA
HETATM   42  C   UNL     1       3.142  35.317  66.620  1.00  0.00     0.210 C 
ENDBRANCH  36  41
ENDBRANCH  32  35
ENDBRANCH   5  31
TORSDOF 9
ENDMDL
MODEL 5
REMARK VINA RESULT:      -9.4      6.134      9.924
REMARK  9 active torsions:
REMARK  status: ('A' for Active; 'I' for Inactive)
REMARK    1  A    between atoms: C_2  and  C_3 
REMARK    2  A    between atoms: C_4  and  N_5 
REMARK       I    between atoms: N_5  and  C_6 
REMARK    3  A    between atoms: C_6  and  C_7 
REMARK    4  A    between atoms: C_7  and  S_8 
REMARK    5  A    between atoms: S_8  and  C_9 
REMARK    6  A    between atoms: C_13  and  C_14 
REMARK       I    between atoms: C_14  and  N_15 
REMARK    7  A    between atoms: N_15  and  C_16 
REMARK    8  A    between atoms: C_17  and  O_18 
REMARK    9  A    between atoms: C_25  and  C_26 
ROOT
HETATM    1  C   UNL     1       4.178  28.368  53.236  1.00  0.00     0.088 C 
HETATM    2  N   UNL     1       4.188  27.255  52.410  1.00  0.00    -0.353 N 
HETATM    3  C   UNL     1       4.575  27.301  51.072  1.00  0.00     0.019 C 
HETATM    4  C   UNL     1       5.208  26.021  50.581  1.00  0.00     0.069 C 
HETATM    5  C   UNL     1       4.503  28.472  50.391  1.00  0.00     0.046 C 
HETATM    6  C   UNL     1       4.118  29.756  51.158  1.00  0.00     0.106 C 
HETATM    7  C   UNL     1       4.130  29.601  52.684  1.00  0.00     0.069 C 
HETATM    8  C   UNL     1       4.209  30.802  53.453  1.00  0.00     0.099 C 
HETATM    9  N   UNL     1       4.270  31.787  54.062  1.00  0.00    -0.192 NA
HETATM   10  H   UNL     1       4.460  26.412  52.912  1.00  0.00     0.166 HD
ENDROOT
BRANCH   1  11
HETATM   11  S   UNL     1       4.475  28.122  54.943  1.00  0.00    -0.102 SA
BRANCH  11  12
HETATM   12  C   UNL     1       6.156  27.426  54.968  1.00  0.00     0.184 C 
BRANCH  12  13
HETATM   13  C   UNL     1       6.056  25.956  54.565  1.00  0.00     0.231 C 
HETATM   14  N   UNL     1       7.294  25.392  54.282  1.00  0.00    -0.326 N 
HETATM   15  H   UNL     1       8.065  26.038  54.196  1.00  0.00     0.169 HD
HETATM   16  O   UNL     1       4.972  25.384  54.505  1.00  0.00    -0.272 OA
BRANCH  14  17
HETATM   17  C   UNL     1       7.626  24.018  54.235  1.00  0.00     0.041 A 
HETATM   18  C   UNL     1       7.752  23.297  55.444  1.00  0.00    -0.032 A 
HETATM   19  C   UNL     1       7.965  21.906  55.395  1.00  0.00     0.009 A 
HETATM   20  C   UNL     1       8.069  21.238  54.178  1.00  0.00     0.001 A 
HETATM   21  C   UNL     1       7.968  21.953  52.991  1.00  0.00     0.002 A 
HETATM   22  C   UNL     1       7.750  23.332  53.021  1.00  0.00     0.030 A 
BRANCH  18  23
HETATM   23  C   UNL     1       7.670  23.943  56.811  1.00  0.00     0.036 C 
HETATM   24  C   UNL     1       9.000  24.533  57.254  1.00  0.00     0.010 C 
ENDBRANCH  18  23
ENDBRANCH  14  17
ENDBRANCH  12  13
ENDBRANCH  11  12
ENDBRANCH   1  11
BRANCH   6  25
HETATM   25  C   UNL     1       2.824  30.413  50.683  1.00  0.00    -0.044 A 
HETATM   26  C   UNL     1       2.774  31.760  50.297  1.00  0.00     0.008 A 
HETATM   27  C   UNL     1       1.591  32.309  49.795  1.00  0.00     0.001 A 
HETATM   28  C   UNL     1       0.448  31.523  49.670  1.00  0.00     0.000 A 
HETATM   29  C   UNL     1       0.484  30.183  50.045  1.00  0.00     0.001 A 
HETATM   30  C   UNL     1       1.663  29.632  50.549  1.00  0.00     0.008 A 
ENDBRANCH   6  25
BRANCH   5  31
HETATM   31  C   UNL     1       5.093  28.749  49.039  1.00  0.00     0.255 C 
HETATM   32  N   UNL     1       4.449  28.625  47.848  1.00  0.00    -0.321 N 
HETATM   33  H   UNL     1       5.132  28.543  47.103  1.00  0.00     0.169 HD
HETATM   34  O   UNL     1       6.304  28.992  48.973  1.00  0.00    -0.268 OA
BRANCH  32  35
HETATM   35  C   UNL     1       3.108  28.579  47.439  1.00  0.00     0.068 A 
HETATM   36  C   UNL     1       2.248  27.485  47.578  1.00  0.00     0.095 A 
HETATM   37  C   UNL     1       0.948  27.550  47.053  1.00  0.00     0.039 A 
HETATM   38  C   UNL     1       0.479  28.722  46.459  1.00  0.00     0.003 A 
HETATM   39  C   UNL     1       1.302  29.841  46.395  1.00  0.00     0.002 A 
HETATM   40  C   UNL     1       2.604  29.771  46.893  1.00  0.00     0.032 A 
BRANCH  36  41
HETATM   41  O   UNL     1       2.673  26.381  48.267  1.00  0.00    -0.354 OA
HETATM   42  C   UNL     1       2.970  25.283  47.401  1.00  0.00     0.210 C 
ENDBRANCH  36  41
ENDBRANCH  32  35
ENDBRANCH   5  31
TORSDOF 9
ENDMDL
MODEL 6
REMARK VINA RESULT:      -9.3      6.138      9.863
REMARK  9 active torsions:
REMARK  status: ('A' for Active; 'I' for Inactive)
REMARK    1  A    between atoms: C_2  and  C_3 
REMARK    2  A    between atoms: C_4  and  N_5 
REMARK       I    between atoms: N_5  and  C_6 
REMARK    3  A    between atoms: C_6  and  C_7 
REMARK    4  A    between atoms: C_7  and  S_8 
REMARK    5  A    between atoms: S_8  and  C_9 
REMARK    6  A    between atoms: C_13  and  C_14 
REMARK       I    between atoms: C_14  and  N_15 
REMARK    7  A    between atoms: N_15  and  C_16 
REMARK    8  A    between atoms: C_17  and  O_18 
REMARK    9  A    between atoms: C_25  and  C_26 
ROOT
HETATM    1  C   UNL     1       4.007  28.801  53.380  1.00  0.00     0.088 C 
HETATM    2  N   UNL     1       4.005  27.618  52.659  1.00  0.00    -0.353 N 
HETATM    3  C   UNL     1       4.439  27.528  51.338  1.00  0.00     0.019 C 
HETATM    4  C   UNL     1       5.041  26.189  50.988  1.00  0.00     0.069 C 
HETATM    5  C   UNL     1       4.434  28.634  50.551  1.00  0.00     0.046 C 
HETATM    6  C   UNL     1       4.069  29.995  51.185  1.00  0.00     0.106 C 
HETATM    7  C   UNL     1       4.023  29.980  52.718  1.00  0.00     0.069 C 
HETATM    8  C   UNL     1       4.120  31.243  53.378  1.00  0.00     0.099 C 
HETATM    9  N   UNL     1       4.196  32.277  53.898  1.00  0.00    -0.192 NA
HETATM   10  H   UNL     1       4.228  26.815  53.244  1.00  0.00     0.166 HD
ENDROOT
BRANCH   1  11
HETATM   11  S   UNL     1       4.235  28.702  55.113  1.00  0.00    -0.102 SA
BRANCH  11  12
HETATM   12  C   UNL     1       5.951  28.116  55.264  1.00  0.00     0.184 C 
BRANCH  12  13
HETATM   13  C   UNL     1       5.905  26.647  55.681  1.00  0.00     0.231 C 
HETATM   14  N   UNL     1       6.848  25.872  55.018  1.00  0.00    -0.326 N 
HETATM   15  H   UNL     1       7.309  26.310  54.234  1.00  0.00     0.169 HD
HETATM   16  O   UNL     1       5.096  26.246  56.511  1.00  0.00    -0.272 OA
BRANCH  14  17
HETATM   17  C   UNL     1       7.333  24.597  55.391  1.00  0.00     0.041 A 
HETATM   18  C   UNL     1       7.448  23.588  54.409  1.00  0.00    -0.032 A 
HETATM   19  C   UNL     1       8.042  22.358  54.753  1.00  0.00     0.009 A 
HETATM   20  C   UNL     1       8.499  22.119  56.047  1.00  0.00     0.001 A 
HETATM   21  C   UNL     1       8.363  23.104  57.016  1.00  0.00     0.002 A 
HETATM   22  C   UNL     1       7.783  24.332  56.691  1.00  0.00     0.030 A 
BRANCH  18  23
HETATM   23  C   UNL     1       6.964  23.753  52.984  1.00  0.00     0.036 C 
HETATM   24  C   UNL     1       7.986  24.452  52.101  1.00  0.00     0.010 C 
ENDBRANCH  18  23
ENDBRANCH  14  17
ENDBRANCH  12  13
ENDBRANCH  11  12
ENDBRANCH   1  11
BRANCH   6  25
HETATM   25  C   UNL     1       2.818  30.649  50.604  1.00  0.00    -0.044 A 
HETATM   26  C   UNL     1       2.841  31.939  50.057  1.00  0.00     0.008 A 
HETATM   27  C   UNL     1       1.695  32.478  49.465  1.00  0.00     0.001 A 
HETATM   28  C   UNL     1       0.516  31.736  49.410  1.00  0.00     0.000 A 
HETATM   29  C   UNL     1       0.480  30.452  49.946  1.00  0.00     0.001 A 
HETATM   30  C   UNL     1       1.622  29.913  50.540  1.00  0.00     0.008 A 
ENDBRANCH   6  25
BRANCH   5  31
HETATM   31  C   UNL     1       5.079  28.767  49.203  1.00  0.00     0.255 C 
HETATM   32  N   UNL     1       4.476  28.544  48.006  1.00  0.00    -0.321 N 
HETATM   33  H   UNL     1       5.183  28.376  47.299  1.00  0.00     0.169 HD
HETATM   34  O   UNL     1       6.298  28.974  49.161  1.00  0.00    -0.268 OA
BRANCH  32  35
HETATM   35  C   UNL     1       3.150  28.491  47.551  1.00  0.00     0.068 A 
HETATM   36  C   UNL     1       2.285  27.399  47.680  1.00  0.00     0.095 A 
HETATM   37  C   UNL     1       1.004  27.454  47.108  1.00  0.00     0.039 A 
HETATM   38  C   UNL     1       0.557  28.615  46.478  1.00  0.00     0.003 A 
HETATM   39  C   UNL     1       1.382  29.733  46.422  1.00  0.00     0.002 A 
HETATM   40  C   UNL     1       2.665  29.673  46.966  1.00  0.00     0.032 A 
BRANCH  36  41
HETATM   41  O   UNL     1       2.685  26.308  48.403  1.00  0.00    -0.354 OA
HETATM   42  C   UNL     1       3.039  25.204  47.567  1.00  0.00     0.210 C 
ENDBRANCH  36  41
ENDBRANCH  32  35
ENDBRANCH   5  31
TORSDOF 9
ENDMDL
MODEL 7
REMARK VINA RESULT:      -8.7      2.670      9.759
REMARK  9 active torsions:
REMARK  status: ('A' for Active; 'I' for Inactive)
REMARK    1  A    between atoms: C_2  and  C_3 
REMARK    2  A    between atoms: C_4  and  N_5 
REMARK       I    between atoms: N_5  and  C_6 
REMARK    3  A    between atoms: C_6  and  C_7 
REMARK    4  A    between atoms: C_7  and  S_8 
REMARK    5  A    between atoms: S_8  and  C_9 
REMARK    6  A    between atoms: C_13  and  C_14 
REMARK       I    between atoms: C_14  and  N_15 
REMARK    7  A    between atoms: N_15  and  C_16 
REMARK    8  A    between atoms: C_17  and  O_18 
REMARK    9  A    between atoms: C_25  and  C_26 
ROOT
HETATM    1  C   UNL     1       3.955  29.648  55.479  1.00  0.00     0.088 C 
HETATM    2  N   UNL     1       4.638  28.973  56.479  1.00  0.00    -0.353 N 
HETATM    3  C   UNL     1       5.951  28.528  56.340  1.00  0.00     0.019 C 
HETATM    4  C   UNL     1       6.724  28.511  57.636  1.00  0.00     0.069 C 
HETATM    5  C   UNL     1       6.457  28.302  55.102  1.00  0.00     0.046 C 
HETATM    6  C   UNL     1       5.602  28.675  53.870  1.00  0.00     0.106 C 
HETATM    7  C   UNL     1       4.370  29.527  54.197  1.00  0.00     0.069 C 
HETATM    8  C   UNL     1       3.785  30.256  53.118  1.00  0.00     0.099 C 
HETATM    9  N   UNL     1       3.320  30.839  52.229  1.00  0.00    -0.192 NA
HETATM   10  H   UNL     1       4.392  29.318  57.405  1.00  0.00     0.166 HD
ENDROOT
BRANCH   1  11
HETATM   11  S   UNL     1       2.740  30.812  55.960  1.00  0.00    -0.102 SA
BRANCH  11  12
HETATM   12  C   UNL     1       3.735  32.209  56.567  1.00  0.00     0.184 C 
BRANCH  12  13
HETATM   13  C   UNL     1       4.053  31.948  58.039  1.00  0.00     0.231 C 
HETATM   14  N   UNL     1       5.306  32.419  58.409  1.00  0.00    -0.326 N 
HETATM   15  H   UNL     1       5.914  32.700  57.654  1.00  0.00     0.169 HD
HETATM   16  O   UNL     1       3.254  31.370  58.770  1.00  0.00    -0.272 OA
BRANCH  14  17
HETATM   17  C   UNL     1       5.778  32.678  59.717  1.00  0.00     0.041 A 
HETATM   18  C   UNL     1       7.113  32.350  60.046  1.00  0.00    -0.032 A 
HETATM   19  C   UNL     1       7.619  32.715  61.309  1.00  0.00     0.009 A 
HETATM   20  C   UNL     1       6.821  33.377  62.238  1.00  0.00     0.001 A 
HETATM   21  C   UNL     1       5.502  33.678  61.920  1.00  0.00     0.002 A 
HETATM   22  C   UNL     1       4.986  33.329  60.670  1.00  0.00     0.030 A 
BRANCH  18  23
HETATM   23  C   UNL     1       8.046  31.617  59.106  1.00  0.00     0.036 C 
HETATM   24  C   UNL     1       9.487  31.631  59.591  1.00  0.00     0.010 C 
ENDBRANCH  18  23
ENDBRANCH  14  17
ENDBRANCH  12  13
ENDBRANCH  11  12
ENDBRANCH   1  11
BRANCH   6  25
HETATM   25  C   UNL     1       5.233  27.495  52.975  1.00  0.00    -0.044 A 
HETATM   26  C   UNL     1       5.518  27.485  51.603  1.00  0.00     0.008 A 
HETATM   27  C   UNL     1       5.235  26.357  50.828  1.00  0.00     0.001 A 
HETATM   28  C   UNL     1       4.667  25.227  51.413  1.00  0.00     0.000 A 
HETATM   29  C   UNL     1       4.381  25.220  52.775  1.00  0.00     0.001 A 
HETATM   30  C   UNL     1       4.661  26.346  53.551  1.00  0.00     0.008 A 
ENDBRANCH   6  25
BRANCH   5  31
HETATM   31  C   UNL     1       7.898  28.054  54.764  1.00  0.00     0.255 C 
HETATM   32  N   UNL     1       8.477  26.837  54.589  1.00  0.00    -0.321 N 
HETATM   33  H   UNL     1       9.481  26.922  54.703  1.00  0.00     0.169 HD
HETATM   34  O   UNL     1       8.669  29.021  54.765  1.00  0.00    -0.268 OA
BRANCH  32  35
HETATM   35  C   UNL     1       8.013  25.543  54.305  1.00  0.00     0.068 A 
HETATM   36  C   UNL     1       7.428  24.665  55.223  1.00  0.00     0.095 A 
HETATM   37  C   UNL     1       7.079  23.366  54.820  1.00  0.00     0.039 A 
HETATM   38  C   UNL     1       7.242  22.967  53.493  1.00  0.00     0.003 A 
HETATM   39  C   UNL     1       7.745  23.865  52.558  1.00  0.00     0.002 A 
HETATM   40  C   UNL     1       8.117  25.148  52.962  1.00  0.00     0.032 A 
BRANCH  36  41
HETATM   41  O   UNL     1       7.160  25.102  56.492  1.00  0.00    -0.354 OA
HETATM   42  C   UNL     1       5.774  24.984  56.825  1.00  0.00     0.210 C 
ENDBRANCH  36  41
ENDBRANCH  32  35
ENDBRANCH   5  31
TORSDOF 9
ENDMDL
MODEL 8
REMARK VINA RESULT:      -8.7      4.498      6.931
REMARK  9 active torsions:
REMARK  status: ('A' for Active; 'I' for Inactive)
REMARK    1  A    between atoms: C_2  and  C_3 
REMARK    2  A    between atoms: C_4  and  N_5 
REMARK       I    between atoms: N_5  and  C_6 
REMARK    3  A    between atoms: C_6  and  C_7 
REMARK    4  A    between atoms: C_7  and  S_8 
REMARK    5  A    between atoms: S_8  and  C_9 
REMARK    6  A    between atoms: C_13  and  C_14 
REMARK       I    between atoms: C_14  and  N_15 
REMARK    7  A    between atoms: N_15  and  C_16 
REMARK    8  A    between atoms: C_17  and  O_18 
REMARK    9  A    between atoms: C_25  and  C_26 
ROOT
HETATM    1  C   UNL     1       3.930  34.581  58.144  1.00  0.00     0.088 C 
HETATM    2  N   UNL     1       4.889  33.587  58.266  1.00  0.00    -0.353 N 
HETATM    3  C   UNL     1       4.864  32.624  59.274  1.00  0.00     0.019 C 
HETATM    4  C   UNL     1       5.461  31.301  58.861  1.00  0.00     0.069 C 
HETATM    5  C   UNL     1       4.207  32.880  60.433  1.00  0.00     0.046 C 
HETATM    6  C   UNL     1       3.387  34.184  60.551  1.00  0.00     0.106 C 
HETATM    7  C   UNL     1       3.186  34.920  59.220  1.00  0.00     0.069 C 
HETATM    8  C   UNL     1       2.117  35.865  59.162  1.00  0.00     0.099 C 
HETATM    9  N   UNL     1       1.247  36.632  59.132  1.00  0.00    -0.192 NA
HETATM   10  H   UNL     1       5.213  33.258  57.359  1.00  0.00     0.166 HD
ENDROOT
BRANCH   1  11
HETATM   11  S   UNL     1       3.570  35.174  56.537  1.00  0.00    -0.102 SA
BRANCH  11  12
HETATM   12  C   UNL     1       2.557  33.839  55.829  1.00  0.00     0.184 C 
BRANCH  12  13
HETATM   13  C   UNL     1       3.506  32.815  55.208  1.00  0.00     0.231 C 
HETATM   14  N   UNL     1       2.861  31.641  54.839  1.00  0.00    -0.326 N 
HETATM   15  H   UNL     1       1.917  31.529  55.179  1.00  0.00     0.169 HD
HETATM   16  O   UNL     1       4.703  33.053  55.080  1.00  0.00    -0.272 OA
BRANCH  14  17
HETATM   17  C   UNL     1       3.319  30.653  53.937  1.00  0.00     0.041 A 
HETATM   18  C   UNL     1       3.834  29.439  54.446  1.00  0.00    -0.032 A 
HETATM   19  C   UNL     1       4.178  28.409  53.549  1.00  0.00     0.009 A 
HETATM   20  C   UNL     1       4.035  28.577  52.174  1.00  0.00     0.001 A 
HETATM   21  C   UNL     1       3.552  29.780  51.675  1.00  0.00     0.002 A 
HETATM   22  C   UNL     1       3.198  30.809  52.550  1.00  0.00     0.030 A 
BRANCH  18  23
HETATM   23  C   UNL     1       4.039  29.176  55.922  1.00  0.00     0.036 C 
HETATM   24  C   UNL     1       5.462  28.746  56.242  1.00  0.00     0.010 C 
ENDBRANCH  18  23
ENDBRANCH  14  17
ENDBRANCH  12  13
ENDBRANCH  11  12
ENDBRANCH   1  11
BRANCH   6  25
HETATM   25  C   UNL     1       3.871  35.139  61.639  1.00  0.00    -0.044 A 
HETATM   26  C   UNL     1       3.045  35.538  62.698  1.00  0.00     0.008 A 
HETATM   27  C   UNL     1       3.543  36.353  63.719  1.00  0.00     0.001 A 
HETATM   28  C   UNL     1       4.871  36.777  63.695  1.00  0.00     0.000 A 
HETATM   29  C   UNL     1       5.705  36.386  62.651  1.00  0.00     0.001 A 
HETATM   30  C   UNL     1       5.209  35.574  61.630  1.00  0.00     0.008 A 
ENDBRANCH   6  25
BRANCH   5  31
HETATM   31  C   UNL     1       3.885  31.884  61.508  1.00  0.00     0.255 C 
HETATM   32  N   UNL     1       4.641  31.624  62.607  1.00  0.00    -0.321 N 
HETATM   33  H   UNL     1       4.393  30.715  62.979  1.00  0.00     0.169 HD
HETATM   34  O   UNL     1       2.915  31.135  61.334  1.00  0.00    -0.268 OA
BRANCH  32  35
HETATM   35  C   UNL     1       5.651  32.303  63.305  1.00  0.00     0.068 A 
HETATM   36  C   UNL     1       7.008  32.322  62.967  1.00  0.00     0.095 A 
HETATM   37  C   UNL     1       7.925  32.980  63.801  1.00  0.00     0.039 A 
HETATM   38  C   UNL     1       7.486  33.680  64.926  1.00  0.00     0.003 A 
HETATM   39  C   UNL     1       6.128  33.736  65.219  1.00  0.00     0.002 A 
HETATM   40  C   UNL     1       5.217  33.060  64.406  1.00  0.00     0.032 A 
BRANCH  36  41
HETATM   41  O   UNL     1       7.416  31.735  61.799  1.00  0.00    -0.354 OA
HETATM   42  C   UNL     1       8.181  32.626  60.984  1.00  0.00     0.210 C 
ENDBRANCH  36  41
ENDBRANCH  32  35
ENDBRANCH   5  31
TORSDOF 9
ENDMDL
MODEL 9
REMARK VINA RESULT:      -8.6      2.744      4.651
REMARK  9 active torsions:
REMARK  status: ('A' for Active; 'I' for Inactive)
REMARK    1  A    between atoms: C_2  and  C_3 
REMARK    2  A    between atoms: C_4  and  N_5 
REMARK       I    between atoms: N_5  and  C_6 
REMARK    3  A    between atoms: C_6  and  C_7 
REMARK    4  A    between atoms: C_7  and  S_8 
REMARK    5  A    between atoms: S_8  and  C_9 
REMARK    6  A    between atoms: C_13  and  C_14 
REMARK       I    between atoms: C_14  and  N_15 
REMARK    7  A    between atoms: N_15  and  C_16 
REMARK    8  A    between atoms: C_17  and  O_18 
REMARK    9  A    between atoms: C_25  and  C_26 
ROOT
HETATM    1  C   UNL     1       6.605  29.887  56.703  1.00  0.00     0.088 C 
HETATM    2  N   UNL     1       6.996  30.829  57.641  1.00  0.00    -0.353 N 
HETATM    3  C   UNL     1       6.091  31.580  58.390  1.00  0.00     0.019 C 
HETATM    4  C   UNL     1       6.603  31.952  59.760  1.00  0.00     0.069 C 
HETATM    5  C   UNL     1       4.833  31.779  57.923  1.00  0.00     0.046 C 
HETATM    6  C   UNL     1       4.396  31.053  56.631  1.00  0.00     0.106 C 
HETATM    7  C   UNL     1       5.364  29.956  56.171  1.00  0.00     0.069 C 
HETATM    8  C   UNL     1       4.847  28.977  55.270  1.00  0.00     0.099 C 
HETATM    9  N   UNL     1       4.412  28.191  54.535  1.00  0.00    -0.192 NA
HETATM   10  H   UNL     1       7.839  30.546  58.136  1.00  0.00     0.166 HD
ENDROOT
BRANCH   1  11
HETATM   11  S   UNL     1       7.657  28.513  56.438  1.00  0.00    -0.102 SA
BRANCH  11  12
HETATM   12  C   UNL     1       6.867  27.201  57.419  1.00  0.00     0.184 C 
BRANCH  12  13
HETATM   13  C   UNL     1       7.452  25.864  56.965  1.00  0.00     0.231 C 
HETATM   14  N   UNL     1       6.699  25.261  55.966  1.00  0.00    -0.326 N 
HETATM   15  H   UNL     1       5.790  25.665  55.792  1.00  0.00     0.169 HD
HETATM   16  O   UNL     1       8.475  25.413  57.470  1.00  0.00    -0.272 OA
BRANCH  14  17
HETATM   17  C   UNL     1       7.107  24.241  55.075  1.00  0.00     0.041 A 
HETATM   18  C   UNL     1       7.460  24.583  53.750  1.00  0.00    -0.032 A 
HETATM   19  C   UNL     1       7.979  23.588  52.899  1.00  0.00     0.009 A 
HETATM   20  C   UNL     1       8.132  22.275  53.339  1.00  0.00     0.001 A 
HETATM   21  C   UNL     1       7.763  21.937  54.634  1.00  0.00     0.002 A 
HETATM   22  C   UNL     1       7.253  22.913  55.494  1.00  0.00     0.030 A 
BRANCH  18  23
HETATM   23  C   UNL     1       7.310  25.978  53.182  1.00  0.00     0.036 C 
HETATM   24  C   UNL     1       6.252  26.050  52.092  1.00  0.00     0.010 C 
ENDBRANCH  18  23
ENDBRANCH  14  17
ENDBRANCH  12  13
ENDBRANCH  11  12
ENDBRANCH   1  11
BRANCH   6  25
HETATM   25  C   UNL     1       4.028  31.981  55.476  1.00  0.00    -0.044 A 
HETATM   26  C   UNL     1       4.968  32.833  54.880  1.00  0.00     0.008 A 
HETATM   27  C   UNL     1       4.616  33.614  53.776  1.00  0.00     0.001 A 
HETATM   28  C   UNL     1       3.325  33.553  53.254  1.00  0.00     0.000 A 
HETATM   29  C   UNL     1       2.382  32.709  53.833  1.00  0.00     0.001 A 
HETATM   30  C   UNL     1       2.730  31.930  54.937  1.00  0.00     0.008 A 
ENDBRANCH   6  25
BRANCH   5  31
HETATM   31  C   UNL     1       3.680  32.351  58.695  1.00  0.00     0.255 C 
HETATM   32  N   UNL     1       3.215  33.624  58.606  1.00  0.00    -0.321 N 
HETATM   33  H   UNL     1       2.679  33.846  59.437  1.00  0.00     0.169 HD
HETATM   34  O   UNL     1       3.177  31.655  59.586  1.00  0.00    -0.268 OA
BRANCH  32  35
HETATM   35  C   UNL     1       3.313  34.659  57.663  1.00  0.00     0.068 A 
HETATM   36  C   UNL     1       2.286  35.095  56.819  1.00  0.00     0.095 A 
HETATM   37  C   UNL     1       2.545  36.092  55.865  1.00  0.00     0.039 A 
HETATM   38  C   UNL     1       3.797  36.705  55.800  1.00  0.00     0.003 A 
HETATM   39  C   UNL     1       4.795  36.333  56.694  1.00  0.00     0.002 A 
HETATM   40  C   UNL     1       4.549  35.324  57.626  1.00  0.00     0.032 A 
BRANCH  36  41
HETATM   41  O   UNL     1       1.029  34.576  56.969  1.00  0.00    -0.354 OA
HETATM   42  C   UNL     1       0.156  34.952  55.901  1.00  0.00     0.210 C 
ENDBRANCH  36  41
ENDBRANCH  32  35
ENDBRANCH   5  31
TORSDOF 9
ENDMDL
MODEL 10
REMARK VINA RESULT:      -8.5      7.716     10.837
REMARK  9 active torsions:
REMARK  status: ('A' for Active; 'I' for Inactive)
REMARK    1  A    between atoms: C_2  and  C_3 
REMARK    2  A    between atoms: C_4  and  N_5 
REMARK       I    between atoms: N_5  and  C_6 
REMARK    3  A    between atoms: C_6  and  C_7 
REMARK    4  A    between atoms: C_7  and  S_8 
REMARK    5  A    between atoms: S_8  and  C_9 
REMARK    6  A    between atoms: C_13  and  C_14 
REMARK       I    between atoms: C_14  and  N_15 
REMARK    7  A    between atoms: N_15  and  C_16 
REMARK    8  A    between atoms: C_17  and  O_18 
REMARK    9  A    between atoms: C_25  and  C_26 
ROOT
HETATM    1  C   UNL     1       3.803  28.526  50.975  1.00  0.00     0.088 C 
HETATM    2  N   UNL     1       3.486  27.689  49.916  1.00  0.00    -0.353 N 
HETATM    3  C   UNL     1       3.507  28.100  48.585  1.00  0.00     0.019 C 
HETATM    4  C   UNL     1       3.860  26.998  47.617  1.00  0.00     0.069 C 
HETATM    5  C   UNL     1       3.371  29.416  48.285  1.00  0.00     0.046 C 
HETATM    6  C   UNL     1       3.329  30.441  49.440  1.00  0.00     0.106 C 
HETATM    7  C   UNL     1       3.729  29.866  50.804  1.00  0.00     0.069 C 
HETATM    8  C   UNL     1       4.125  30.801  51.808  1.00  0.00     0.099 C 
HETATM    9  N   UNL     1       4.440  31.575  52.613  1.00  0.00    -0.192 NA
HETATM   10  H   UNL     1       3.798  26.734  50.081  1.00  0.00     0.166 HD
ENDROOT
BRANCH   1  11
HETATM   11  S   UNL     1       4.515  27.806  52.402  1.00  0.00    -0.102 SA
BRANCH  11  12
HETATM   12  C   UNL     1       5.502  26.439  51.718  1.00  0.00     0.184 C 
BRANCH  12  13
HETATM   13  C   UNL     1       5.545  25.327  52.765  1.00  0.00     0.231 C 
HETATM   14  N   UNL     1       6.838  25.013  53.161  1.00  0.00    -0.326 N 
HETATM   15  H   UNL     1       7.581  25.406  52.600  1.00  0.00     0.169 HD
HETATM   16  O   UNL     1       4.516  24.796  53.172  1.00  0.00    -0.272 OA
BRANCH  14  17
HETATM   17  C   UNL     1       7.240  24.325  54.329  1.00  0.00     0.041 A 
HETATM   18  C   UNL     1       7.765  23.018  54.214  1.00  0.00    -0.032 A 
HETATM   19  C   UNL     1       8.274  22.378  55.361  1.00  0.00     0.009 A 
HETATM   20  C   UNL     1       8.251  23.007  56.603  1.00  0.00     0.001 A 
HETATM   21  C   UNL     1       7.713  24.282  56.718  1.00  0.00     0.002 A 
HETATM   22  C   UNL     1       7.210  24.934  55.590  1.00  0.00     0.030 A 
BRANCH  18  23
HETATM   23  C   UNL     1       7.814  22.253  52.909  1.00  0.00     0.036 C 
HETATM   24  C   UNL     1       7.990  20.757  53.120  1.00  0.00     0.010 C 
ENDBRANCH  18  23
ENDBRANCH  14  17
ENDBRANCH  12  13
ENDBRANCH  11  12
ENDBRANCH   1  11
BRANCH   6  25
HETATM   25  C   UNL     1       2.025  31.231  49.539  1.00  0.00    -0.044 A 
HETATM   26  C   UNL     1       0.797  30.607  49.797  1.00  0.00     0.008 A 
HETATM   27  C   UNL     1      -0.365  31.368  49.956  1.00  0.00     0.001 A 
HETATM   28  C   UNL     1      -0.314  32.757  49.861  1.00  0.00     0.000 A 
HETATM   29  C   UNL     1       0.900  33.391  49.609  1.00  0.00     0.001 A 
HETATM   30  C   UNL     1       2.061  32.634  49.447  1.00  0.00     0.008 A 
ENDBRANCH   6  25
BRANCH   5  31
HETATM   31  C   UNL     1       3.605  30.050  46.945  1.00  0.00     0.255 C 
HETATM   32  N   UNL     1       2.645  30.386  46.044  1.00  0.00    -0.321 N 
HETATM   33  H   UNL     1       3.062  30.476  45.125  1.00  0.00     0.169 HD
HETATM   34  O   UNL     1       4.774  30.169  46.556  1.00  0.00    -0.268 OA
BRANCH  32  35
HETATM   35  C   UNL     1       1.262  30.620  46.100  1.00  0.00     0.068 A 
HETATM   36  C   UNL     1       0.271  29.637  46.189  1.00  0.00     0.095 A 
HETATM   37  C   UNL     1      -1.083  30.009  46.158  1.00  0.00     0.039 A 
HETATM   38  C   UNL     1      -1.449  31.354  46.114  1.00  0.00     0.003 A 
HETATM   39  C   UNL     1      -0.466  32.338  46.111  1.00  0.00     0.002 A 
HETATM   40  C   UNL     1       0.880  31.971  46.116  1.00  0.00     0.032 A 
BRANCH  36  41
HETATM   41  O   UNL     1       0.636  28.328  46.353  1.00  0.00    -0.354 OA
HETATM   42  C   UNL     1      -0.241  27.431  45.668  1.00  0.00     0.210 C 
ENDBRANCH  36  41
ENDBRANCH  32  35
ENDBRANCH   5  31
TORSDOF 9
ENDMDL
