MODEL 1
REMARK VINA RESULT:      -8.8      0.000      0.000
REMARK  3 active torsions:
REMARK  status: ('A' for Active; 'I' for Inactive)
REMARK    1  A    between atoms: C_4  and  N_5 
REMARK       I    between atoms: N_5  and  C_6 
REMARK    2  A    between atoms: C_6  and  C_7 
REMARK    3  A    between atoms: C_7  and  C_8 
ROOT
HETATM    1  C   UNL     1       6.211  25.873  56.322  1.00  0.00     0.286 C 
HETATM    2  N   UNL     1       6.396  25.479  54.849  1.00  0.00    -0.056 N 
HETATM    3  H   UNL     1       5.492  25.565  54.352  1.00  0.00     0.278 HD
HETATM    4  H   UNL     1       7.008  26.168  54.389  1.00  0.00     0.278 HD
HETATM    5  C   UNL     1       6.968  24.097  54.742  1.00  0.00     0.209 C 
HETATM    6  C   UNL     1       8.374  24.127  55.381  1.00  0.00     0.115 C 
HETATM    7  N   UNL     1       8.328  24.626  56.754  1.00  0.00    -0.353 N 
HETATM    8  C   UNL     1       7.502  25.659  57.147  1.00  0.00     0.249 C 
HETATM    9  O   UNL     1       7.761  26.302  58.158  1.00  0.00    -0.271 OA
HETATM   10  C   UNL     1       7.018  23.646  53.289  1.00  0.00     0.035 C 
HETATM   11  C   UNL     1       7.646  22.255  53.210  1.00  0.00     0.002 C 
HETATM   12  C   UNL     1       9.035  22.221  53.853  1.00  0.00     0.002 C 
HETATM   13  C   UNL     1       9.031  22.748  55.290  1.00  0.00     0.027 C 
HETATM   14  H   UNL     1       9.176  24.566  57.316  1.00  0.00     0.163 HD
ENDROOT
BRANCH   1  15
HETATM   15  C   UNL     1       5.722  27.314  56.416  1.00  0.00     0.146 C 
BRANCH  15  16
HETATM   16  C   UNL     1       6.203  28.038  55.194  1.00  0.00     0.224 C 
HETATM   17  N   UNL     1       7.230  28.919  55.176  1.00  0.00    -0.327 N 
HETATM   18  H   UNL     1       7.260  29.424  54.293  1.00  0.00     0.169 HD
HETATM   19  O   UNL     1       5.460  28.006  54.201  1.00  0.00    -0.273 OA
BRANCH  17  20
HETATM   20  C   UNL     1       8.195  29.330  56.111  1.00  0.00     0.035 A 
HETATM   21  C   UNL     1       7.946  29.700  57.432  1.00  0.00     0.036 A 
HETATM   22  C   UNL     1       8.996  30.106  58.276  1.00  0.00    -0.060 A 
HETATM   23  C   UNL     1       8.737  30.434  59.720  1.00  0.00     0.048 C 
HETATM   24  C   UNL     1      10.307  30.115  57.791  1.00  0.00     0.007 A 
HETATM   25  C   UNL     1      10.571  29.718  56.485  1.00  0.00     0.003 A 
HETATM   26  C   UNL     1       9.523  29.317  55.657  1.00  0.00     0.029 A 
ENDBRANCH  17  20
ENDBRANCH  15  16
ENDBRANCH   1  15
TORSDOF 3
ENDMDL
MODEL 2
REMARK VINA RESULT:      -8.8      2.839      4.862
REMARK  3 active torsions:
REMARK  status: ('A' for Active; 'I' for Inactive)
REMARK    1  A    between atoms: C_4  and  N_5 
REMARK       I    between atoms: N_5  and  C_6 
REMARK    2  A    between atoms: C_6  and  C_7 
REMARK    3  A    between atoms: C_7  and  C_8 
ROOT
HETATM    1  C   UNL     1       6.980  25.136  55.994  1.00  0.00     0.286 C 
HETATM    2  N   UNL     1       7.443  24.318  54.780  1.00  0.00    -0.056 N 
HETATM    3  H   UNL     1       6.827  24.516  53.973  1.00  0.00     0.278 HD
HETATM    4  H   UNL     1       8.372  24.650  54.482  1.00  0.00     0.278 HD
HETATM    5  C   UNL     1       7.478  22.856  55.114  1.00  0.00     0.209 C 
HETATM    6  C   UNL     1       8.536  22.659  56.222  1.00  0.00     0.115 C 
HETATM    7  N   UNL     1       8.265  23.508  57.380  1.00  0.00    -0.353 N 
HETATM    8  C   UNL     1       7.792  24.799  57.267  1.00  0.00     0.249 C 
HETATM    9  O   UNL     1       7.950  25.594  58.186  1.00  0.00    -0.271 OA
HETATM   10  C   UNL     1       7.796  22.029  53.876  1.00  0.00     0.035 C 
HETATM   11  C   UNL     1       7.869  20.550  54.258  1.00  0.00     0.002 C 
HETATM   12  C   UNL     1       8.888  20.301  55.373  1.00  0.00     0.002 C 
HETATM   13  C   UNL     1       8.643  21.181  56.601  1.00  0.00     0.027 C 
HETATM   14  H   UNL     1       8.821  23.365  58.222  1.00  0.00     0.163 HD
ENDROOT
BRANCH   1  15
HETATM   15  C   UNL     1       7.042  26.625  55.671  1.00  0.00     0.146 C 
BRANCH  15  16
HETATM   16  C   UNL     1       5.644  27.162  55.735  1.00  0.00     0.224 C 
HETATM   17  N   UNL     1       4.826  27.310  54.667  1.00  0.00    -0.327 N 
HETATM   18  H   UNL     1       4.006  27.861  54.911  1.00  0.00     0.169 HD
HETATM   19  O   UNL     1       5.314  27.727  56.789  1.00  0.00    -0.273 OA
BRANCH  17  20
HETATM   20  C   UNL     1       4.894  26.941  53.313  1.00  0.00     0.035 A 
HETATM   21  C   UNL     1       5.076  27.811  52.238  1.00  0.00     0.036 A 
HETATM   22  C   UNL     1       5.118  27.325  50.918  1.00  0.00    -0.060 A 
HETATM   23  C   UNL     1       5.388  28.253  49.767  1.00  0.00     0.048 C 
HETATM   24  C   UNL     1       5.000  25.952  50.684  1.00  0.00     0.007 A 
HETATM   25  C   UNL     1       4.849  25.072  51.750  1.00  0.00     0.003 A 
HETATM   26  C   UNL     1       4.810  25.565  53.054  1.00  0.00     0.029 A 
ENDBRANCH  17  20
ENDBRANCH  15  16
ENDBRANCH   1  15
TORSDOF 3
ENDMDL
MODEL 3
REMARK VINA RESULT:      -8.7      2.699      6.246
REMARK  3 active torsions:
REMARK  status: ('A' for Active; 'I' for Inactive)
REMARK    1  A    between atoms: C_4  and  N_5 
REMARK       I    between atoms: N_5  and  C_6 
REMARK    2  A    between atoms: C_6  and  C_7 
REMARK    3  A    between atoms: C_7  and  C_8 
ROOT
HETATM    1  C   UNL     1       6.530  26.098  55.515  1.00  0.00     0.286 C 
HETATM    2  N   UNL     1       5.669  25.389  54.458  1.00  0.00    -0.056 N 
HETATM    3  H   UNL     1       5.931  24.389  54.412  1.00  0.00     0.278 HD
HETATM    4  H   UNL     1       4.687  25.384  54.769  1.00  0.00     0.278 HD
HETATM    5  C   UNL     1       5.807  26.068  53.128  1.00  0.00     0.209 C 
HETATM    6  C   UNL     1       5.248  27.501  53.279  1.00  0.00     0.115 C 
HETATM    7  N   UNL     1       5.909  28.222  54.364  1.00  0.00    -0.353 N 
HETATM    8  C   UNL     1       6.265  27.621  55.554  1.00  0.00     0.249 C 
HETATM    9  O   UNL     1       6.440  28.302  56.558  1.00  0.00    -0.271 OA
HETATM   10  C   UNL     1       5.073  25.287  52.047  1.00  0.00     0.035 C 
HETATM   11  C   UNL     1       5.194  26.028  50.714  1.00  0.00     0.002 C 
HETATM   12  C   UNL     1       4.676  27.465  50.814  1.00  0.00     0.002 C 
HETATM   13  C   UNL     1       5.337  28.251  51.949  1.00  0.00     0.027 C 
HETATM   14  H   UNL     1       5.714  29.217  54.470  1.00  0.00     0.163 HD
ENDROOT
BRANCH   1  15
HETATM   15  C   UNL     1       6.305  25.458  56.880  1.00  0.00     0.146 C 
BRANCH  15  16
HETATM   16  C   UNL     1       7.652  25.194  57.485  1.00  0.00     0.224 C 
HETATM   17  N   UNL     1       8.371  24.063  57.299  1.00  0.00    -0.327 N 
HETATM   18  H   UNL     1       9.156  24.021  57.946  1.00  0.00     0.169 HD
HETATM   19  O   UNL     1       8.009  25.954  58.399  1.00  0.00    -0.273 OA
BRANCH  17  20
HETATM   20  C   UNL     1       8.235  22.930  56.480  1.00  0.00     0.035 A 
HETATM   21  C   UNL     1       8.134  22.935  55.089  1.00  0.00     0.036 A 
HETATM   22  C   UNL     1       7.991  21.732  54.373  1.00  0.00    -0.060 A 
HETATM   23  C   UNL     1       7.956  21.732  52.871  1.00  0.00     0.048 C 
HETATM   24  C   UNL     1       7.974  20.516  55.063  1.00  0.00     0.007 A 
HETATM   25  C   UNL     1       8.104  20.497  56.447  1.00  0.00     0.003 A 
HETATM   26  C   UNL     1       8.247  21.695  57.146  1.00  0.00     0.029 A 
ENDBRANCH  17  20
ENDBRANCH  15  16
ENDBRANCH   1  15
TORSDOF 3
ENDMDL
MODEL 4
REMARK VINA RESULT:      -8.6      3.731      6.737
REMARK  3 active torsions:
REMARK  status: ('A' for Active; 'I' for Inactive)
REMARK    1  A    between atoms: C_4  and  N_5 
REMARK       I    between atoms: N_5  and  C_6 
REMARK    2  A    between atoms: C_6  and  C_7 
REMARK    3  A    between atoms: C_7  and  C_8 
ROOT
HETATM    1  C   UNL     1       4.878  26.962  52.874  1.00  0.00     0.286 C 
HETATM    2  N   UNL     1       5.561  27.903  51.870  1.00  0.00    -0.056 N 
HETATM    3  H   UNL     1       5.588  28.862  52.258  1.00  0.00     0.278 HD
HETATM    4  H   UNL     1       6.551  27.636  51.775  1.00  0.00     0.278 HD
HETATM    5  C   UNL     1       4.862  27.853  50.544  1.00  0.00     0.209 C 
HETATM    6  C   UNL     1       5.015  26.418  49.993  1.00  0.00     0.115 C 
HETATM    7  N   UNL     1       4.520  25.423  50.943  1.00  0.00    -0.353 N 
HETATM    8  C   UNL     1       4.704  25.533  52.306  1.00  0.00     0.249 C 
HETATM    9  O   UNL     1       4.642  24.537  53.017  1.00  0.00    -0.271 OA
HETATM   10  C   UNL     1       5.442  28.888  49.591  1.00  0.00     0.035 C 
HETATM   11  C   UNL     1       4.740  28.781  48.236  1.00  0.00     0.002 C 
HETATM   12  C   UNL     1       4.840  27.369  47.655  1.00  0.00     0.002 C 
HETATM   13  C   UNL     1       4.341  26.296  48.626  1.00  0.00     0.027 C 
HETATM   14  H   UNL     1       4.450  24.455  50.633  1.00  0.00     0.163 HD
ENDROOT
BRANCH   1  15
HETATM   15  C   UNL     1       5.656  26.949  54.185  1.00  0.00     0.146 C 
BRANCH  15  16
HETATM   16  C   UNL     1       7.116  27.023  53.847  1.00  0.00     0.224 C 
HETATM   17  N   UNL     1       7.987  25.995  53.971  1.00  0.00    -0.327 N 
HETATM   18  H   UNL     1       8.947  26.318  53.867  1.00  0.00     0.169 HD
HETATM   19  O   UNL     1       7.590  28.157  53.678  1.00  0.00    -0.273 OA
BRANCH  17  20
HETATM   20  C   UNL     1       7.866  24.629  54.274  1.00  0.00     0.035 A 
HETATM   21  C   UNL     1       7.952  23.578  53.361  1.00  0.00     0.036 A 
HETATM   22  C   UNL     1       7.804  22.244  53.781  1.00  0.00    -0.060 A 
HETATM   23  C   UNL     1       7.969  21.110  52.810  1.00  0.00     0.048 C 
HETATM   24  C   UNL     1       7.592  21.967  55.136  1.00  0.00     0.007 A 
HETATM   25  C   UNL     1       7.536  23.004  56.060  1.00  0.00     0.003 A 
HETATM   26  C   UNL     1       7.685  24.323  55.632  1.00  0.00     0.029 A 
ENDBRANCH  17  20
ENDBRANCH  15  16
ENDBRANCH   1  15
TORSDOF 3
ENDMDL
MODEL 5
REMARK VINA RESULT:      -8.4      1.904      7.396
REMARK  3 active torsions:
REMARK  status: ('A' for Active; 'I' for Inactive)
REMARK    1  A    between atoms: C_4  and  N_5 
REMARK       I    between atoms: N_5  and  C_6 
REMARK    2  A    between atoms: C_6  and  C_7 
REMARK    3  A    between atoms: C_7  and  C_8 
ROOT
HETATM    1  C   UNL     1       7.296  28.267  57.819  1.00  0.00     0.286 C 
HETATM    2  N   UNL     1       8.531  29.102  58.188  1.00  0.00    -0.056 N 
HETATM    3  H   UNL     1       9.303  28.472  58.469  1.00  0.00     0.278 HD
HETATM    4  H   UNL     1       8.882  29.578  57.345  1.00  0.00     0.278 HD
HETATM    5  C   UNL     1       8.194  30.091  59.263  1.00  0.00     0.209 C 
HETATM    6  C   UNL     1       7.147  31.067  58.682  1.00  0.00     0.115 C 
HETATM    7  N   UNL     1       5.978  30.356  58.167  1.00  0.00    -0.353 N 
HETATM    8  C   UNL     1       6.070  29.154  57.497  1.00  0.00     0.249 C 
HETATM    9  O   UNL     1       5.164  28.793  56.754  1.00  0.00    -0.271 OA
HETATM   10  C   UNL     1       9.444  30.820  59.734  1.00  0.00     0.035 C 
HETATM   11  C   UNL     1       9.061  31.853  60.796  1.00  0.00     0.002 C 
HETATM   12  C   UNL     1       8.005  32.833  60.279  1.00  0.00     0.002 C 
HETATM   13  C   UNL     1       6.768  32.125  59.721  1.00  0.00     0.027 C 
HETATM   14  H   UNL     1       5.169  30.905  57.881  1.00  0.00     0.163 HD
ENDROOT
BRANCH   1  15
HETATM   15  C   UNL     1       7.628  27.334  56.660  1.00  0.00     0.146 C 
BRANCH  15  16
HETATM   16  C   UNL     1       7.872  25.968  57.232  1.00  0.00     0.224 C 
HETATM   17  N   UNL     1       7.681  24.808  56.562  1.00  0.00    -0.327 N 
HETATM   18  H   UNL     1       7.725  24.012  57.194  1.00  0.00     0.169 HD
HETATM   19  O   UNL     1       8.022  25.900  58.462  1.00  0.00    -0.273 OA
BRANCH  17  20
HETATM   20  C   UNL     1       7.371  24.475  55.233  1.00  0.00     0.035 A 
HETATM   21  C   UNL     1       6.221  24.856  54.542  1.00  0.00     0.036 A 
HETATM   22  C   UNL     1       6.014  24.452  53.210  1.00  0.00    -0.060 A 
HETATM   23  C   UNL     1       4.811  24.924  52.443  1.00  0.00     0.048 C 
HETATM   24  C   UNL     1       6.984  23.679  52.565  1.00  0.00     0.007 A 
HETATM   25  C   UNL     1       8.148  23.319  53.234  1.00  0.00     0.003 A 
HETATM   26  C   UNL     1       8.344  23.726  54.553  1.00  0.00     0.029 A 
ENDBRANCH  17  20
ENDBRANCH  15  16
ENDBRANCH   1  15
TORSDOF 3
ENDMDL
MODEL 6
REMARK VINA RESULT:      -8.3      3.484      6.920
REMARK  3 active torsions:
REMARK  status: ('A' for Active; 'I' for Inactive)
REMARK    1  A    between atoms: C_4  and  N_5 
REMARK       I    between atoms: N_5  and  C_6 
REMARK    2  A    between atoms: C_6  and  C_7 
REMARK    3  A    between atoms: C_7  and  C_8 
ROOT
HETATM    1  C   UNL     1       5.588  26.251  54.286  1.00  0.00     0.286 C 
HETATM    2  N   UNL     1       4.530  27.205  53.711  1.00  0.00    -0.056 N 
HETATM    3  H   UNL     1       4.669  27.301  52.691  1.00  0.00     0.278 HD
HETATM    4  H   UNL     1       3.599  26.775  53.805  1.00  0.00     0.278 HD
HETATM    5  C   UNL     1       4.582  28.530  54.412  1.00  0.00     0.209 C 
HETATM    6  C   UNL     1       4.212  28.286  55.892  1.00  0.00     0.115 C 
HETATM    7  N   UNL     1       5.078  27.278  56.502  1.00  0.00    -0.353 N 
HETATM    8  C   UNL     1       5.505  26.153  55.828  1.00  0.00     0.249 C 
HETATM    9  O   UNL     1       5.877  25.166  56.453  1.00  0.00    -0.271 OA
HETATM   10  C   UNL     1       3.638  29.525  53.752  1.00  0.00     0.035 C 
HETATM   11  C   UNL     1       3.680  30.849  54.517  1.00  0.00     0.002 C 
HETATM   12  C   UNL     1       3.345  30.660  55.998  1.00  0.00     0.002 C 
HETATM   13  C   UNL     1       4.224  29.603  56.670  1.00  0.00     0.027 C 
HETATM   14  H   UNL     1       5.012  27.132  57.508  1.00  0.00     0.163 HD
ENDROOT
BRANCH   1  15
HETATM   15  C   UNL     1       5.459  24.880  53.632  1.00  0.00     0.146 C 
BRANCH  15  16
HETATM   16  C   UNL     1       6.560  24.754  52.622  1.00  0.00     0.224 C 
HETATM   17  N   UNL     1       7.552  23.835  52.675  1.00  0.00    -0.327 N 
HETATM   18  H   UNL     1       8.284  24.051  52.001  1.00  0.00     0.169 HD
HETATM   19  O   UNL     1       6.700  25.700  51.831  1.00  0.00    -0.273 OA
BRANCH  17  20
HETATM   20  C   UNL     1       7.822  22.719  53.485  1.00  0.00     0.035 A 
HETATM   21  C   UNL     1       7.958  22.730  54.873  1.00  0.00     0.036 A 
HETATM   22  C   UNL     1       8.239  21.547  55.578  1.00  0.00    -0.060 A 
HETATM   23  C   UNL     1       8.312  21.546  57.079  1.00  0.00     0.048 C 
HETATM   24  C   UNL     1       8.360  20.340  54.882  1.00  0.00     0.007 A 
HETATM   25  C   UNL     1       8.197  20.312  53.501  1.00  0.00     0.003 A 
HETATM   26  C   UNL     1       7.917  21.491  52.812  1.00  0.00     0.029 A 
ENDBRANCH  17  20
ENDBRANCH  15  16
ENDBRANCH   1  15
TORSDOF 3
ENDMDL
MODEL 7
REMARK VINA RESULT:      -8.3      3.047      6.994
REMARK  3 active torsions:
REMARK  status: ('A' for Active; 'I' for Inactive)
REMARK    1  A    between atoms: C_4  and  N_5 
REMARK       I    between atoms: N_5  and  C_6 
REMARK    2  A    between atoms: C_6  and  C_7 
REMARK    3  A    between atoms: C_7  and  C_8 
ROOT
HETATM    1  C   UNL     1       5.235  25.882  56.352  1.00  0.00     0.286 C 
HETATM    2  N   UNL     1       5.390  27.340  56.811  1.00  0.00    -0.056 N 
HETATM    3  H   UNL     1       5.254  27.396  57.836  1.00  0.00     0.278 HD
HETATM    4  H   UNL     1       6.365  27.639  56.665  1.00  0.00     0.278 HD
HETATM    5  C   UNL     1       4.439  28.229  56.068  1.00  0.00     0.209 C 
HETATM    6  C   UNL     1       4.831  28.183  54.575  1.00  0.00     0.115 C 
HETATM    7  N   UNL     1       4.853  26.812  54.068  1.00  0.00    -0.353 N 
HETATM    8  C   UNL     1       5.316  25.746  54.813  1.00  0.00     0.249 C 
HETATM    9  O   UNL     1       5.687  24.721  54.253  1.00  0.00    -0.271 OA
HETATM   10  C   UNL     1       4.485  29.646  56.620  1.00  0.00     0.035 C 
HETATM   11  C   UNL     1       3.539  30.537  55.813  1.00  0.00     0.002 C 
HETATM   12  C   UNL     1       3.869  30.509  54.319  1.00  0.00     0.002 C 
HETATM   13  C   UNL     1       3.912  29.087  53.753  1.00  0.00     0.027 C 
HETATM   14  H   UNL     1       4.970  26.671  53.066  1.00  0.00     0.163 HD
ENDROOT
BRANCH   1  15
HETATM   15  C   UNL     1       6.274  25.007  57.044  1.00  0.00     0.146 C 
BRANCH  15  16
HETATM   16  C   UNL     1       7.612  25.336  56.452  1.00  0.00     0.224 C 
HETATM   17  N   UNL     1       8.464  24.427  55.923  1.00  0.00    -0.327 N 
HETATM   18  H   UNL     1       9.379  24.842  55.755  1.00  0.00     0.169 HD
HETATM   19  O   UNL     1       8.058  26.470  56.683  1.00  0.00    -0.273 OA
BRANCH  17  20
HETATM   20  C   UNL     1       8.388  23.055  55.630  1.00  0.00     0.035 A 
HETATM   21  C   UNL     1       8.318  22.495  54.355  1.00  0.00     0.036 A 
HETATM   22  C   UNL     1       8.234  21.102  54.184  1.00  0.00    -0.060 A 
HETATM   23  C   UNL     1       8.233  20.495  52.809  1.00  0.00     0.048 C 
HETATM   24  C   UNL     1       8.247  20.267  55.306  1.00  0.00     0.007 A 
HETATM   25  C   UNL     1       8.347  20.812  56.581  1.00  0.00     0.003 A 
HETATM   26  C   UNL     1       8.431  22.195  56.738  1.00  0.00     0.029 A 
ENDBRANCH  17  20
ENDBRANCH  15  16
ENDBRANCH   1  15
TORSDOF 3
ENDMDL
MODEL 8
REMARK VINA RESULT:      -8.2      4.264      7.538
REMARK  3 active torsions:
REMARK  status: ('A' for Active; 'I' for Inactive)
REMARK    1  A    between atoms: C_4  and  N_5 
REMARK       I    between atoms: N_5  and  C_6 
REMARK    2  A    between atoms: C_6  and  C_7 
REMARK    3  A    between atoms: C_7  and  C_8 
ROOT
HETATM    1  C   UNL     1       5.731  26.713  51.753  1.00  0.00     0.286 C 
HETATM    2  N   UNL     1       5.501  26.376  50.272  1.00  0.00    -0.056 N 
HETATM    3  H   UNL     1       6.365  25.969  49.872  1.00  0.00     0.278 HD
HETATM    4  H   UNL     1       4.804  25.621  50.201  1.00  0.00     0.278 HD
HETATM    5  C   UNL     1       5.053  27.593  49.519  1.00  0.00     0.209 C 
HETATM    6  C   UNL     1       3.688  28.021  50.101  1.00  0.00     0.115 C 
HETATM    7  N   UNL     1       3.763  28.232  51.545  1.00  0.00    -0.353 N 
HETATM    8  C   UNL     1       4.512  27.430  52.381  1.00  0.00     0.249 C 
HETATM    9  O   UNL     1       4.252  27.376  53.578  1.00  0.00    -0.271 OA
HETATM   10  C   UNL     1       4.965  27.301  48.028  1.00  0.00     0.035 C 
HETATM   11  C   UNL     1       4.462  28.546  47.296  1.00  0.00     0.002 C 
HETATM   12  C   UNL     1       3.120  29.029  47.851  1.00  0.00     0.002 C 
HETATM   13  C   UNL     1       3.155  29.251  49.365  1.00  0.00     0.027 C 
HETATM   14  H   UNL     1       2.957  28.643  52.014  1.00  0.00     0.163 HD
ENDROOT
BRANCH   1  15
HETATM   15  C   UNL     1       6.091  25.448  52.523  1.00  0.00     0.146 C 
BRANCH  15  16
HETATM   16  C   UNL     1       7.365  25.717  53.268  1.00  0.00     0.224 C 
HETATM   17  N   UNL     1       8.089  24.777  53.920  1.00  0.00    -0.327 N 
HETATM   18  H   UNL     1       8.801  25.209  54.505  1.00  0.00     0.169 HD
HETATM   19  O   UNL     1       7.632  26.906  53.499  1.00  0.00    -0.273 OA
BRANCH  17  20
HETATM   20  C   UNL     1       8.028  23.378  54.020  1.00  0.00     0.035 A 
HETATM   21  C   UNL     1       7.982  22.645  55.206  1.00  0.00     0.036 A 
HETATM   22  C   UNL     1       7.932  21.239  55.182  1.00  0.00    -0.060 A 
HETATM   23  C   UNL     1       7.809  20.454  56.457  1.00  0.00     0.048 C 
HETATM   24  C   UNL     1       7.904  20.570  53.955  1.00  0.00     0.007 A 
HETATM   25  C   UNL     1       7.918  21.291  52.766  1.00  0.00     0.003 A 
HETATM   26  C   UNL     1       7.966  22.685  52.801  1.00  0.00     0.029 A 
ENDBRANCH  17  20
ENDBRANCH  15  16
ENDBRANCH   1  15
TORSDOF 3
ENDMDL
MODEL 9
REMARK VINA RESULT:      -8.1      2.174      6.862
REMARK  3 active torsions:
REMARK  status: ('A' for Active; 'I' for Inactive)
REMARK    1  A    between atoms: C_4  and  N_5 
REMARK       I    between atoms: N_5  and  C_6 
REMARK    2  A    between atoms: C_6  and  C_7 
REMARK    3  A    between atoms: C_7  and  C_8 
ROOT
HETATM    1  C   UNL     1       6.830  26.741  55.914  1.00  0.00     0.286 C 
HETATM    2  N   UNL     1       5.611  27.668  55.795  1.00  0.00    -0.056 N 
HETATM    3  H   UNL     1       5.201  27.581  54.850  1.00  0.00     0.278 HD
HETATM    4  H   UNL     1       4.870  27.336  56.429  1.00  0.00     0.278 HD
HETATM    5  C   UNL     1       5.994  29.083  56.113  1.00  0.00     0.209 C 
HETATM    6  C   UNL     1       6.447  29.120  57.590  1.00  0.00     0.115 C 
HETATM    7  N   UNL     1       7.521  28.161  57.846  1.00  0.00    -0.353 N 
HETATM    8  C   UNL     1       7.558  26.909  57.269  1.00  0.00     0.249 C 
HETATM    9  O   UNL     1       8.217  26.013  57.787  1.00  0.00    -0.271 OA
HETATM   10  C   UNL     1       4.828  30.027  55.857  1.00  0.00     0.035 C 
HETATM   11  C   UNL     1       5.236  31.452  56.233  1.00  0.00     0.002 C 
HETATM   12  C   UNL     1       5.717  31.541  57.683  1.00  0.00     0.002 C 
HETATM   13  C   UNL     1       6.836  30.543  57.994  1.00  0.00     0.027 C 
HETATM   14  H   UNL     1       7.986  28.191  58.751  1.00  0.00     0.163 HD
ENDROOT
BRANCH   1  15
HETATM   15  C   UNL     1       6.406  25.295  55.684  1.00  0.00     0.146 C 
BRANCH  15  16
HETATM   16  C   UNL     1       6.319  25.078  54.203  1.00  0.00     0.224 C 
HETATM   17  N   UNL     1       6.837  24.012  53.549  1.00  0.00    -0.327 N 
HETATM   18  H   UNL     1       6.826  24.164  52.542  1.00  0.00     0.169 HD
HETATM   19  O   UNL     1       5.965  26.051  53.519  1.00  0.00    -0.273 OA
BRANCH  17  20
HETATM   20  C   UNL     1       7.437  22.806  53.946  1.00  0.00     0.035 A 
HETATM   21  C   UNL     1       7.672  22.406  55.261  1.00  0.00     0.036 A 
HETATM   22  C   UNL     1       8.293  21.174  55.539  1.00  0.00    -0.060 A 
HETATM   23  C   UNL     1       8.480  20.711  56.956  1.00  0.00     0.048 C 
HETATM   24  C   UNL     1       8.654  20.330  54.484  1.00  0.00     0.007 A 
HETATM   25  C   UNL     1       8.396  20.705  53.170  1.00  0.00     0.003 A 
HETATM   26  C   UNL     1       7.780  21.928  52.907  1.00  0.00     0.029 A 
ENDBRANCH  17  20
ENDBRANCH  15  16
ENDBRANCH   1  15
TORSDOF 3
ENDMDL
MODEL 10
REMARK VINA RESULT:      -8.0      4.670      7.252
REMARK  3 active torsions:
REMARK  status: ('A' for Active; 'I' for Inactive)
REMARK    1  A    between atoms: C_4  and  N_5 
REMARK       I    between atoms: N_5  and  C_6 
REMARK    2  A    between atoms: C_6  and  C_7 
REMARK    3  A    between atoms: C_7  and  C_8 
ROOT
HETATM    1  C   UNL     1       5.501  27.787  50.851  1.00  0.00     0.286 C 
HETATM    2  N   UNL     1       4.678  26.547  50.469  1.00  0.00    -0.056 N 
HETATM    3  H   UNL     1       5.246  25.695  50.618  1.00  0.00     0.278 HD
HETATM    4  H   UNL     1       3.890  26.449  51.126  1.00  0.00     0.278 HD
HETATM    5  C   UNL     1       4.189  26.657  49.056  1.00  0.00     0.209 C 
HETATM    6  C   UNL     1       3.235  27.870  48.988  1.00  0.00     0.115 C 
HETATM    7  N   UNL     1       3.883  29.089  49.469  1.00  0.00    -0.353 N 
HETATM    8  C   UNL     1       4.747  29.102  50.544  1.00  0.00     0.249 C 
HETATM    9  O   UNL     1       4.952  30.145  51.155  1.00  0.00    -0.271 OA
HETATM   10  C   UNL     1       3.497  25.371  48.625  1.00  0.00     0.035 C 
HETATM   11  C   UNL     1       2.971  25.531  47.198  1.00  0.00     0.002 C 
HETATM   12  C   UNL     1       2.038  26.737  47.068  1.00  0.00     0.002 C 
HETATM   13  C   UNL     1       2.677  28.033  47.573  1.00  0.00     0.027 C 
HETATM   14  H   UNL     1       3.394  29.974  49.347  1.00  0.00     0.163 HD
ENDROOT
BRANCH   1  15
HETATM   15  C   UNL     1       5.909  27.707  52.318  1.00  0.00     0.146 C 
BRANCH  15  16
HETATM   16  C   UNL     1       4.793  27.037  53.063  1.00  0.00     0.224 C 
HETATM   17  N   UNL     1       4.885  25.828  53.664  1.00  0.00    -0.327 N 
HETATM   18  H   UNL     1       3.966  25.490  53.942  1.00  0.00     0.169 HD
HETATM   19  O   UNL     1       3.657  27.513  52.908  1.00  0.00    -0.273 OA
BRANCH  17  20
HETATM   20  C   UNL     1       5.933  24.928  53.915  1.00  0.00     0.035 A 
HETATM   21  C   UNL     1       6.499  24.661  55.162  1.00  0.00     0.036 A 
HETATM   22  C   UNL     1       7.557  23.742  55.291  1.00  0.00    -0.060 A 
HETATM   23  C   UNL     1       8.116  23.400  56.643  1.00  0.00     0.048 C 
HETATM   24  C   UNL     1       8.030  23.071  54.159  1.00  0.00     0.007 A 
HETATM   25  C   UNL     1       7.453  23.306  52.916  1.00  0.00     0.003 A 
HETATM   26  C   UNL     1       6.404  24.218  52.800  1.00  0.00     0.029 A 
ENDBRANCH  17  20
ENDBRANCH  15  16
ENDBRANCH   1  15
TORSDOF 3
ENDMDL
