MODEL 1
REMARK VINA RESULT:     -10.4      0.000      0.000
REMARK  3 active torsions:
REMARK  status: ('A' for Active; 'I' for Inactive)
REMARK    1  A    between atoms: C_3  and  C_4 
REMARK    2  A    between atoms: C_8  and  C_9 
REMARK       I    between atoms: C_9  and  N_10 
REMARK    3  A    between atoms: N_10  and  N_11 
ROOT
HETATM    1  C   UNL     1       8.800  29.337  56.821  1.00  0.00     0.289 C 
HETATM    2  N   UNL     1       7.705  28.498  56.696  1.00  0.00    -0.241 N 
HETATM    3  O   UNL     1       9.770  29.323  56.065  1.00  0.00    -0.264 OA
HETATM    4  H   UNL     1       6.941  28.538  57.369  1.00  0.00     0.192 HD
ENDROOT
BRANCH   1   5
HETATM    5  C   UNL     1       8.737  30.252  57.933  1.00  0.00     0.121 A 
HETATM    6  N   UNL     1       9.669  31.238  58.088  1.00  0.00    -0.272 N 
HETATM    7  N   UNL     1       9.476  32.016  59.164  1.00  0.00    -0.174 NA
HETATM    8  H   UNL     1      10.458  31.427  57.476  1.00  0.00     0.189 HD
HETATM    9  C   UNL     1       8.388  31.502  59.760  1.00  0.00     0.091 A 
HETATM   10  C   UNL     1       7.879  30.409  59.003  1.00  0.00     0.071 A 
BRANCH   9  11
HETATM   11  C   UNL     1       7.851  32.099  60.985  1.00  0.00     0.016 A 
HETATM   12  C   UNL     1       8.614  31.985  62.164  1.00  0.00     0.015 A 
HETATM   13  C   UNL     1       8.172  32.537  63.369  1.00  0.00     0.001 A 
HETATM   14  C   UNL     1       6.957  33.211  63.418  1.00  0.00     0.002 A 
HETATM   15  C   UNL     1       6.182  33.325  62.263  1.00  0.00     0.025 A 
HETATM   16  C   UNL     1       6.619  32.770  61.052  1.00  0.00     0.046 A 
HETATM   17 CL   UNL     1       5.545  32.921  59.703  1.00  0.00    -0.083 Cl
ENDBRANCH   9  11
ENDBRANCH   1   5
BRANCH   2  18
HETATM   18  N   UNL     1       7.654  27.567  55.694  1.00  0.00    -0.165 NA
HETATM   19  C   UNL     1       7.657  26.325  56.057  1.00  0.00     0.157 A 
HETATM   20  C   UNL     1       7.707  25.747  57.475  1.00  0.00     0.277 A 
HETATM   21  C   UNL     1       7.616  25.177  55.160  1.00  0.00     0.027 A 
HETATM   22  O   UNL     1       7.743  26.411  58.489  1.00  0.00    -0.266 OA
HETATM   23  N   UNL     1       7.700  24.378  57.318  1.00  0.00    -0.321 N 
HETATM   24  C   UNL     1       7.647  24.041  55.967  1.00  0.00     0.048 A 
HETATM   25  H   UNL     1       7.729  23.729  58.090  1.00  0.00     0.169 HD
HETATM   26  C   UNL     1       7.625  22.776  55.421  1.00  0.00     0.030 A 
HETATM   27  C   UNL     1       7.569  22.679  54.024  1.00  0.00     0.002 A 
HETATM   28  C   UNL     1       7.538  23.834  53.214  1.00  0.00     0.001 A 
HETATM   29  C   UNL     1       7.561  25.109  53.783  1.00  0.00     0.016 A 
ENDBRANCH   2  18
TORSDOF 3
ENDMDL
MODEL 2
REMARK VINA RESULT:     -10.0      2.307      3.194
REMARK  3 active torsions:
REMARK  status: ('A' for Active; 'I' for Inactive)
REMARK    1  A    between atoms: C_3  and  C_4 
REMARK    2  A    between atoms: C_8  and  C_9 
REMARK       I    between atoms: C_9  and  N_10 
REMARK    3  A    between atoms: N_10  and  N_11 
ROOT
HETATM    1  C   UNL     1       7.466  27.460  54.792  1.00  0.00     0.289 C 
HETATM    2  N   UNL     1       7.354  26.204  55.365  1.00  0.00    -0.241 N 
HETATM    3  O   UNL     1       7.639  27.658  53.592  1.00  0.00    -0.264 OA
HETATM    4  H   UNL     1       7.237  26.101  56.372  1.00  0.00     0.192 HD
ENDROOT
BRANCH   1   5
HETATM    5  C   UNL     1       7.374  28.558  55.722  1.00  0.00     0.121 A 
HETATM    6  N   UNL     1       6.428  29.532  55.571  1.00  0.00    -0.272 N 
HETATM    7  N   UNL     1       6.460  30.483  56.515  1.00  0.00    -0.174 NA
HETATM    8  H   UNL     1       5.729  29.586  54.836  1.00  0.00     0.189 HD
HETATM    9  C   UNL     1       7.489  30.138  57.307  1.00  0.00     0.091 A 
HETATM   10  C   UNL     1       8.072  28.920  56.856  1.00  0.00     0.071 A 
BRANCH   9  11
HETATM   11  C   UNL     1       7.839  30.946  58.478  1.00  0.00     0.016 A 
HETATM   12  C   UNL     1       6.799  31.343  59.340  1.00  0.00     0.015 A 
HETATM   13  C   UNL     1       7.055  32.105  60.482  1.00  0.00     0.001 A 
HETATM   14  C   UNL     1       8.359  32.487  60.782  1.00  0.00     0.002 A 
HETATM   15  C   UNL     1       9.402  32.113  59.933  1.00  0.00     0.025 A 
HETATM   16  C   UNL     1       9.148  31.350  58.785  1.00  0.00     0.046 A 
HETATM   17 CL   UNL     1      10.512  30.999  57.778  1.00  0.00    -0.083 Cl
ENDBRANCH   9  11
ENDBRANCH   1   5
BRANCH   2  18
HETATM   18  N   UNL     1       7.448  25.078  54.593  1.00  0.00    -0.165 NA
HETATM   19  C   UNL     1       7.820  23.993  55.193  1.00  0.00     0.157 A 
HETATM   20  C   UNL     1       8.171  23.796  56.672  1.00  0.00     0.277 A 
HETATM   21  C   UNL     1       7.993  22.690  54.565  1.00  0.00     0.027 A 
HETATM   22  O   UNL     1       8.136  24.670  57.511  1.00  0.00    -0.266 OA
HETATM   23  N   UNL     1       8.513  22.466  56.796  1.00  0.00    -0.321 N 
HETATM   24  C   UNL     1       8.410  21.817  55.569  1.00  0.00     0.048 A 
HETATM   25  H   UNL     1       8.796  22.044  57.669  1.00  0.00     0.169 HD
HETATM   26  C   UNL     1       8.669  20.490  55.300  1.00  0.00     0.030 A 
HETATM   27  C   UNL     1       8.494  20.056  53.978  1.00  0.00     0.002 A 
HETATM   28  C   UNL     1       8.071  20.946  52.968  1.00  0.00     0.001 A 
HETATM   29  C   UNL     1       7.813  22.288  53.258  1.00  0.00     0.016 A 
ENDBRANCH   2  18
TORSDOF 3
ENDMDL
MODEL 3
REMARK VINA RESULT:     -10.0      1.371      1.769
REMARK  3 active torsions:
REMARK  status: ('A' for Active; 'I' for Inactive)
REMARK    1  A    between atoms: C_3  and  C_4 
REMARK    2  A    between atoms: C_8  and  C_9 
REMARK       I    between atoms: C_9  and  N_10 
REMARK    3  A    between atoms: N_10  and  N_11 
ROOT
HETATM    1  C   UNL     1       8.964  29.494  57.317  1.00  0.00     0.289 C 
HETATM    2  N   UNL     1       8.135  28.388  57.405  1.00  0.00    -0.241 N 
HETATM    3  O   UNL     1       9.780  29.676  56.417  1.00  0.00    -0.264 OA
HETATM    4  H   UNL     1       7.495  28.280  58.190  1.00  0.00     0.192 HD
ENDROOT
BRANCH   1   5
HETATM    5  C   UNL     1       8.812  30.449  58.387  1.00  0.00     0.121 A 
HETATM    6  N   UNL     1       9.631  31.538  58.481  1.00  0.00    -0.272 N 
HETATM    7  N   UNL     1       9.365  32.340  59.523  1.00  0.00    -0.174 NA
HETATM    8  H   UNL     1      10.388  31.782  57.849  1.00  0.00     0.189 HD
HETATM    9  C   UNL     1       8.346  31.739  60.160  1.00  0.00     0.091 A 
HETATM   10  C   UNL     1       7.953  30.562  59.461  1.00  0.00     0.071 A 
BRANCH   9  11
HETATM   11  C   UNL     1       7.760  32.331  61.364  1.00  0.00     0.016 A 
HETATM   12  C   UNL     1       8.476  32.217  62.572  1.00  0.00     0.015 A 
HETATM   13  C   UNL     1       7.986  32.765  63.759  1.00  0.00     0.001 A 
HETATM   14  C   UNL     1       6.767  33.435  63.763  1.00  0.00     0.002 A 
HETATM   15  C   UNL     1       6.037  33.548  62.579  1.00  0.00     0.025 A 
HETATM   16  C   UNL     1       6.524  32.997  61.384  1.00  0.00     0.046 A 
HETATM   17 CL   UNL     1       5.502  33.148  59.995  1.00  0.00    -0.083 Cl
ENDBRANCH   9  11
ENDBRANCH   1   5
BRANCH   2  18
HETATM   18  N   UNL     1       8.198  27.397  56.462  1.00  0.00    -0.165 NA
HETATM   19  C   UNL     1       7.088  27.082  55.877  1.00  0.00     0.157 A 
HETATM   20  C   UNL     1       5.694  27.678  56.097  1.00  0.00     0.277 A 
HETATM   21  C   UNL     1       6.926  26.056  54.856  1.00  0.00     0.027 A 
HETATM   22  O   UNL     1       5.440  28.571  56.878  1.00  0.00    -0.266 OA
HETATM   23  N   UNL     1       4.859  26.993  55.241  1.00  0.00    -0.321 N 
HETATM   24  C   UNL     1       5.574  26.044  54.514  1.00  0.00     0.048 A 
HETATM   25  H   UNL     1       3.867  27.171  55.169  1.00  0.00     0.169 HD
HETATM   26  C   UNL     1       5.084  25.173  53.566  1.00  0.00     0.030 A 
HETATM   27  C   UNL     1       6.000  24.301  52.960  1.00  0.00     0.002 A 
HETATM   28  C   UNL     1       7.367  24.319  53.311  1.00  0.00     0.001 A 
HETATM   29  C   UNL     1       7.847  25.209  54.274  1.00  0.00     0.016 A 
ENDBRANCH   2  18
TORSDOF 3
ENDMDL
MODEL 4
REMARK VINA RESULT:      -9.9      8.024     10.678
REMARK  3 active torsions:
REMARK  status: ('A' for Active; 'I' for Inactive)
REMARK    1  A    between atoms: C_3  and  C_4 
REMARK    2  A    between atoms: C_8  and  C_9 
REMARK       I    between atoms: C_9  and  N_10 
REMARK    3  A    between atoms: N_10  and  N_11 
ROOT
HETATM    1  C   UNL     1       5.269  26.624  51.437  1.00  0.00     0.289 C 
HETATM    2  N   UNL     1       5.301  26.721  50.056  1.00  0.00    -0.241 N 
HETATM    3  O   UNL     1       4.581  27.337  52.164  1.00  0.00    -0.264 OA
HETATM    4  H   UNL     1       5.913  26.119  49.507  1.00  0.00     0.192 HD
ENDROOT
BRANCH   1   5
HETATM    5  C   UNL     1       6.129  25.607  51.991  1.00  0.00     0.121 A 
HETATM    6  N   UNL     1       7.477  25.627  51.772  1.00  0.00    -0.272 N 
HETATM    7  N   UNL     1       8.146  24.622  52.356  1.00  0.00    -0.174 NA
HETATM    8  H   UNL     1       7.991  26.317  51.232  1.00  0.00     0.189 HD
HETATM    9  C   UNL     1       7.195  23.892  52.962  1.00  0.00     0.091 A 
HETATM   10  C   UNL     1       5.918  24.493  52.778  1.00  0.00     0.071 A 
BRANCH   9  11
HETATM   11  C   UNL     1       7.544  22.693  53.728  1.00  0.00     0.016 A 
HETATM   12  C   UNL     1       7.895  21.531  53.012  1.00  0.00     0.015 A 
HETATM   13  C   UNL     1       8.250  20.353  53.673  1.00  0.00     0.001 A 
HETATM   14  C   UNL     1       8.256  20.312  55.063  1.00  0.00     0.002 A 
HETATM   15  C   UNL     1       7.900  21.450  55.789  1.00  0.00     0.025 A 
HETATM   16  C   UNL     1       7.541  22.634  55.131  1.00  0.00     0.046 A 
HETATM   17 CL   UNL     1       7.060  23.959  56.136  1.00  0.00    -0.083 Cl
ENDBRANCH   9  11
ENDBRANCH   1   5
BRANCH   2  18
HETATM   18  N   UNL     1       4.549  27.664  49.409  1.00  0.00    -0.165 NA
HETATM   19  C   UNL     1       3.556  27.227  48.703  1.00  0.00     0.157 A 
HETATM   20  C   UNL     1       3.102  25.779  48.492  1.00  0.00     0.277 A 
HETATM   21  C   UNL     1       2.635  28.050  47.930  1.00  0.00     0.027 A 
HETATM   22  O   UNL     1       3.633  24.810  48.990  1.00  0.00    -0.266 OA
HETATM   23  N   UNL     1       2.012  25.852  47.652  1.00  0.00    -0.321 N 
HETATM   24  C   UNL     1       1.735  27.176  47.321  1.00  0.00     0.048 A 
HETATM   25  H   UNL     1       1.499  25.042  47.333  1.00  0.00     0.169 HD
HETATM   26  C   UNL     1       0.726  27.642  46.506  1.00  0.00     0.030 A 
HETATM   27  C   UNL     1       0.641  29.029  46.318  1.00  0.00     0.002 A 
HETATM   28  C   UNL     1       1.555  29.907  46.938  1.00  0.00     0.001 A 
HETATM   29  C   UNL     1       2.573  29.418  47.760  1.00  0.00     0.016 A 
ENDBRANCH   2  18
TORSDOF 3
ENDMDL
MODEL 5
REMARK VINA RESULT:      -9.9      1.475      1.740
REMARK  3 active torsions:
REMARK  status: ('A' for Active; 'I' for Inactive)
REMARK    1  A    between atoms: C_3  and  C_4 
REMARK    2  A    between atoms: C_8  and  C_9 
REMARK       I    between atoms: C_9  and  N_10 
REMARK    3  A    between atoms: N_10  and  N_11 
ROOT
HETATM    1  C   UNL     1       7.748  29.165  56.604  1.00  0.00     0.289 C 
HETATM    2  N   UNL     1       6.955  28.030  56.622  1.00  0.00    -0.241 N 
HETATM    3  O   UNL     1       8.621  29.385  55.769  1.00  0.00    -0.264 OA
HETATM    4  H   UNL     1       6.263  27.891  57.357  1.00  0.00     0.192 HD
ENDROOT
BRANCH   1   5
HETATM    5  C   UNL     1       7.483  30.103  57.668  1.00  0.00     0.121 A 
HETATM    6  N   UNL     1       6.692  31.197  57.461  1.00  0.00    -0.272 N 
HETATM    7  N   UNL     1       6.531  31.973  58.544  1.00  0.00    -0.174 NA
HETATM    8  H   UNL     1       6.231  31.455  56.594  1.00  0.00     0.189 HD
HETATM    9  C   UNL     1       7.271  31.381  59.496  1.00  0.00     0.091 A 
HETATM   10  C   UNL     1       7.863  30.189  58.992  1.00  0.00     0.071 A 
BRANCH   9  11
HETATM   11  C   UNL     1       7.340  31.941  60.848  1.00  0.00     0.016 A 
HETATM   12  C   UNL     1       6.409  32.937  61.200  1.00  0.00     0.015 A 
HETATM   13  C   UNL     1       6.407  33.510  62.473  1.00  0.00     0.001 A 
HETATM   14  C   UNL     1       7.339  33.099  63.420  1.00  0.00     0.002 A 
HETATM   15  C   UNL     1       8.278  32.121  63.087  1.00  0.00     0.025 A 
HETATM   16  C   UNL     1       8.286  31.545  61.808  1.00  0.00     0.046 A 
HETATM   17 CL   UNL     1       9.534  30.388  61.493  1.00  0.00    -0.083 Cl
ENDBRANCH   9  11
ENDBRANCH   1   5
BRANCH   2  18
HETATM   18  N   UNL     1       7.123  27.051  55.679  1.00  0.00    -0.165 NA
HETATM   19  C   UNL     1       7.546  25.905  56.104  1.00  0.00     0.157 A 
HETATM   20  C   UNL     1       7.886  25.487  57.539  1.00  0.00     0.277 A 
HETATM   21  C   UNL     1       7.801  24.733  55.277  1.00  0.00     0.027 A 
HETATM   22  O   UNL     1       7.790  26.209  58.508  1.00  0.00    -0.266 OA
HETATM   23  N   UNL     1       8.300  24.176  57.454  1.00  0.00    -0.321 N 
HETATM   24  C   UNL     1       8.252  23.730  56.135  1.00  0.00     0.048 A 
HETATM   25  H   UNL     1       8.594  23.632  58.253  1.00  0.00     0.169 HD
HETATM   26  C   UNL     1       8.589  22.481  55.661  1.00  0.00     0.030 A 
HETATM   27  C   UNL     1       8.458  22.260  54.283  1.00  0.00     0.002 A 
HETATM   28  C   UNL     1       8.001  23.280  53.421  1.00  0.00     0.001 A 
HETATM   29  C   UNL     1       7.664  24.541  53.918  1.00  0.00     0.016 A 
ENDBRANCH   2  18
TORSDOF 3
ENDMDL
MODEL 6
REMARK VINA RESULT:      -9.8      2.705      9.153
REMARK  3 active torsions:
REMARK  status: ('A' for Active; 'I' for Inactive)
REMARK    1  A    between atoms: C_3  and  C_4 
REMARK    2  A    between atoms: C_8  and  C_9 
REMARK       I    between atoms: C_9  and  N_10 
REMARK    3  A    between atoms: N_10  and  N_11 
ROOT
HETATM    1  C   UNL     1       6.104  29.876  57.364  1.00  0.00     0.289 C 
HETATM    2  N   UNL     1       7.034  30.640  58.051  1.00  0.00    -0.241 N 
HETATM    3  O   UNL     1       4.891  29.937  57.547  1.00  0.00    -0.264 OA
HETATM    4  H   UNL     1       8.031  30.527  57.874  1.00  0.00     0.192 HD
ENDROOT
BRANCH   1   5
HETATM    5  C   UNL     1       6.666  28.969  56.395  1.00  0.00     0.121 A 
HETATM    6  N   UNL     1       7.693  29.354  55.581  1.00  0.00    -0.272 N 
HETATM    7  N   UNL     1       8.116  28.401  54.737  1.00  0.00    -0.174 NA
HETATM    8  H   UNL     1       8.147  30.263  55.570  1.00  0.00     0.189 HD
HETATM    9  C   UNL     1       7.314  27.353  54.984  1.00  0.00     0.091 A 
HETATM   10  C   UNL     1       6.408  27.661  56.038  1.00  0.00     0.071 A 
BRANCH   9  11
HETATM   11  C   UNL     1       7.476  26.095  54.251  1.00  0.00     0.016 A 
HETATM   12  C   UNL     1       7.405  26.136  52.845  1.00  0.00     0.015 A 
HETATM   13  C   UNL     1       7.560  24.979  52.077  1.00  0.00     0.001 A 
HETATM   14  C   UNL     1       7.786  23.758  52.703  1.00  0.00     0.002 A 
HETATM   15  C   UNL     1       7.848  23.695  54.095  1.00  0.00     0.025 A 
HETATM   16  C   UNL     1       7.691  24.853  54.870  1.00  0.00     0.046 A 
HETATM   17 CL   UNL     1       7.726  24.640  56.588  1.00  0.00    -0.083 Cl
ENDBRANCH   9  11
ENDBRANCH   1   5
BRANCH   2  18
HETATM   18  N   UNL     1       6.630  31.523  59.016  1.00  0.00    -0.165 NA
HETATM   19  C   UNL     1       7.300  31.518  60.123  1.00  0.00     0.157 A 
HETATM   20  C   UNL     1       8.502  30.648  60.505  1.00  0.00     0.277 A 
HETATM   21  C   UNL     1       7.038  32.365  61.279  1.00  0.00     0.027 A 
HETATM   22  O   UNL     1       9.010  29.818  59.781  1.00  0.00    -0.266 OA
HETATM   23  N   UNL     1       8.836  31.021  61.789  1.00  0.00    -0.321 N 
HETATM   24  C   UNL     1       7.984  32.024  62.245  1.00  0.00     0.048 A 
HETATM   25  H   UNL     1       9.598  30.609  62.307  1.00  0.00     0.169 HD
HETATM   26  C   UNL     1       8.007  32.646  63.474  1.00  0.00     0.030 A 
HETATM   27  C   UNL     1       7.043  33.636  63.711  1.00  0.00     0.002 A 
HETATM   28  C   UNL     1       6.090  33.977  62.729  1.00  0.00     0.001 A 
HETATM   29  C   UNL     1       6.080  33.335  61.488  1.00  0.00     0.016 A 
ENDBRANCH   2  18
TORSDOF 3
ENDMDL
MODEL 7
REMARK VINA RESULT:      -9.5      2.961      9.443
REMARK  3 active torsions:
REMARK  status: ('A' for Active; 'I' for Inactive)
REMARK    1  A    between atoms: C_3  and  C_4 
REMARK    2  A    between atoms: C_8  and  C_9 
REMARK       I    between atoms: C_9  and  N_10 
REMARK    3  A    between atoms: N_10  and  N_11 
ROOT
HETATM    1  C   UNL     1       5.942  26.899  56.234  1.00  0.00     0.289 C 
HETATM    2  N   UNL     1       6.524  28.141  56.042  1.00  0.00    -0.241 N 
HETATM    3  O   UNL     1       4.952  26.701  56.934  1.00  0.00    -0.264 OA
HETATM    4  H   UNL     1       7.361  28.240  55.470  1.00  0.00     0.192 HD
ENDROOT
BRANCH   1   5
HETATM    5  C   UNL     1       6.597  25.813  55.547  1.00  0.00     0.121 A 
HETATM    6  N   UNL     1       7.333  26.035  54.419  1.00  0.00    -0.272 N 
HETATM    7  N   UNL     1       7.888  24.932  53.895  1.00  0.00    -0.174 NA
HETATM    8  H   UNL     1       7.493  26.931  53.967  1.00  0.00     0.189 HD
HETATM    9  C   UNL     1       7.475  23.935  54.696  1.00  0.00     0.091 A 
HETATM   10  C   UNL     1       6.685  24.452  55.761  1.00  0.00     0.071 A 
BRANCH   9  11
HETATM   11  C   UNL     1       7.890  22.552  54.448  1.00  0.00     0.016 A 
HETATM   12  C   UNL     1       7.815  22.067  53.129  1.00  0.00     0.015 A 
HETATM   13  C   UNL     1       8.202  20.763  52.813  1.00  0.00     0.001 A 
HETATM   14  C   UNL     1       8.671  19.917  53.813  1.00  0.00     0.002 A 
HETATM   15  C   UNL     1       8.742  20.377  55.129  1.00  0.00     0.025 A 
HETATM   16  C   UNL     1       8.352  21.684  55.451  1.00  0.00     0.046 A 
HETATM   17 CL   UNL     1       8.428  22.120  57.125  1.00  0.00    -0.083 Cl
ENDBRANCH   9  11
ENDBRANCH   1   5
BRANCH   2  18
HETATM   18  N   UNL     1       6.011  29.250  56.659  1.00  0.00    -0.165 NA
HETATM   19  C   UNL     1       6.707  29.746  57.631  1.00  0.00     0.157 A 
HETATM   20  C   UNL     1       8.047  29.255  58.190  1.00  0.00     0.277 A 
HETATM   21  C   UNL     1       6.347  30.912  58.427  1.00  0.00     0.027 A 
HETATM   22  O   UNL     1       8.661  28.298  57.769  1.00  0.00    -0.266 OA
HETATM   23  N   UNL     1       8.355  30.116  59.221  1.00  0.00    -0.321 N 
HETATM   24  C   UNL     1       7.366  31.085  59.363  1.00  0.00     0.048 A 
HETATM   25  H   UNL     1       9.191  30.035  59.783  1.00  0.00     0.169 HD
HETATM   26  C   UNL     1       7.325  32.112  60.281  1.00  0.00     0.030 A 
HETATM   27  C   UNL     1       6.220  32.974  60.234  1.00  0.00     0.002 A 
HETATM   28  C   UNL     1       5.193  32.792  59.284  1.00  0.00     0.001 A 
HETATM   29  C   UNL     1       5.250  31.746  58.360  1.00  0.00     0.016 A 
ENDBRANCH   2  18
TORSDOF 3
ENDMDL
MODEL 8
REMARK VINA RESULT:      -9.2      2.840      9.220
REMARK  3 active torsions:
REMARK  status: ('A' for Active; 'I' for Inactive)
REMARK    1  A    between atoms: C_3  and  C_4 
REMARK    2  A    between atoms: C_8  and  C_9 
REMARK       I    between atoms: C_9  and  N_10 
REMARK    3  A    between atoms: N_10  and  N_11 
ROOT
HETATM    1  C   UNL     1       9.040  30.865  59.771  1.00  0.00     0.289 C 
HETATM    2  N   UNL     1       8.143  30.508  60.764  1.00  0.00    -0.241 N 
HETATM    3  O   UNL     1       9.835  31.798  59.862  1.00  0.00    -0.264 OA
HETATM    4  H   UNL     1       7.490  29.739  60.621  1.00  0.00     0.192 HD
ENDROOT
BRANCH   1   5
HETATM    5  C   UNL     1       8.979  30.054  58.581  1.00  0.00     0.121 A 
HETATM    6  N   UNL     1      10.037  29.986  57.719  1.00  0.00    -0.272 N 
HETATM    7  N   UNL     1       9.836  29.187  56.661  1.00  0.00    -0.174 NA
HETATM    8  H   UNL     1      10.927  30.466  57.816  1.00  0.00     0.189 HD
HETATM    9  C   UNL     1       8.582  28.731  56.816  1.00  0.00     0.091 A 
HETATM   10  C   UNL     1       8.020  29.232  58.024  1.00  0.00     0.071 A 
BRANCH   9  11
HETATM   11  C   UNL     1       7.994  27.805  55.845  1.00  0.00     0.016 A 
HETATM   12  C   UNL     1       7.701  28.296  54.558  1.00  0.00     0.015 A 
HETATM   13  C   UNL     1       7.149  27.470  53.576  1.00  0.00     0.001 A 
HETATM   14  C   UNL     1       6.877  26.137  53.864  1.00  0.00     0.002 A 
HETATM   15  C   UNL     1       7.150  25.635  55.137  1.00  0.00     0.025 A 
HETATM   16  C   UNL     1       7.701  26.461  56.127  1.00  0.00     0.046 A 
HETATM   17 CL   UNL     1       7.939  25.742  57.684  1.00  0.00    -0.083 Cl
ENDBRANCH   9  11
ENDBRANCH   1   5
BRANCH   2  18
HETATM   18  N   UNL     1       8.085  31.214  61.935  1.00  0.00    -0.165 NA
HETATM   19  C   UNL     1       7.127  32.077  62.044  1.00  0.00     0.157 A 
HETATM   20  C   UNL     1       6.031  32.417  61.029  1.00  0.00     0.277 A 
HETATM   21  C   UNL     1       6.885  32.938  63.195  1.00  0.00     0.027 A 
HETATM   22  O   UNL     1       5.910  31.891  59.943  1.00  0.00    -0.266 OA
HETATM   23  N   UNL     1       5.272  33.403  61.620  1.00  0.00    -0.321 N 
HETATM   24  C   UNL     1       5.766  33.711  62.885  1.00  0.00     0.048 A 
HETATM   25  H   UNL     1       4.471  33.830  61.177  1.00  0.00     0.169 HD
HETATM   26  C   UNL     1       5.273  34.641  63.773  1.00  0.00     0.030 A 
HETATM   27  C   UNL     1       5.940  34.778  64.999  1.00  0.00     0.002 A 
HETATM   28  C   UNL     1       7.071  33.991  65.305  1.00  0.00     0.001 A 
HETATM   29  C   UNL     1       7.558  33.052  64.393  1.00  0.00     0.016 A 
ENDBRANCH   2  18
TORSDOF 3
ENDMDL
MODEL 9
REMARK VINA RESULT:      -9.0      4.370      9.310
REMARK  3 active torsions:
REMARK  status: ('A' for Active; 'I' for Inactive)
REMARK    1  A    between atoms: C_3  and  C_4 
REMARK    2  A    between atoms: C_8  and  C_9 
REMARK       I    between atoms: C_9  and  N_10 
REMARK    3  A    between atoms: N_10  and  N_11 
ROOT
HETATM    1  C   UNL     1       7.158  27.638  53.959  1.00  0.00     0.289 C 
HETATM    2  N   UNL     1       5.838  27.891  54.294  1.00  0.00    -0.241 N 
HETATM    3  O   UNL     1       8.018  28.507  53.835  1.00  0.00    -0.264 OA
HETATM    4  H   UNL     1       5.164  27.130  54.357  1.00  0.00     0.192 HD
ENDROOT
BRANCH   1   5
HETATM    5  C   UNL     1       7.472  26.246  53.748  1.00  0.00     0.121 A 
HETATM    6  N   UNL     1       7.718  25.761  52.495  1.00  0.00    -0.272 N 
HETATM    7  N   UNL     1       8.003  24.451  52.457  1.00  0.00    -0.174 NA
HETATM    8  H   UNL     1       7.709  26.292  51.629  1.00  0.00     0.189 HD
HETATM    9  C   UNL     1       7.913  24.049  53.736  1.00  0.00     0.091 A 
HETATM   10  C   UNL     1       7.608  25.154  54.580  1.00  0.00     0.071 A 
BRANCH   9  11
HETATM   11  C   UNL     1       8.171  22.655  54.104  1.00  0.00     0.016 A 
HETATM   12  C   UNL     1       8.092  21.679  53.092  1.00  0.00     0.015 A 
HETATM   13  C   UNL     1       8.334  20.331  53.364  1.00  0.00     0.001 A 
HETATM   14  C   UNL     1       8.659  19.932  54.657  1.00  0.00     0.002 A 
HETATM   15  C   UNL     1       8.731  20.883  55.676  1.00  0.00     0.025 A 
HETATM   16  C   UNL     1       8.486  22.238  55.407  1.00  0.00     0.046 A 
HETATM   17 CL   UNL     1       8.546  23.314  56.762  1.00  0.00    -0.083 Cl
ENDBRANCH   9  11
ENDBRANCH   1   5
BRANCH   2  18
HETATM   18  N   UNL     1       5.407  29.174  54.497  1.00  0.00    -0.165 NA
HETATM   19  C   UNL     1       5.081  29.490  55.709  1.00  0.00     0.157 A 
HETATM   20  C   UNL     1       5.116  28.613  56.964  1.00  0.00     0.277 A 
HETATM   21  C   UNL     1       4.592  30.791  56.145  1.00  0.00     0.027 A 
HETATM   22  O   UNL     1       5.479  27.456  56.987  1.00  0.00    -0.266 OA
HETATM   23  N   UNL     1       4.663  29.415  57.989  1.00  0.00    -0.321 N 
HETATM   24  C   UNL     1       4.356  30.688  57.516  1.00  0.00     0.048 A 
HETATM   25  H   UNL     1       4.574  29.100  58.945  1.00  0.00     0.169 HD
HETATM   26  C   UNL     1       3.877  31.757  58.241  1.00  0.00     0.030 A 
HETATM   27  C   UNL     1       3.640  32.951  57.545  1.00  0.00     0.002 A 
HETATM   28  C   UNL     1       3.882  33.048  56.159  1.00  0.00     0.001 A 
HETATM   29  C   UNL     1       4.366  31.954  55.438  1.00  0.00     0.016 A 
ENDBRANCH   2  18
TORSDOF 3
ENDMDL
MODEL 10
REMARK VINA RESULT:      -8.8      7.339     10.391
REMARK  3 active torsions:
REMARK  status: ('A' for Active; 'I' for Inactive)
REMARK    1  A    between atoms: C_3  and  C_4 
REMARK    2  A    between atoms: C_8  and  C_9 
REMARK       I    between atoms: C_9  and  N_10 
REMARK    3  A    between atoms: N_10  and  N_11 
ROOT
HETATM    1  C   UNL     1       6.188  27.233  52.290  1.00  0.00     0.289 C 
HETATM    2  N   UNL     1       5.925  27.148  50.932  1.00  0.00    -0.241 N 
HETATM    3  O   UNL     1       6.200  28.284  52.926  1.00  0.00    -0.264 OA
HETATM    4  H   UNL     1       5.955  26.250  50.453  1.00  0.00     0.192 HD
ENDROOT
BRANCH   1   5
HETATM    5  C   UNL     1       6.467  25.972  52.931  1.00  0.00     0.121 A 
HETATM    6  N   UNL     1       5.751  25.562  54.020  1.00  0.00    -0.272 N 
HETATM    7  N   UNL     1       6.117  24.366  54.503  1.00  0.00    -0.174 NA
HETATM    8  H   UNL     1       4.992  26.066  54.469  1.00  0.00     0.189 HD
HETATM    9  C   UNL     1       7.138  23.983  53.717  1.00  0.00     0.091 A 
HETATM   10  C   UNL     1       7.369  24.953  52.701  1.00  0.00     0.071 A 
BRANCH   9  11
HETATM   11  C   UNL     1       7.809  22.699  53.930  1.00  0.00     0.016 A 
HETATM   12  C   UNL     1       7.702  21.723  52.921  1.00  0.00     0.015 A 
HETATM   13  C   UNL     1       8.323  20.478  53.048  1.00  0.00     0.001 A 
HETATM   14  C   UNL     1       9.061  20.185  54.190  1.00  0.00     0.002 A 
HETATM   15  C   UNL     1       9.169  21.135  55.206  1.00  0.00     0.025 A 
HETATM   16  C   UNL     1       8.546  22.385  55.084  1.00  0.00     0.046 A 
HETATM   17 CL   UNL     1       8.700  23.458  56.435  1.00  0.00    -0.083 Cl
ENDBRANCH   9  11
ENDBRANCH   1   5
BRANCH   2  18
HETATM   18  N   UNL     1       5.669  28.278  50.203  1.00  0.00    -0.165 NA
HETATM   19  C   UNL     1       4.743  28.188  49.303  1.00  0.00     0.157 A 
HETATM   20  C   UNL     1       3.882  26.974  48.941  1.00  0.00     0.277 A 
HETATM   21  C   UNL     1       4.316  29.260  48.413  1.00  0.00     0.027 A 
HETATM   22  O   UNL     1       3.953  25.892  49.482  1.00  0.00    -0.266 OA
HETATM   23  N   UNL     1       3.062  27.395  47.916  1.00  0.00    -0.321 N 
HETATM   24  C   UNL     1       3.312  28.729  47.604  1.00  0.00     0.048 A 
HETATM   25  H   UNL     1       2.380  26.799  47.468  1.00  0.00     0.169 HD
HETATM   26  C   UNL     1       2.692  29.494  46.640  1.00  0.00     0.030 A 
HETATM   27  C   UNL     1       3.113  30.825  46.507  1.00  0.00     0.002 A 
HETATM   28  C   UNL     1       4.130  31.355  47.329  1.00  0.00     0.001 A 
HETATM   29  C   UNL     1       4.748  30.566  48.302  1.00  0.00     0.016 A 
ENDBRANCH   2  18
TORSDOF 3
ENDMDL
