MODEL 1
REMARK VINA RESULT:      -9.7      0.000      0.000
REMARK  8 active torsions:
REMARK  status: ('A' for Active; 'I' for Inactive)
REMARK    1  A    between atoms: C_2  and  O_3 
REMARK    2  A    between atoms: O_3  and  C_4 
REMARK    3  A    between atoms: C_4  and  C_5 
REMARK    4  A    between atoms: N_7  and  C_9 
REMARK    5  A    between atoms: C_9  and  C_10 
REMARK       I    between atoms: C_10  and  N_11 
REMARK    6  A    between atoms: N_11  and  C_12 
REMARK    7  A    between atoms: C_20  and  C_21 
REMARK       I    between atoms: C_21  and  N_22 
REMARK    8  A    between atoms: N_22  and  C_23 
ROOT
HETATM    1  C   UNL     1       6.334  25.538  54.254  1.00  0.00     0.093 C 
HETATM    2  S   UNL     1       6.435  24.480  52.938  1.00  0.00    -0.075 SA
HETATM    3  C   UNL     1       7.329  23.367  53.852  1.00  0.00    -0.008 C 
HETATM    4  C   UNL     1       7.675  23.849  55.107  1.00  0.00    -0.026 C 
HETATM    5  C   UNL     1       8.537  23.016  56.024  1.00  0.00     0.041 C 
HETATM    6  C   UNL     1       9.190  21.816  55.319  1.00  0.00     0.005 C 
HETATM    7  C   UNL     1       8.206  21.102  54.387  1.00  0.00     0.005 C 
HETATM    8  C   UNL     1       7.729  22.042  53.276  1.00  0.00     0.047 C 
HETATM    9  C   UNL     1       7.113  25.176  55.346  1.00  0.00     0.073 C 
ENDROOT
BRANCH   1  10
HETATM   10  N   UNL     1       5.489  26.603  54.013  1.00  0.00    -0.319 N 
HETATM   11  C   UNL     1       6.000  27.757  53.464  1.00  0.00     0.248 C 
HETATM   12  O   UNL     1       7.195  28.031  53.347  1.00  0.00    -0.271 OA
HETATM   13  H   UNL     1       4.659  26.643  54.592  1.00  0.00     0.169 HD
BRANCH  11  14
HETATM   14  C   UNL     1       4.954  28.778  53.011  1.00  0.00     0.337 C 
BRANCH  14  15
HETATM   15  N   UNL     1       4.939  28.871  51.485  1.00  0.00    -0.062 N 
HETATM   16  C   UNL     1       3.600  28.473  50.888  1.00  0.00     0.249 C 
HETATM   17  C   UNL     1       3.746  28.278  49.383  1.00  0.00     0.111 C 
HETATM   18  C   UNL     1       4.405  29.486  48.705  1.00  0.00     0.018 C 
HETATM   19  C   UNL     1       5.648  30.014  49.428  1.00  0.00     0.029 C 
HETATM   20  C   UNL     1       5.453  30.161  50.932  1.00  0.00     0.235 C 
HETATM   21  H   UNL     1       5.600  28.114  51.195  1.00  0.00     0.280 HD
BRANCH  17  22
HETATM   22  C   UNL     1       4.545  27.010  49.187  1.00  0.00     0.264 C 
HETATM   23  O   UNL     1       5.045  26.404  50.127  1.00  0.00    -0.265 OA
BRANCH  22  24
HETATM   24  O   UNL     1       4.512  26.602  47.897  1.00  0.00    -0.322 OA
BRANCH  24  25
HETATM   25  C   UNL     1       3.214  26.202  47.433  1.00  0.00     0.174 C 
HETATM   26  C   UNL     1       2.985  24.761  47.841  1.00  0.00     0.034 C 
ENDBRANCH  24  25
ENDBRANCH  22  24
ENDBRANCH  17  22
ENDBRANCH  14  15
ENDBRANCH  11  14
ENDBRANCH   1  10
BRANCH   9  27
HETATM   27  C   UNL     1       7.336  26.104  56.483  1.00  0.00     0.259 C 
HETATM   28  N   UNL     1       8.021  27.262  56.174  1.00  0.00    -0.323 N 
HETATM   29  H   UNL     1       8.402  27.324  55.242  1.00  0.00     0.169 HD
HETATM   30  O   UNL     1       6.919  25.822  57.608  1.00  0.00    -0.267 OA
BRANCH  28  31
HETATM   31  C   UNL     1       8.255  28.382  57.001  1.00  0.00     0.035 A 
HETATM   32  C   UNL     1       7.266  29.037  57.737  1.00  0.00     0.031 A 
HETATM   33  C   UNL     1       7.584  30.154  58.521  1.00  0.00     0.026 A 
HETATM   34  C   UNL     1       8.891  30.627  58.561  1.00  0.00     0.034 A 
HETATM   35 CL   UNL     1       9.276  31.999  59.522  1.00  0.00    -0.084 Cl
HETATM   36  C   UNL     1       9.887  29.991  57.828  1.00  0.00     0.026 A 
HETATM   37  C   UNL     1       9.570  28.868  57.056  1.00  0.00     0.031 A 
ENDBRANCH  28  31
ENDBRANCH   9  27
TORSDOF 8
ENDMDL
MODEL 2
REMARK VINA RESULT:      -9.7      2.940      7.626
REMARK  8 active torsions:
REMARK  status: ('A' for Active; 'I' for Inactive)
REMARK    1  A    between atoms: C_2  and  O_3 
REMARK    2  A    between atoms: O_3  and  C_4 
REMARK    3  A    between atoms: C_4  and  C_5 
REMARK    4  A    between atoms: N_7  and  C_9 
REMARK    5  A    between atoms: C_9  and  C_10 
REMARK       I    between atoms: C_10  and  N_11 
REMARK    6  A    between atoms: N_11  and  C_12 
REMARK    7  A    between atoms: C_20  and  C_21 
REMARK       I    between atoms: C_21  and  N_22 
REMARK    8  A    between atoms: N_22  and  C_23 
ROOT
HETATM    1  C   UNL     1       5.357  28.605  52.073  1.00  0.00     0.093 C 
HETATM    2  S   UNL     1       5.328  29.807  50.883  1.00  0.00    -0.075 SA
HETATM    3  C   UNL     1       4.941  28.668  49.689  1.00  0.00    -0.008 C 
HETATM    4  C   UNL     1       4.970  27.361  50.154  1.00  0.00    -0.026 C 
HETATM    5  C   UNL     1       4.725  26.215  49.203  1.00  0.00     0.041 C 
HETATM    6  C   UNL     1       4.758  26.635  47.725  1.00  0.00     0.005 C 
HETATM    7  C   UNL     1       4.015  27.954  47.493  1.00  0.00     0.005 C 
HETATM    8  C   UNL     1       4.672  29.095  48.277  1.00  0.00     0.047 C 
HETATM    9  C   UNL     1       5.261  27.308  51.585  1.00  0.00     0.073 C 
ENDROOT
BRANCH   1  10
HETATM   10  N   UNL     1       5.484  29.124  53.346  1.00  0.00    -0.319 N 
HETATM   11  C   UNL     1       4.357  29.535  54.021  1.00  0.00     0.248 C 
HETATM   12  O   UNL     1       3.237  29.684  53.528  1.00  0.00    -0.271 OA
HETATM   13  H   UNL     1       6.382  29.541  53.562  1.00  0.00     0.169 HD
BRANCH  11  14
HETATM   14  C   UNL     1       4.569  29.862  55.500  1.00  0.00     0.337 C 
BRANCH  14  15
HETATM   15  N   UNL     1       5.776  29.093  56.040  1.00  0.00    -0.062 N 
HETATM   16  C   UNL     1       6.783  29.995  56.733  1.00  0.00     0.249 C 
HETATM   17  C   UNL     1       8.085  29.236  56.955  1.00  0.00     0.111 C 
HETATM   18  C   UNL     1       7.858  27.890  57.656  1.00  0.00     0.018 C 
HETATM   19  C   UNL     1       6.702  27.067  57.078  1.00  0.00     0.029 C 
HETATM   20  C   UNL     1       5.436  27.884  56.849  1.00  0.00     0.235 C 
HETATM   21  H   UNL     1       6.258  28.769  55.169  1.00  0.00     0.280 HD
BRANCH  17  22
HETATM   22  C   UNL     1       8.726  29.069  55.597  1.00  0.00     0.264 C 
HETATM   23  O   UNL     1       8.150  28.512  54.669  1.00  0.00    -0.265 OA
BRANCH  22  24
HETATM   24  O   UNL     1       9.916  29.710  55.532  1.00  0.00    -0.322 OA
BRANCH  24  25
HETATM   25  C   UNL     1      10.323  30.333  56.760  1.00  0.00     0.174 C 
HETATM   26  C   UNL     1      11.605  29.675  57.227  1.00  0.00     0.034 C 
ENDBRANCH  24  25
ENDBRANCH  22  24
ENDBRANCH  17  22
ENDBRANCH  14  15
ENDBRANCH  11  14
ENDBRANCH   1  10
BRANCH   9  27
HETATM   27  C   UNL     1       5.513  26.130  52.453  1.00  0.00     0.259 C 
HETATM   28  N   UNL     1       6.801  25.635  52.417  1.00  0.00    -0.323 N 
HETATM   29  H   UNL     1       7.420  26.041  51.730  1.00  0.00     0.169 HD
HETATM   30  O   UNL     1       4.608  25.660  53.144  1.00  0.00    -0.267 OA
BRANCH  28  31
HETATM   31  C   UNL     1       7.371  24.629  53.226  1.00  0.00     0.035 A 
HETATM   32  C   UNL     1       7.763  24.815  54.554  1.00  0.00     0.031 A 
HETATM   33  C   UNL     1       8.336  23.764  55.281  1.00  0.00     0.026 A 
HETATM   34  C   UNL     1       8.531  22.526  54.679  1.00  0.00     0.034 A 
HETATM   35 CL   UNL     1       9.237  21.239  55.574  1.00  0.00    -0.084 Cl
HETATM   36  C   UNL     1       8.153  22.325  53.356  1.00  0.00     0.026 A 
HETATM   37  C   UNL     1       7.569  23.373  52.634  1.00  0.00     0.031 A 
ENDBRANCH  28  31
ENDBRANCH   9  27
TORSDOF 8
ENDMDL
MODEL 3
REMARK VINA RESULT:      -9.6      3.266      8.054
REMARK  8 active torsions:
REMARK  status: ('A' for Active; 'I' for Inactive)
REMARK    1  A    between atoms: C_2  and  O_3 
REMARK    2  A    between atoms: O_3  and  C_4 
REMARK    3  A    between atoms: C_4  and  C_5 
REMARK    4  A    between atoms: N_7  and  C_9 
REMARK    5  A    between atoms: C_9  and  C_10 
REMARK       I    between atoms: C_10  and  N_11 
REMARK    6  A    between atoms: N_11  and  C_12 
REMARK    7  A    between atoms: C_20  and  C_21 
REMARK       I    between atoms: C_21  and  N_22 
REMARK    8  A    between atoms: N_22  and  C_23 
ROOT
HETATM    1  C   UNL     1       7.176  25.324  55.231  1.00  0.00     0.093 C 
HETATM    2  S   UNL     1       8.138  24.369  56.243  1.00  0.00    -0.075 SA
HETATM    3  C   UNL     1       8.242  23.156  55.063  1.00  0.00    -0.008 C 
HETATM    4  C   UNL     1       7.439  23.403  53.959  1.00  0.00    -0.026 C 
HETATM    5  C   UNL     1       7.353  22.387  52.845  1.00  0.00     0.041 C 
HETATM    6  C   UNL     1       7.962  21.026  53.218  1.00  0.00     0.005 C 
HETATM    7  C   UNL     1       9.289  21.184  53.966  1.00  0.00     0.005 C 
HETATM    8  C   UNL     1       9.084  21.936  55.285  1.00  0.00     0.047 C 
HETATM    9  C   UNL     1       6.759  24.691  54.067  1.00  0.00     0.073 C 
ENDROOT
BRANCH   1  10
HETATM   10  N   UNL     1       6.958  26.586  55.746  1.00  0.00    -0.319 N 
HETATM   11  C   UNL     1       7.337  27.687  55.013  1.00  0.00     0.248 C 
HETATM   12  O   UNL     1       8.052  27.673  54.009  1.00  0.00    -0.271 OA
HETATM   13  H   UNL     1       6.909  26.644  56.757  1.00  0.00     0.169 HD
BRANCH  11  14
HETATM   14  C   UNL     1       6.835  29.029  55.552  1.00  0.00     0.337 C 
BRANCH  14  15
HETATM   15  N   UNL     1       7.869  29.631  56.505  1.00  0.00    -0.062 N 
HETATM   16  C   UNL     1       7.594  29.286  57.959  1.00  0.00     0.249 C 
HETATM   17  C   UNL     1       8.449  30.163  58.865  1.00  0.00     0.111 C 
HETATM   18  C   UNL     1       9.933  30.123  58.477  1.00  0.00     0.018 C 
HETATM   19  C   UNL     1      10.195  30.270  56.975  1.00  0.00     0.029 C 
HETATM   20  C   UNL     1       9.292  29.392  56.117  1.00  0.00     0.235 C 
HETATM   21  H   UNL     1       7.687  30.659  56.432  1.00  0.00     0.280 HD
BRANCH  17  22
HETATM   22  C   UNL     1       7.877  31.560  58.781  1.00  0.00     0.264 C 
HETATM   23  O   UNL     1       6.807  31.792  58.232  1.00  0.00    -0.265 OA
BRANCH  22  24
HETATM   24  O   UNL     1       8.627  32.442  59.482  1.00  0.00    -0.322 OA
BRANCH  24  25
HETATM   25  C   UNL     1       8.304  32.517  60.878  1.00  0.00     0.174 C 
HETATM   26  C   UNL     1       9.502  32.035  61.672  1.00  0.00     0.034 C 
ENDBRANCH  24  25
ENDBRANCH  22  24
ENDBRANCH  17  22
ENDBRANCH  14  15
ENDBRANCH  11  14
ENDBRANCH   1  10
BRANCH   9  27
HETATM   27  C   UNL     1       5.719  25.286  53.189  1.00  0.00     0.259 C 
HETATM   28  N   UNL     1       6.192  26.118  52.194  1.00  0.00    -0.323 N 
HETATM   29  H   UNL     1       7.178  26.335  52.221  1.00  0.00     0.169 HD
HETATM   30  O   UNL     1       4.529  25.025  53.369  1.00  0.00    -0.267 OA
BRANCH  28  31
HETATM   31  C   UNL     1       5.469  26.706  51.135  1.00  0.00     0.035 A 
HETATM   32  C   UNL     1       4.863  25.987  50.101  1.00  0.00     0.031 A 
HETATM   33  C   UNL     1       4.177  26.654  49.078  1.00  0.00     0.026 A 
HETATM   34  C   UNL     1       4.106  28.043  49.077  1.00  0.00     0.034 A 
HETATM   35 CL   UNL     1       3.265  28.856  47.817  1.00  0.00    -0.084 Cl
HETATM   36  C   UNL     1       4.710  28.774  50.094  1.00  0.00     0.026 A 
HETATM   37  C   UNL     1       5.384  28.106  51.123  1.00  0.00     0.031 A 
ENDBRANCH  28  31
ENDBRANCH   9  27
TORSDOF 8
ENDMDL
MODEL 4
REMARK VINA RESULT:      -9.1      1.619      2.117
REMARK  8 active torsions:
REMARK  status: ('A' for Active; 'I' for Inactive)
REMARK    1  A    between atoms: C_2  and  O_3 
REMARK    2  A    between atoms: O_3  and  C_4 
REMARK    3  A    between atoms: C_4  and  C_5 
REMARK    4  A    between atoms: N_7  and  C_9 
REMARK    5  A    between atoms: C_9  and  C_10 
REMARK       I    between atoms: C_10  and  N_11 
REMARK    6  A    between atoms: N_11  and  C_12 
REMARK    7  A    between atoms: C_20  and  C_21 
REMARK       I    between atoms: C_21  and  N_22 
REMARK    8  A    between atoms: N_22  and  C_23 
ROOT
HETATM    1  C   UNL     1       5.875  25.155  53.969  1.00  0.00     0.093 C 
HETATM    2  S   UNL     1       6.265  24.107  52.700  1.00  0.00    -0.075 SA
HETATM    3  C   UNL     1       7.225  23.160  53.727  1.00  0.00    -0.008 C 
HETATM    4  C   UNL     1       7.369  23.708  54.994  1.00  0.00    -0.026 C 
HETATM    5  C   UNL     1       8.255  23.033  56.013  1.00  0.00     0.041 C 
HETATM    6  C   UNL     1       9.150  21.939  55.408  1.00  0.00     0.005 C 
HETATM    7  C   UNL     1       8.383  21.067  54.409  1.00  0.00     0.005 C 
HETATM    8  C   UNL     1       7.877  21.905  53.231  1.00  0.00     0.047 C 
HETATM    9  C   UNL     1       6.590  24.935  55.139  1.00  0.00     0.073 C 
ENDROOT
BRANCH   1  10
HETATM   10  N   UNL     1       4.904  26.072  53.617  1.00  0.00    -0.319 N 
HETATM   11  C   UNL     1       5.283  27.283  53.084  1.00  0.00     0.248 C 
HETATM   12  O   UNL     1       6.429  27.737  53.071  1.00  0.00    -0.271 OA
HETATM   13  H   UNL     1       4.026  25.992  54.115  1.00  0.00     0.169 HD
BRANCH  11  14
HETATM   14  C   UNL     1       4.142  28.122  52.505  1.00  0.00     0.337 C 
BRANCH  14  15
HETATM   15  N   UNL     1       3.972  27.818  51.016  1.00  0.00    -0.062 N 
HETATM   16  C   UNL     1       3.859  29.076  50.171  1.00  0.00     0.249 C 
HETATM   17  C   UNL     1       3.374  28.714  48.772  1.00  0.00     0.111 C 
HETATM   18  C   UNL     1       4.220  27.602  48.138  1.00  0.00     0.018 C 
HETATM   19  C   UNL     1       4.502  26.418  49.067  1.00  0.00     0.029 C 
HETATM   20  C   UNL     1       4.954  26.840  50.460  1.00  0.00     0.235 C 
HETATM   21  H   UNL     1       3.023  27.378  50.972  1.00  0.00     0.280 HD
BRANCH  17  22
HETATM   22  C   UNL     1       1.922  28.318  48.906  1.00  0.00     0.264 C 
HETATM   23  O   UNL     1       1.242  28.654  49.869  1.00  0.00    -0.265 OA
BRANCH  22  24
HETATM   24  O   UNL     1       1.481  27.682  47.797  1.00  0.00    -0.322 OA
BRANCH  24  25
HETATM   25  C   UNL     1       0.815  28.530  46.850  1.00  0.00     0.174 C 
HETATM   26  C   UNL     1      -0.371  27.775  46.283  1.00  0.00     0.034 C 
ENDBRANCH  24  25
ENDBRANCH  22  24
ENDBRANCH  17  22
ENDBRANCH  14  15
ENDBRANCH  11  14
ENDBRANCH   1  10
BRANCH   9  27
HETATM   27  C   UNL     1       6.556  25.903  56.264  1.00  0.00     0.259 C 
HETATM   28  N   UNL     1       7.216  27.095  56.037  1.00  0.00    -0.323 N 
HETATM   29  H   UNL     1       7.750  27.157  55.183  1.00  0.00     0.169 HD
HETATM   30  O   UNL     1       5.967  25.624  57.309  1.00  0.00    -0.267 OA
BRANCH  28  31
HETATM   31  C   UNL     1       7.236  28.247  56.851  1.00  0.00     0.035 A 
HETATM   32  C   UNL     1       8.270  28.570  57.734  1.00  0.00     0.031 A 
HETATM   33  C   UNL     1       8.200  29.729  58.519  1.00  0.00     0.026 A 
HETATM   34  C   UNL     1       7.091  30.562  58.433  1.00  0.00     0.034 A 
HETATM   35 CL   UNL     1       7.009  31.982  59.399  1.00  0.00    -0.084 Cl
HETATM   36  C   UNL     1       6.049  30.253  57.564  1.00  0.00     0.026 A 
HETATM   37  C   UNL     1       6.126  29.102  56.772  1.00  0.00     0.031 A 
ENDBRANCH  28  31
ENDBRANCH   9  27
TORSDOF 8
ENDMDL
MODEL 5
REMARK VINA RESULT:      -9.1      3.366      6.450
REMARK  8 active torsions:
REMARK  status: ('A' for Active; 'I' for Inactive)
REMARK    1  A    between atoms: C_2  and  O_3 
REMARK    2  A    between atoms: O_3  and  C_4 
REMARK    3  A    between atoms: C_4  and  C_5 
REMARK    4  A    between atoms: N_7  and  C_9 
REMARK    5  A    between atoms: C_9  and  C_10 
REMARK       I    between atoms: C_10  and  N_11 
REMARK    6  A    between atoms: N_11  and  C_12 
REMARK    7  A    between atoms: C_20  and  C_21 
REMARK       I    between atoms: C_21  and  N_22 
REMARK    8  A    between atoms: N_22  and  C_23 
ROOT
HETATM    1  C   UNL     1       6.313  30.673  57.146  1.00  0.00     0.093 C 
HETATM    2  S   UNL     1       5.681  31.935  58.080  1.00  0.00    -0.075 SA
HETATM    3  C   UNL     1       6.920  31.760  59.223  1.00  0.00    -0.008 C 
HETATM    4  C   UNL     1       7.733  30.661  58.979  1.00  0.00    -0.026 C 
HETATM    5  C   UNL     1       8.841  30.312  59.943  1.00  0.00     0.041 C 
HETATM    6  C   UNL     1       8.747  31.074  61.275  1.00  0.00     0.005 C 
HETATM    7  C   UNL     1       8.398  32.550  61.062  1.00  0.00     0.005 C 
HETATM    8  C   UNL     1       7.028  32.693  60.391  1.00  0.00     0.047 C 
HETATM    9  C   UNL     1       7.350  29.973  57.748  1.00  0.00     0.073 C 
ENDROOT
BRANCH   1  10
HETATM   10  N   UNL     1       5.674  30.546  55.928  1.00  0.00    -0.319 N 
HETATM   11  C   UNL     1       4.676  29.609  55.786  1.00  0.00     0.248 C 
HETATM   12  O   UNL     1       4.417  28.706  56.584  1.00  0.00    -0.271 OA
HETATM   13  H   UNL     1       6.209  30.841  55.120  1.00  0.00     0.169 HD
BRANCH  11  14
HETATM   14  C   UNL     1       3.870  29.711  54.490  1.00  0.00     0.337 C 
BRANCH  14  15
HETATM   15  N   UNL     1       4.639  29.059  53.340  1.00  0.00    -0.062 N 
HETATM   16  C   UNL     1       4.372  27.568  53.229  1.00  0.00     0.249 C 
HETATM   17  C   UNL     1       5.393  26.931  52.294  1.00  0.00     0.111 C 
HETATM   18  C   UNL     1       5.476  27.659  50.946  1.00  0.00     0.018 C 
HETATM   19  C   UNL     1       5.542  29.185  51.058  1.00  0.00     0.029 C 
HETATM   20  C   UNL     1       4.519  29.764  52.028  1.00  0.00     0.235 C 
HETATM   21  H   UNL     1       5.635  29.132  53.651  1.00  0.00     0.280 HD
BRANCH  17  22
HETATM   22  C   UNL     1       6.714  26.939  53.027  1.00  0.00     0.264 C 
HETATM   23  O   UNL     1       6.955  27.734  53.928  1.00  0.00    -0.265 OA
BRANCH  22  24
HETATM   24  O   UNL     1       7.496  25.903  52.643  1.00  0.00    -0.322 OA
BRANCH  24  25
HETATM   25  C   UNL     1       6.821  24.638  52.588  1.00  0.00     0.174 C 
HETATM   26  C   UNL     1       7.865  23.539  52.584  1.00  0.00     0.034 C 
ENDBRANCH  24  25
ENDBRANCH  22  24
ENDBRANCH  17  22
ENDBRANCH  14  15
ENDBRANCH  11  14
ENDBRANCH   1  10
BRANCH   9  27
HETATM   27  C   UNL     1       7.855  28.696  57.186  1.00  0.00     0.259 C 
HETATM   28  N   UNL     1       7.264  27.554  57.690  1.00  0.00    -0.323 N 
HETATM   29  H   UNL     1       6.630  27.681  58.465  1.00  0.00     0.169 HD
HETATM   30  O   UNL     1       8.739  28.699  56.328  1.00  0.00    -0.267 OA
BRANCH  28  31
HETATM   31  C   UNL     1       7.431  26.222  57.254  1.00  0.00     0.035 A 
HETATM   32  C   UNL     1       8.603  25.480  57.419  1.00  0.00     0.031 A 
HETATM   33  C   UNL     1       8.687  24.167  56.940  1.00  0.00     0.026 A 
HETATM   34  C   UNL     1       7.604  23.594  56.282  1.00  0.00     0.034 A 
HETATM   35 CL   UNL     1       7.713  21.983  55.693  1.00  0.00    -0.084 Cl
HETATM   36  C   UNL     1       6.432  24.321  56.102  1.00  0.00     0.026 A 
HETATM   37  C   UNL     1       6.344  25.629  56.593  1.00  0.00     0.031 A 
ENDBRANCH  28  31
ENDBRANCH   9  27
TORSDOF 8
ENDMDL
MODEL 6
REMARK VINA RESULT:      -9.1      2.946      5.702
REMARK  8 active torsions:
REMARK  status: ('A' for Active; 'I' for Inactive)
REMARK    1  A    between atoms: C_2  and  O_3 
REMARK    2  A    between atoms: O_3  and  C_4 
REMARK    3  A    between atoms: C_4  and  C_5 
REMARK    4  A    between atoms: N_7  and  C_9 
REMARK    5  A    between atoms: C_9  and  C_10 
REMARK       I    between atoms: C_10  and  N_11 
REMARK    6  A    between atoms: N_11  and  C_12 
REMARK    7  A    between atoms: C_20  and  C_21 
REMARK       I    between atoms: C_21  and  N_22 
REMARK    8  A    between atoms: N_22  and  C_23 
ROOT
HETATM    1  C   UNL     1       5.646  28.576  55.882  1.00  0.00     0.093 C 
HETATM    2  S   UNL     1       5.257  29.648  57.132  1.00  0.00    -0.075 SA
HETATM    3  C   UNL     1       6.897  29.889  57.487  1.00  0.00    -0.008 C 
HETATM    4  C   UNL     1       7.738  29.058  56.760  1.00  0.00    -0.026 C 
HETATM    5  C   UNL     1       9.227  29.086  57.007  1.00  0.00     0.041 C 
HETATM    6  C   UNL     1       9.615  29.853  58.282  1.00  0.00     0.005 C 
HETATM    7  C   UNL     1       8.822  31.155  58.425  1.00  0.00     0.005 C 
HETATM    8  C   UNL     1       7.321  30.868  58.540  1.00  0.00     0.047 C 
HETATM    9  C   UNL     1       6.990  28.231  55.815  1.00  0.00     0.073 C 
ENDROOT
BRANCH   1  10
HETATM   10  N   UNL     1       4.543  28.214  55.135  1.00  0.00    -0.319 N 
HETATM   11  C   UNL     1       4.164  28.999  54.070  1.00  0.00     0.248 C 
HETATM   12  O   UNL     1       4.587  30.129  53.822  1.00  0.00    -0.271 OA
HETATM   13  H   UNL     1       3.854  27.649  55.617  1.00  0.00     0.169 HD
BRANCH  11  14
HETATM   14  C   UNL     1       3.092  28.389  53.164  1.00  0.00     0.337 C 
BRANCH  14  15
HETATM   15  N   UNL     1       3.696  28.027  51.806  1.00  0.00    -0.062 N 
HETATM   16  C   UNL     1       3.803  29.224  50.876  1.00  0.00     0.249 C 
HETATM   17  C   UNL     1       4.101  28.748  49.459  1.00  0.00     0.111 C 
HETATM   18  C   UNL     1       5.307  27.801  49.409  1.00  0.00     0.018 C 
HETATM   19  C   UNL     1       5.296  26.710  50.485  1.00  0.00     0.029 C 
HETATM   20  C   UNL     1       4.963  27.239  51.875  1.00  0.00     0.235 C 
HETATM   21  H   UNL     1       2.963  27.417  51.377  1.00  0.00     0.280 HD
BRANCH  17  22
HETATM   22  C   UNL     1       2.839  28.091  48.949  1.00  0.00     0.264 C 
HETATM   23  O   UNL     1       1.764  28.213  49.523  1.00  0.00    -0.265 OA
BRANCH  22  24
HETATM   24  O   UNL     1       3.047  27.488  47.755  1.00  0.00    -0.322 OA
BRANCH  24  25
HETATM   25  C   UNL     1       2.234  26.328  47.526  1.00  0.00     0.174 C 
HETATM   26  C   UNL     1       3.040  25.099  47.894  1.00  0.00     0.034 C 
ENDBRANCH  24  25
ENDBRANCH  22  24
ENDBRANCH  17  22
ENDBRANCH  14  15
ENDBRANCH  11  14
ENDBRANCH   1  10
BRANCH   9  27
HETATM   27  C   UNL     1       7.466  27.126  54.947  1.00  0.00     0.259 C 
HETATM   28  N   UNL     1       7.445  25.871  55.523  1.00  0.00    -0.323 N 
HETATM   29  H   UNL     1       7.218  25.832  56.505  1.00  0.00     0.169 HD
HETATM   30  O   UNL     1       7.843  27.356  53.796  1.00  0.00    -0.267 OA
BRANCH  28  31
HETATM   31  C   UNL     1       7.699  24.627  54.908  1.00  0.00     0.035 A 
HETATM   32  C   UNL     1       8.595  23.673  55.399  1.00  0.00     0.031 A 
HETATM   33  C   UNL     1       8.798  22.468  54.714  1.00  0.00     0.026 A 
HETATM   34  C   UNL     1       8.116  22.217  53.528  1.00  0.00     0.034 A 
HETATM   35 CL   UNL     1       8.370  20.738  52.690  1.00  0.00    -0.084 Cl
HETATM   36  C   UNL     1       7.226  23.158  53.021  1.00  0.00     0.026 A 
HETATM   37  C   UNL     1       7.014  24.357  53.713  1.00  0.00     0.031 A 
ENDBRANCH  28  31
ENDBRANCH   9  27
TORSDOF 8
ENDMDL
MODEL 7
REMARK VINA RESULT:      -8.9      2.974      5.999
REMARK  8 active torsions:
REMARK  status: ('A' for Active; 'I' for Inactive)
REMARK    1  A    between atoms: C_2  and  O_3 
REMARK    2  A    between atoms: O_3  and  C_4 
REMARK    3  A    between atoms: C_4  and  C_5 
REMARK    4  A    between atoms: N_7  and  C_9 
REMARK    5  A    between atoms: C_9  and  C_10 
REMARK       I    between atoms: C_10  and  N_11 
REMARK    6  A    between atoms: N_11  and  C_12 
REMARK    7  A    between atoms: C_20  and  C_21 
REMARK       I    between atoms: C_21  and  N_22 
REMARK    8  A    between atoms: N_22  and  C_23 
ROOT
HETATM    1  C   UNL     1       6.092  30.133  56.483  1.00  0.00     0.093 C 
HETATM    2  S   UNL     1       5.274  31.297  57.399  1.00  0.00    -0.075 SA
HETATM    3  C   UNL     1       6.542  31.359  58.522  1.00  0.00    -0.008 C 
HETATM    4  C   UNL     1       7.521  30.404  58.289  1.00  0.00    -0.026 C 
HETATM    5  C   UNL     1       8.686  30.269  59.239  1.00  0.00     0.041 C 
HETATM    6  C   UNL     1       8.488  31.040  60.554  1.00  0.00     0.005 C 
HETATM    7  C   UNL     1       7.895  32.431  60.312  1.00  0.00     0.005 C 
HETATM    8  C   UNL     1       6.511  32.328  59.665  1.00  0.00     0.047 C 
HETATM    9  C   UNL     1       7.240  29.630  57.082  1.00  0.00     0.073 C 
ENDROOT
BRANCH   1  10
HETATM   10  N   UNL     1       5.465  29.869  55.282  1.00  0.00    -0.319 N 
HETATM   11  C   UNL     1       4.589  28.810  55.197  1.00  0.00     0.248 C 
HETATM   12  O   UNL     1       4.449  27.922  56.040  1.00  0.00    -0.271 OA
HETATM   13  H   UNL     1       5.953  30.188  54.453  1.00  0.00     0.169 HD
BRANCH  11  14
HETATM   14  C   UNL     1       3.767  28.750  53.908  1.00  0.00     0.337 C 
BRANCH  14  15
HETATM   15  N   UNL     1       4.330  27.677  52.976  1.00  0.00    -0.062 N 
HETATM   16  C   UNL     1       5.448  28.200  52.090  1.00  0.00     0.249 C 
HETATM   17  C   UNL     1       5.739  27.194  50.982  1.00  0.00     0.111 C 
HETATM   18  C   UNL     1       5.978  25.782  51.531  1.00  0.00     0.018 C 
HETATM   19  C   UNL     1       4.956  25.334  52.581  1.00  0.00     0.029 C 
HETATM   20  C   UNL     1       4.683  26.389  53.645  1.00  0.00     0.235 C 
HETATM   21  H   UNL     1       3.535  27.490  52.323  1.00  0.00     0.280 HD
BRANCH  17  22
HETATM   22  C   UNL     1       4.564  27.245  50.033  1.00  0.00     0.264 C 
HETATM   23  O   UNL     1       3.753  28.163  50.049  1.00  0.00    -0.265 OA
BRANCH  22  24
HETATM   24  O   UNL     1       4.620  26.241  49.127  1.00  0.00    -0.322 OA
BRANCH  24  25
HETATM   25  C   UNL     1       4.292  26.632  47.786  1.00  0.00     0.174 C 
HETATM   26  C   UNL     1       3.021  25.916  47.377  1.00  0.00     0.034 C 
ENDBRANCH  24  25
ENDBRANCH  22  24
ENDBRANCH  17  22
ENDBRANCH  14  15
ENDBRANCH  11  14
ENDBRANCH   1  10
BRANCH   9  27
HETATM   27  C   UNL     1       7.941  28.439  56.541  1.00  0.00     0.259 C 
HETATM   28  N   UNL     1       7.420  27.220  56.928  1.00  0.00    -0.323 N 
HETATM   29  H   UNL     1       6.689  27.245  57.624  1.00  0.00     0.169 HD
HETATM   30  O   UNL     1       8.914  28.573  55.798  1.00  0.00    -0.267 OA
BRANCH  28  31
HETATM   31  C   UNL     1       7.778  25.935  56.469  1.00  0.00     0.035 A 
HETATM   32  C   UNL     1       7.576  25.480  55.164  1.00  0.00     0.031 A 
HETATM   33  C   UNL     1       7.948  24.180  54.797  1.00  0.00     0.026 A 
HETATM   34  C   UNL     1       8.511  23.325  55.738  1.00  0.00     0.034 A 
HETATM   35 CL   UNL     1       8.963  21.730  55.284  1.00  0.00    -0.084 Cl
HETATM   36  C   UNL     1       8.712  23.759  57.044  1.00  0.00     0.026 A 
HETATM   37  C   UNL     1       8.352  25.062  57.406  1.00  0.00     0.031 A 
ENDBRANCH  28  31
ENDBRANCH   9  27
TORSDOF 8
ENDMDL
MODEL 8
REMARK VINA RESULT:      -8.8      3.320      5.966
REMARK  8 active torsions:
REMARK  status: ('A' for Active; 'I' for Inactive)
REMARK    1  A    between atoms: C_2  and  O_3 
REMARK    2  A    between atoms: O_3  and  C_4 
REMARK    3  A    between atoms: C_4  and  C_5 
REMARK    4  A    between atoms: N_7  and  C_9 
REMARK    5  A    between atoms: C_9  and  C_10 
REMARK       I    between atoms: C_10  and  N_11 
REMARK    6  A    between atoms: N_11  and  C_12 
REMARK    7  A    between atoms: C_20  and  C_21 
REMARK       I    between atoms: C_21  and  N_22 
REMARK    8  A    between atoms: N_22  and  C_23 
ROOT
HETATM    1  C   UNL     1       7.127  25.624  55.270  1.00  0.00     0.093 C 
HETATM    2  S   UNL     1       8.035  24.680  56.341  1.00  0.00    -0.075 SA
HETATM    3  C   UNL     1       8.229  23.471  55.170  1.00  0.00    -0.008 C 
HETATM    4  C   UNL     1       7.495  23.708  54.016  1.00  0.00    -0.026 C 
HETATM    5  C   UNL     1       7.492  22.693  52.899  1.00  0.00     0.041 C 
HETATM    6  C   UNL     1       8.094  21.339  53.310  1.00  0.00     0.005 C 
HETATM    7  C   UNL     1       9.368  21.513  54.141  1.00  0.00     0.005 C 
HETATM    8  C   UNL     1       9.070  22.260  55.444  1.00  0.00     0.047 C 
HETATM    9  C   UNL     1       6.792  24.988  54.082  1.00  0.00     0.073 C 
ENDROOT
BRANCH   1  10
HETATM   10  N   UNL     1       6.861  26.883  55.771  1.00  0.00    -0.319 N 
HETATM   11  C   UNL     1       5.871  27.036  56.715  1.00  0.00     0.248 C 
HETATM   12  O   UNL     1       5.034  26.187  57.026  1.00  0.00    -0.271 OA
HETATM   13  H   UNL     1       7.104  27.656  55.164  1.00  0.00     0.169 HD
BRANCH  11  14
HETATM   14  C   UNL     1       5.818  28.412  57.382  1.00  0.00     0.337 C 
BRANCH  14  15
HETATM   15  N   UNL     1       5.245  29.445  56.411  1.00  0.00    -0.062 N 
HETATM   16  C   UNL     1       3.861  29.071  55.909  1.00  0.00     0.249 C 
HETATM   17  C   UNL     1       3.489  29.952  54.723  1.00  0.00     0.111 C 
HETATM   18  C   UNL     1       3.665  31.444  55.033  1.00  0.00     0.018 C 
HETATM   19  C   UNL     1       4.986  31.791  55.726  1.00  0.00     0.029 C 
HETATM   20  C   UNL     1       5.321  30.860  56.885  1.00  0.00     0.235 C 
HETATM   21  H   UNL     1       5.868  29.355  55.575  1.00  0.00     0.280 HD
BRANCH  17  22
HETATM   22  C   UNL     1       4.352  29.505  53.565  1.00  0.00     0.264 C 
HETATM   23  O   UNL     1       5.365  28.836  53.729  1.00  0.00    -0.265 OA
BRANCH  22  24
HETATM   24  O   UNL     1       3.790  29.831  52.378  1.00  0.00    -0.322 OA
BRANCH  24  25
HETATM   25  C   UNL     1       2.737  28.951  51.958  1.00  0.00     0.174 C 
HETATM   26  C   UNL     1       2.068  29.554  50.739  1.00  0.00     0.034 C 
ENDBRANCH  24  25
ENDBRANCH  22  24
ENDBRANCH  17  22
ENDBRANCH  14  15
ENDBRANCH  11  14
ENDBRANCH   1  10
BRANCH   9  27
HETATM   27  C   UNL     1       5.804  25.570  53.140  1.00  0.00     0.259 C 
HETATM   28  N   UNL     1       6.339  26.168  52.017  1.00  0.00    -0.323 N 
HETATM   29  H   UNL     1       7.345  26.255  51.990  1.00  0.00     0.169 HD
HETATM   30  O   UNL     1       4.598  25.500  53.381  1.00  0.00    -0.267 OA
BRANCH  28  31
HETATM   31  C   UNL     1       5.656  26.674  50.890  1.00  0.00     0.035 A 
HETATM   32  C   UNL     1       4.726  25.948  50.142  1.00  0.00     0.031 A 
HETATM   33  C   UNL     1       4.105  26.524  49.026  1.00  0.00     0.026 A 
HETATM   34  C   UNL     1       4.422  27.824  48.646  1.00  0.00     0.034 A 
HETATM   35 CL   UNL     1       3.660  28.525  47.275  1.00  0.00    -0.084 Cl
HETATM   36  C   UNL     1       5.351  28.558  49.375  1.00  0.00     0.026 A 
HETATM   37  C   UNL     1       5.961  27.986  50.497  1.00  0.00     0.031 A 
ENDBRANCH  28  31
ENDBRANCH   9  27
TORSDOF 8
ENDMDL
MODEL 9
REMARK VINA RESULT:      -8.6      3.461      6.873
REMARK  8 active torsions:
REMARK  status: ('A' for Active; 'I' for Inactive)
REMARK    1  A    between atoms: C_2  and  O_3 
REMARK    2  A    between atoms: O_3  and  C_4 
REMARK    3  A    between atoms: C_4  and  C_5 
REMARK    4  A    between atoms: N_7  and  C_9 
REMARK    5  A    between atoms: C_9  and  C_10 
REMARK       I    between atoms: C_10  and  N_11 
REMARK    6  A    between atoms: N_11  and  C_12 
REMARK    7  A    between atoms: C_20  and  C_21 
REMARK       I    between atoms: C_21  and  N_22 
REMARK    8  A    between atoms: N_22  and  C_23 
ROOT
HETATM    1  C   UNL     1       7.362  24.949  55.224  1.00  0.00     0.093 C 
HETATM    2  S   UNL     1       7.315  23.819  56.482  1.00  0.00    -0.075 SA
HETATM    3  C   UNL     1       7.696  22.559  55.415  1.00  0.00    -0.008 C 
HETATM    4  C   UNL     1       7.722  22.960  54.086  1.00  0.00    -0.026 C 
HETATM    5  C   UNL     1       7.970  21.948  52.995  1.00  0.00     0.041 C 
HETATM    6  C   UNL     1       7.874  20.493  53.485  1.00  0.00     0.005 C 
HETATM    7  C   UNL     1       8.570  20.303  54.836  1.00  0.00     0.005 C 
HETATM    8  C   UNL     1       7.905  21.161  55.916  1.00  0.00     0.047 C 
HETATM    9  C   UNL     1       7.481  24.396  53.955  1.00  0.00     0.073 C 
ENDROOT
BRANCH   1  10
HETATM   10  N   UNL     1       7.262  26.249  55.678  1.00  0.00    -0.319 N 
HETATM   11  C   UNL     1       6.116  26.651  56.324  1.00  0.00     0.248 C 
HETATM   12  O   UNL     1       5.056  26.023  56.368  1.00  0.00    -0.271 OA
HETATM   13  H   UNL     1       7.830  26.929  55.186  1.00  0.00     0.169 HD
BRANCH  11  14
HETATM   14  C   UNL     1       6.198  28.022  56.999  1.00  0.00     0.337 C 
BRANCH  14  15
HETATM   15  N   UNL     1       5.328  29.030  56.248  1.00  0.00    -0.062 N 
HETATM   16  C   UNL     1       5.915  30.431  56.258  1.00  0.00     0.249 C 
HETATM   17  C   UNL     1       4.867  31.431  55.785  1.00  0.00     0.111 C 
HETATM   18  C   UNL     1       4.238  31.021  54.447  1.00  0.00     0.018 C 
HETATM   19  C   UNL     1       3.829  29.547  54.370  1.00  0.00     0.029 C 
HETATM   20  C   UNL     1       4.903  28.596  54.883  1.00  0.00     0.235 C 
HETATM   21  H   UNL     1       4.471  29.093  56.844  1.00  0.00     0.280 HD
BRANCH  17  22
HETATM   22  C   UNL     1       3.840  31.535  56.889  1.00  0.00     0.264 C 
HETATM   23  O   UNL     1       2.666  31.802  56.663  1.00  0.00    -0.265 OA
BRANCH  22  24
HETATM   24  O   UNL     1       4.365  31.179  58.084  1.00  0.00    -0.322 OA
BRANCH  24  25
HETATM   25  C   UNL     1       3.395  30.977  59.123  1.00  0.00     0.174 C 
HETATM   26  C   UNL     1       3.498  32.127  60.104  1.00  0.00     0.034 C 
ENDBRANCH  24  25
ENDBRANCH  22  24
ENDBRANCH  17  22
ENDBRANCH  14  15
ENDBRANCH  11  14
ENDBRANCH   1  10
BRANCH   9  27
HETATM   27  C   UNL     1       7.294  25.212  52.730  1.00  0.00     0.259 C 
HETATM   28  N   UNL     1       5.990  25.573  52.455  1.00  0.00    -0.323 N 
HETATM   29  H   UNL     1       5.277  25.163  53.040  1.00  0.00     0.169 HD
HETATM   30  O   UNL     1       8.262  25.527  52.037  1.00  0.00    -0.267 OA
BRANCH  28  31
HETATM   31  C   UNL     1       5.523  26.454  51.456  1.00  0.00     0.035 A 
HETATM   32  C   UNL     1       4.912  26.044  50.268  1.00  0.00     0.031 A 
HETATM   33  C   UNL     1       4.492  26.987  49.321  1.00  0.00     0.026 A 
HETATM   34  C   UNL     1       4.693  28.344  49.553  1.00  0.00     0.034 A 
HETATM   35 CL   UNL     1       4.179  29.497  48.387  1.00  0.00    -0.084 Cl
HETATM   36  C   UNL     1       5.306  28.769  50.726  1.00  0.00     0.026 A 
HETATM   37  C   UNL     1       5.714  27.826  51.678  1.00  0.00     0.031 A 
ENDBRANCH  28  31
ENDBRANCH   9  27
TORSDOF 8
ENDMDL
MODEL 10
REMARK VINA RESULT:      -8.5      2.561      4.469
REMARK  8 active torsions:
REMARK  status: ('A' for Active; 'I' for Inactive)
REMARK    1  A    between atoms: C_2  and  O_3 
REMARK    2  A    between atoms: O_3  and  C_4 
REMARK    3  A    between atoms: C_4  and  C_5 
REMARK    4  A    between atoms: N_7  and  C_9 
REMARK    5  A    between atoms: C_9  and  C_10 
REMARK       I    between atoms: C_10  and  N_11 
REMARK    6  A    between atoms: N_11  and  C_12 
REMARK    7  A    between atoms: C_20  and  C_21 
REMARK       I    between atoms: C_21  and  N_22 
REMARK    8  A    between atoms: N_22  and  C_23 
ROOT
HETATM    1  C   UNL     1       7.434  25.929  53.731  1.00  0.00     0.093 C 
HETATM    2  S   UNL     1       7.829  24.724  52.611  1.00  0.00    -0.075 SA
HETATM    3  C   UNL     1       7.882  23.552  53.835  1.00  0.00    -0.008 C 
HETATM    4  C   UNL     1       7.741  24.088  55.107  1.00  0.00    -0.026 C 
HETATM    5  C   UNL     1       7.841  23.194  56.319  1.00  0.00     0.041 C 
HETATM    6  C   UNL     1       8.394  21.796  55.997  1.00  0.00     0.005 C 
HETATM    7  C   UNL     1       7.784  21.227  54.713  1.00  0.00     0.005 C 
HETATM    8  C   UNL     1       8.128  22.109  53.509  1.00  0.00     0.047 C 
HETATM    9  C   UNL     1       7.510  25.530  55.059  1.00  0.00     0.073 C 
ENDROOT
BRANCH   1  10
HETATM   10  N   UNL     1       7.107  27.126  53.125  1.00  0.00    -0.319 N 
HETATM   11  C   UNL     1       5.781  27.446  52.937  1.00  0.00     0.248 C 
HETATM   12  O   UNL     1       4.829  26.675  53.068  1.00  0.00    -0.271 OA
HETATM   13  H   UNL     1       7.812  27.511  52.508  1.00  0.00     0.169 HD
BRANCH  11  14
HETATM   14  C   UNL     1       5.519  28.885  52.487  1.00  0.00     0.337 C 
BRANCH  14  15
HETATM   15  N   UNL     1       4.989  29.712  53.659  1.00  0.00    -0.062 N 
HETATM   16  C   UNL     1       3.500  29.994  53.549  1.00  0.00     0.249 C 
HETATM   17  C   UNL     1       3.106  31.072  54.552  1.00  0.00     0.111 C 
HETATM   18  C   UNL     1       3.582  30.742  55.973  1.00  0.00     0.018 C 
HETATM   19  C   UNL     1       5.035  30.261  56.054  1.00  0.00     0.029 C 
HETATM   20  C   UNL     1       5.379  29.206  55.009  1.00  0.00     0.235 C 
HETATM   21  H   UNL     1       5.450  30.641  53.520  1.00  0.00     0.280 HD
BRANCH  17  22
HETATM   22  C   UNL     1       3.690  32.370  54.044  1.00  0.00     0.264 C 
HETATM   23  O   UNL     1       4.263  32.447  52.963  1.00  0.00    -0.265 OA
BRANCH  22  24
HETATM   24  O   UNL     1       3.383  33.402  54.864  1.00  0.00    -0.322 OA
BRANCH  24  25
HETATM   25  C   UNL     1       4.485  34.273  55.160  1.00  0.00     0.174 C 
HETATM   26  C   UNL     1       4.776  34.187  56.644  1.00  0.00     0.034 C 
ENDBRANCH  24  25
ENDBRANCH  22  24
ENDBRANCH  17  22
ENDBRANCH  14  15
ENDBRANCH  11  14
ENDBRANCH   1  10
BRANCH   9  27
HETATM   27  C   UNL     1       7.437  26.511  56.170  1.00  0.00     0.259 C 
HETATM   28  N   UNL     1       8.534  27.339  56.300  1.00  0.00    -0.323 N 
HETATM   29  H   UNL     1       9.325  27.134  55.708  1.00  0.00     0.169 HD
HETATM   30  O   UNL     1       6.446  26.552  56.901  1.00  0.00    -0.267 OA
BRANCH  28  31
HETATM   31  C   UNL     1       8.691  28.448  57.158  1.00  0.00     0.035 A 
HETATM   32  C   UNL     1       7.725  28.882  58.070  1.00  0.00     0.031 A 
HETATM   33  C   UNL     1       7.958  30.005  58.874  1.00  0.00     0.026 A 
HETATM   34  C   UNL     1       9.153  30.707  58.760  1.00  0.00     0.034 A 
HETATM   35 CL   UNL     1       9.433  32.086  59.747  1.00  0.00    -0.084 Cl
HETATM   36  C   UNL     1      10.122  30.294  57.853  1.00  0.00     0.026 A 
HETATM   37  C   UNL     1       9.894  29.164  57.059  1.00  0.00     0.031 A 
ENDBRANCH  28  31
ENDBRANCH   9  27
TORSDOF 8
ENDMDL
