MODEL 1
REMARK VINA RESULT:      -9.8      0.000      0.000
REMARK  5 active torsions:
REMARK  status: ('A' for Active; 'I' for Inactive)
REMARK    1  A    between atoms: C_3  and  N_4 
REMARK       I    between atoms: N_4  and  C_5 
REMARK       I    between atoms: C_5  and  N_6 
REMARK    2  A    between atoms: N_6  and  C_7 
REMARK    3  A    between atoms: C_7  and  C_8 
REMARK    4  A    between atoms: C_10  and  N_11 
REMARK       I    between atoms: N_11  and  C_12 
REMARK    5  A    between atoms: C_12  and  C_13 
ROOT
HETATM    1  C   UNL     1       7.873  28.479  56.916  1.00  0.00    -0.038 A 
HETATM    2  C   UNL     1       7.502  29.028  58.156  1.00  0.00     0.038 A 
HETATM    3  C   UNL     1       8.349  29.905  58.837  1.00  0.00     0.035 A 
HETATM    4  C   UNL     1       9.592  30.218  58.275  1.00  0.00     0.029 A 
HETATM    5  C   UNL     1       9.984  29.657  57.058  1.00  0.00     0.003 A 
HETATM    6  C   UNL     1       9.128  28.790  56.380  1.00  0.00     0.009 A 
ENDROOT
BRANCH   1   7
HETATM    7  C   UNL     1       6.918  27.589  56.163  1.00  0.00     0.163 C 
BRANCH   7   8
HETATM    8  N   UNL     1       7.592  26.470  55.544  1.00  0.00    -0.339 N 
HETATM    9  C   UNL     1       7.288  25.172  55.887  1.00  0.00     0.321 C 
HETATM   10  N   UNL     1       8.155  24.296  55.266  1.00  0.00    -0.307 N 
HETATM   11  O   UNL     1       6.416  24.880  56.694  1.00  0.00    -0.247 OA
HETATM   12  H   UNL     1       9.066  24.712  55.128  1.00  0.00     0.170 HD
HETATM   13  H   UNL     1       7.976  26.623  54.623  1.00  0.00     0.164 HD
BRANCH  10  14
HETATM   14  C   UNL     1       8.140  22.891  55.441  1.00  0.00     0.059 A 
HETATM   15  C   UNL     1       7.924  21.948  54.428  1.00  0.00    -0.032 A 
HETATM   16  C   UNL     1       7.763  22.288  52.973  1.00  0.00     0.050 C 
HETATM   17  C   UNL     1       7.879  20.590  54.785  1.00  0.00     0.028 A 
HETATM   18  C   UNL     1       8.111  20.219  56.101  1.00  0.00     0.117 A 
HETATM   19  N   UNL     1       8.391  21.096  57.082  1.00  0.00    -0.271 NA
HETATM   20  C   UNL     1       8.400  22.402  56.726  1.00  0.00     0.146 A 
ENDBRANCH  10  14
ENDBRANCH   7   8
ENDBRANCH   1   7
BRANCH   3  21
HETATM   21  N   UNL     1       8.011  30.534  60.050  1.00  0.00    -0.321 N 
HETATM   22  C   UNL     1       7.418  31.771  60.238  1.00  0.00     0.279 C 
HETATM   23  O   UNL     1       6.985  32.494  59.347  1.00  0.00    -0.265 OA
HETATM   24  H   UNL     1       8.236  30.038  60.906  1.00  0.00     0.169 HD
BRANCH  22  25
HETATM   25  C   UNL     1       7.342  32.148  61.639  1.00  0.00     0.142 A 
HETATM   26  O   UNL     1       6.120  32.417  62.203  1.00  0.00    -0.317 OA
HETATM   27  C   UNL     1       6.339  32.707  63.512  1.00  0.00     0.143 A 
HETATM   28  C   UNL     1       7.681  32.642  63.803  1.00  0.00     0.027 A 
HETATM   29  C   UNL     1       8.329  32.284  62.598  1.00  0.00     0.045 A 
ENDBRANCH  22  25
ENDBRANCH   3  21
TORSDOF 5
ENDMDL
MODEL 2
REMARK VINA RESULT:      -9.2      3.092      4.744
REMARK  5 active torsions:
REMARK  status: ('A' for Active; 'I' for Inactive)
REMARK    1  A    between atoms: C_3  and  N_4 
REMARK       I    between atoms: N_4  and  C_5 
REMARK       I    between atoms: C_5  and  N_6 
REMARK    2  A    between atoms: N_6  and  C_7 
REMARK    3  A    between atoms: C_7  and  C_8 
REMARK    4  A    between atoms: C_10  and  N_11 
REMARK       I    between atoms: N_11  and  C_12 
REMARK    5  A    between atoms: C_12  and  C_13 
ROOT
HETATM    1  C   UNL     1       5.826  27.060  52.649  1.00  0.00    -0.038 A 
HETATM    2  C   UNL     1       6.890  27.652  53.353  1.00  0.00     0.038 A 
HETATM    3  C   UNL     1       6.654  28.459  54.469  1.00  0.00     0.035 A 
HETATM    4  C   UNL     1       5.333  28.690  54.869  1.00  0.00     0.029 A 
HETATM    5  C   UNL     1       4.267  28.131  54.161  1.00  0.00     0.003 A 
HETATM    6  C   UNL     1       4.511  27.318  53.055  1.00  0.00     0.009 A 
ENDROOT
BRANCH   1   7
HETATM    7  C   UNL     1       6.102  26.137  51.491  1.00  0.00     0.163 C 
BRANCH   7   8
HETATM    8  N   UNL     1       7.193  25.230  51.767  1.00  0.00    -0.339 N 
HETATM    9  C   UNL     1       7.031  24.150  52.605  1.00  0.00     0.321 C 
HETATM   10  N   UNL     1       8.241  23.521  52.818  1.00  0.00    -0.307 N 
HETATM   11  O   UNL     1       5.964  23.866  53.132  1.00  0.00    -0.247 OA
HETATM   12  H   UNL     1       9.010  24.177  52.779  1.00  0.00     0.170 HD
HETATM   13  H   UNL     1       7.918  25.163  51.068  1.00  0.00     0.164 HD
BRANCH  10  14
HETATM   14  C   UNL     1       8.428  22.402  53.665  1.00  0.00     0.059 A 
HETATM   15  C   UNL     1       8.673  22.457  55.043  1.00  0.00    -0.032 A 
HETATM   16  C   UNL     1       8.687  23.724  55.852  1.00  0.00     0.050 C 
HETATM   17  C   UNL     1       8.896  21.250  55.725  1.00  0.00     0.028 A 
HETATM   18  C   UNL     1       8.806  20.048  55.040  1.00  0.00     0.117 A 
HETATM   19  N   UNL     1       8.503  19.960  53.732  1.00  0.00    -0.271 NA
HETATM   20  C   UNL     1       8.320  21.134  53.084  1.00  0.00     0.146 A 
ENDBRANCH  10  14
ENDBRANCH   7   8
ENDBRANCH   1   7
BRANCH   3  21
HETATM   21  N   UNL     1       7.675  29.030  55.250  1.00  0.00    -0.321 N 
HETATM   22  C   UNL     1       8.202  28.567  56.444  1.00  0.00     0.279 C 
HETATM   23  O   UNL     1       7.924  27.497  56.976  1.00  0.00    -0.265 OA
HETATM   24  H   UNL     1       8.079  29.899  54.919  1.00  0.00     0.169 HD
BRANCH  22  25
HETATM   25  C   UNL     1       9.157  29.491  57.031  1.00  0.00     0.142 A 
HETATM   26  O   UNL     1       8.791  30.246  58.117  1.00  0.00    -0.317 OA
HETATM   27  C   UNL     1       9.873  30.986  58.472  1.00  0.00     0.143 A 
HETATM   28  C   UNL     1      10.928  30.735  57.629  1.00  0.00     0.027 A 
HETATM   29  C   UNL     1      10.469  29.773  56.698  1.00  0.00     0.045 A 
ENDBRANCH  22  25
ENDBRANCH   3  21
TORSDOF 5
ENDMDL
MODEL 3
REMARK VINA RESULT:      -9.1      1.944      2.628
REMARK  5 active torsions:
REMARK  status: ('A' for Active; 'I' for Inactive)
REMARK    1  A    between atoms: C_3  and  N_4 
REMARK       I    between atoms: N_4  and  C_5 
REMARK       I    between atoms: C_5  and  N_6 
REMARK    2  A    between atoms: N_6  and  C_7 
REMARK    3  A    between atoms: C_7  and  C_8 
REMARK    4  A    between atoms: C_10  and  N_11 
REMARK       I    between atoms: N_11  and  C_12 
REMARK    5  A    between atoms: C_12  and  C_13 
ROOT
HETATM    1  C   UNL     1       6.043  28.210  55.040  1.00  0.00    -0.038 A 
HETATM    2  C   UNL     1       6.854  28.741  56.058  1.00  0.00     0.038 A 
HETATM    3  C   UNL     1       6.292  29.298  57.209  1.00  0.00     0.035 A 
HETATM    4  C   UNL     1       4.898  29.340  57.329  1.00  0.00     0.029 A 
HETATM    5  C   UNL     1       4.082  28.842  56.312  1.00  0.00     0.003 A 
HETATM    6  C   UNL     1       4.651  28.278  55.171  1.00  0.00     0.009 A 
ENDROOT
BRANCH   1   7
HETATM    7  C   UNL     1       6.668  27.552  53.837  1.00  0.00     0.163 C 
BRANCH   7   8
HETATM    8  N   UNL     1       7.614  26.525  54.211  1.00  0.00    -0.339 N 
HETATM    9  C   UNL     1       7.211  25.230  54.444  1.00  0.00     0.321 C 
HETATM   10  N   UNL     1       8.266  24.476  54.917  1.00  0.00    -0.307 N 
HETATM   11  O   UNL     1       6.053  24.856  54.316  1.00  0.00    -0.247 OA
HETATM   12  H   UNL     1       8.912  25.040  55.454  1.00  0.00     0.170 HD
HETATM   13  H   UNL     1       8.572  26.662  53.922  1.00  0.00     0.164 HD
BRANCH  10  14
HETATM   14  C   UNL     1       8.176  23.115  55.294  1.00  0.00     0.059 A 
HETATM   15  C   UNL     1       7.980  22.039  54.417  1.00  0.00    -0.032 A 
HETATM   16  C   UNL     1       7.924  22.165  52.921  1.00  0.00     0.050 C 
HETATM   17  C   UNL     1       7.851  20.752  54.965  1.00  0.00     0.028 A 
HETATM   18  C   UNL     1       7.984  20.573  56.333  1.00  0.00     0.117 A 
HETATM   19  N   UNL     1       8.243  21.576  57.192  1.00  0.00    -0.271 NA
HETATM   20  C   UNL     1       8.334  22.813  56.651  1.00  0.00     0.146 A 
ENDBRANCH  10  14
ENDBRANCH   7   8
ENDBRANCH   1   7
BRANCH   3  21
HETATM   21  N   UNL     1       7.049  29.791  58.289  1.00  0.00    -0.321 N 
HETATM   22  C   UNL     1       7.197  31.103  58.703  1.00  0.00     0.279 C 
HETATM   23  O   UNL     1       6.591  32.067  58.243  1.00  0.00    -0.265 OA
HETATM   24  H   UNL     1       7.570  29.113  58.835  1.00  0.00     0.169 HD
BRANCH  22  25
HETATM   25  C   UNL     1       8.163  31.246  59.779  1.00  0.00     0.142 A 
HETATM   26  O   UNL     1       8.481  30.158  60.553  1.00  0.00    -0.317 OA
HETATM   27  C   UNL     1       9.419  30.565  61.447  1.00  0.00     0.143 A 
HETATM   28  C   UNL     1       9.706  31.897  61.274  1.00  0.00     0.027 A 
HETATM   29  C   UNL     1       8.897  32.339  60.201  1.00  0.00     0.045 A 
ENDBRANCH  22  25
ENDBRANCH   3  21
TORSDOF 5
ENDMDL
MODEL 4
REMARK VINA RESULT:      -9.1      2.363      4.157
REMARK  5 active torsions:
REMARK  status: ('A' for Active; 'I' for Inactive)
REMARK    1  A    between atoms: C_3  and  N_4 
REMARK       I    between atoms: N_4  and  C_5 
REMARK       I    between atoms: C_5  and  N_6 
REMARK    2  A    between atoms: N_6  and  C_7 
REMARK    3  A    between atoms: C_7  and  C_8 
REMARK    4  A    between atoms: C_10  and  N_11 
REMARK       I    between atoms: N_11  and  C_12 
REMARK    5  A    between atoms: C_12  and  C_13 
ROOT
HETATM    1  C   UNL     1       7.862  31.224  59.814  1.00  0.00    -0.038 A 
HETATM    2  C   UNL     1       6.980  31.870  60.699  1.00  0.00     0.038 A 
HETATM    3  C   UNL     1       7.379  32.207  61.994  1.00  0.00     0.035 A 
HETATM    4  C   UNL     1       8.673  31.872  62.412  1.00  0.00     0.029 A 
HETATM    5  C   UNL     1       9.548  31.206  61.552  1.00  0.00     0.003 A 
HETATM    6  C   UNL     1       9.146  30.882  60.257  1.00  0.00     0.009 A 
ENDROOT
BRANCH   1   7
HETATM    7  C   UNL     1       7.437  30.930  58.398  1.00  0.00     0.163 C 
BRANCH   7   8
HETATM    8  N   UNL     1       6.954  29.577  58.246  1.00  0.00    -0.339 N 
HETATM    9  C   UNL     1       7.726  28.603  57.655  1.00  0.00     0.321 C 
HETATM   10  N   UNL     1       6.999  27.440  57.501  1.00  0.00    -0.307 N 
HETATM   11  O   UNL     1       8.867  28.801  57.261  1.00  0.00    -0.247 OA
HETATM   12  H   UNL     1       6.016  27.634  57.361  1.00  0.00     0.170 HD
HETATM   13  H   UNL     1       6.250  29.269  58.900  1.00  0.00     0.164 HD
BRANCH  10  14
HETATM   14  C   UNL     1       7.488  26.261  56.889  1.00  0.00     0.059 A 
HETATM   15  C   UNL     1       7.331  25.922  55.538  1.00  0.00    -0.032 A 
HETATM   16  C   UNL     1       6.691  26.811  54.509  1.00  0.00     0.050 C 
HETATM   17  C   UNL     1       7.826  24.681  55.105  1.00  0.00     0.028 A 
HETATM   18  C   UNL     1       8.503  23.863  55.997  1.00  0.00     0.117 A 
HETATM   19  N   UNL     1       8.730  24.193  57.281  1.00  0.00    -0.271 NA
HETATM   20  C   UNL     1       8.221  25.379  57.689  1.00  0.00     0.146 A 
ENDBRANCH  10  14
ENDBRANCH   7   8
ENDBRANCH   1   7
BRANCH   3  21
HETATM   21  N   UNL     1       6.566  32.906  62.905  1.00  0.00    -0.321 N 
HETATM   22  C   UNL     1       5.382  32.491  63.491  1.00  0.00     0.279 C 
HETATM   23  O   UNL     1       4.891  31.371  63.384  1.00  0.00    -0.265 OA
HETATM   24  H   UNL     1       6.863  33.840  63.168  1.00  0.00     0.169 HD
BRANCH  22  25
HETATM   25  C   UNL     1       4.753  33.534  64.281  1.00  0.00     0.142 A 
HETATM   26  O   UNL     1       4.523  33.326  65.619  1.00  0.00    -0.317 OA
HETATM   27  C   UNL     1       3.961  34.462  66.109  1.00  0.00     0.143 A 
HETATM   28  C   UNL     1       3.812  35.396  65.112  1.00  0.00     0.027 A 
HETATM   29  C   UNL     1       4.319  34.800  63.933  1.00  0.00     0.045 A 
ENDBRANCH  22  25
ENDBRANCH   3  21
TORSDOF 5
ENDMDL
MODEL 5
REMARK VINA RESULT:      -9.0      4.010      6.526
REMARK  5 active torsions:
REMARK  status: ('A' for Active; 'I' for Inactive)
REMARK    1  A    between atoms: C_3  and  N_4 
REMARK       I    between atoms: N_4  and  C_5 
REMARK       I    between atoms: C_5  and  N_6 
REMARK    2  A    between atoms: N_6  and  C_7 
REMARK    3  A    between atoms: C_7  and  C_8 
REMARK    4  A    between atoms: C_10  and  N_11 
REMARK       I    between atoms: N_11  and  C_12 
REMARK    5  A    between atoms: C_12  and  C_13 
ROOT
HETATM    1  C   UNL     1       7.375  27.227  57.274  1.00  0.00    -0.038 A 
HETATM    2  C   UNL     1       7.003  27.264  55.918  1.00  0.00     0.038 A 
HETATM    3  C   UNL     1       6.739  28.477  55.278  1.00  0.00     0.035 A 
HETATM    4  C   UNL     1       6.830  29.665  56.014  1.00  0.00     0.029 A 
HETATM    5  C   UNL     1       7.171  29.638  57.368  1.00  0.00     0.003 A 
HETATM    6  C   UNL     1       7.443  28.424  57.997  1.00  0.00     0.009 A 
ENDROOT
BRANCH   1   7
HETATM    7  C   UNL     1       7.723  25.916  57.930  1.00  0.00     0.163 C 
BRANCH   7   8
HETATM    8  N   UNL     1       7.180  24.787  57.209  1.00  0.00    -0.339 N 
HETATM    9  C   UNL     1       7.986  23.960  56.461  1.00  0.00     0.321 C 
HETATM   10  N   UNL     1       7.222  23.047  55.763  1.00  0.00    -0.307 N 
HETATM   11  O   UNL     1       9.200  24.095  56.388  1.00  0.00    -0.247 OA
HETATM   12  H   UNL     1       6.318  23.430  55.520  1.00  0.00     0.170 HD
HETATM   13  H   UNL     1       6.320  24.393  57.562  1.00  0.00     0.164 HD
BRANCH  10  14
HETATM   14  C   UNL     1       7.741  22.081  54.867  1.00  0.00     0.059 A 
HETATM   15  C   UNL     1       7.923  22.264  53.490  1.00  0.00    -0.032 A 
HETATM   16  C   UNL     1       7.674  23.557  52.766  1.00  0.00     0.050 C 
HETATM   17  C   UNL     1       8.394  21.178  52.734  1.00  0.00     0.028 A 
HETATM   18  C   UNL     1       8.723  19.991  53.370  1.00  0.00     0.117 A 
HETATM   19  N   UNL     1       8.626  19.809  54.699  1.00  0.00    -0.271 NA
HETATM   20  C   UNL     1       8.143  20.855  55.409  1.00  0.00     0.146 A 
ENDBRANCH  10  14
ENDBRANCH   7   8
ENDBRANCH   1   7
BRANCH   3  21
HETATM   21  N   UNL     1       6.422  28.586  53.912  1.00  0.00    -0.321 N 
HETATM   22  C   UNL     1       5.190  28.419  53.302  1.00  0.00     0.279 C 
HETATM   23  O   UNL     1       4.125  28.245  53.887  1.00  0.00    -0.265 OA
HETATM   24  H   UNL     1       7.182  28.800  53.276  1.00  0.00     0.169 HD
BRANCH  22  25
HETATM   25  C   UNL     1       5.269  28.480  51.853  1.00  0.00     0.142 A 
HETATM   26  O   UNL     1       5.518  29.682  51.237  1.00  0.00    -0.317 OA
HETATM   27  C   UNL     1       5.571  29.443  49.901  1.00  0.00     0.143 A 
HETATM   28  C   UNL     1       5.348  28.112  49.639  1.00  0.00     0.027 A 
HETATM   29  C   UNL     1       5.151  27.490  50.895  1.00  0.00     0.045 A 
ENDBRANCH  22  25
ENDBRANCH   3  21
TORSDOF 5
ENDMDL
MODEL 6
REMARK VINA RESULT:      -9.0      2.466      4.050
REMARK  5 active torsions:
REMARK  status: ('A' for Active; 'I' for Inactive)
REMARK    1  A    between atoms: C_3  and  N_4 
REMARK       I    between atoms: N_4  and  C_5 
REMARK       I    between atoms: C_5  and  N_6 
REMARK    2  A    between atoms: N_6  and  C_7 
REMARK    3  A    between atoms: C_7  and  C_8 
REMARK    4  A    between atoms: C_10  and  N_11 
REMARK       I    between atoms: N_11  and  C_12 
REMARK    5  A    between atoms: C_12  and  C_13 
ROOT
HETATM    1  C   UNL     1       7.164  31.179  59.050  1.00  0.00    -0.038 A 
HETATM    2  C   UNL     1       7.219  31.581  60.397  1.00  0.00     0.038 A 
HETATM    3  C   UNL     1       6.269  32.458  60.925  1.00  0.00     0.035 A 
HETATM    4  C   UNL     1       5.263  32.951  60.085  1.00  0.00     0.029 A 
HETATM    5  C   UNL     1       5.215  32.581  58.740  1.00  0.00     0.003 A 
HETATM    6  C   UNL     1       6.162  31.698  58.223  1.00  0.00     0.009 A 
ENDROOT
BRANCH   1   7
HETATM    7  C   UNL     1       8.157  30.179  58.516  1.00  0.00     0.163 C 
BRANCH   7   8
HETATM    8  N   UNL     1       7.605  28.846  58.453  1.00  0.00    -0.339 N 
HETATM    9  C   UNL     1       7.808  28.037  57.357  1.00  0.00     0.321 C 
HETATM   10  N   UNL     1       7.071  26.876  57.473  1.00  0.00    -0.307 N 
HETATM   11  O   UNL     1       8.490  28.370  56.398  1.00  0.00    -0.247 OA
HETATM   12  H   UNL     1       6.216  27.031  57.990  1.00  0.00     0.170 HD
HETATM   13  H   UNL     1       7.421  28.386  59.333  1.00  0.00     0.164 HD
BRANCH  10  14
HETATM   14  C   UNL     1       7.024  25.853  56.496  1.00  0.00     0.059 A 
HETATM   15  C   UNL     1       7.889  24.752  56.430  1.00  0.00    -0.032 A 
HETATM   16  C   UNL     1       8.949  24.444  57.449  1.00  0.00     0.050 C 
HETATM   17  C   UNL     1       7.743  23.859  55.356  1.00  0.00     0.028 A 
HETATM   18  C   UNL     1       6.721  24.051  54.438  1.00  0.00     0.117 A 
HETATM   19  N   UNL     1       5.833  25.058  54.515  1.00  0.00    -0.271 NA
HETATM   20  C   UNL     1       6.006  25.926  55.540  1.00  0.00     0.146 A 
ENDBRANCH  10  14
ENDBRANCH   7   8
ENDBRANCH   1   7
BRANCH   3  21
HETATM   21  N   UNL     1       6.233  32.851  62.276  1.00  0.00    -0.321 N 
HETATM   22  C   UNL     1       5.505  32.293  63.312  1.00  0.00     0.279 C 
HETATM   23  O   UNL     1       4.831  31.270  63.237  1.00  0.00    -0.265 OA
HETATM   24  H   UNL     1       6.796  33.653  62.538  1.00  0.00     0.169 HD
BRANCH  22  25
HETATM   25  C   UNL     1       5.619  33.048  64.548  1.00  0.00     0.142 A 
HETATM   26  O   UNL     1       4.502  33.269  65.314  1.00  0.00    -0.317 OA
HETATM   27  C   UNL     1       4.901  33.964  66.411  1.00  0.00     0.143 A 
HETATM   28  C   UNL     1       6.253  34.207  66.364  1.00  0.00     0.027 A 
HETATM   29  C   UNL     1       6.718  33.620  65.163  1.00  0.00     0.045 A 
ENDBRANCH  22  25
ENDBRANCH   3  21
TORSDOF 5
ENDMDL
MODEL 7
REMARK VINA RESULT:      -8.8      1.771     10.385
REMARK  5 active torsions:
REMARK  status: ('A' for Active; 'I' for Inactive)
REMARK    1  A    between atoms: C_3  and  N_4 
REMARK       I    between atoms: N_4  and  C_5 
REMARK       I    between atoms: C_5  and  N_6 
REMARK    2  A    between atoms: N_6  and  C_7 
REMARK    3  A    between atoms: C_7  and  C_8 
REMARK    4  A    between atoms: C_10  and  N_11 
REMARK       I    between atoms: N_11  and  C_12 
REMARK    5  A    between atoms: C_12  and  C_13 
ROOT
HETATM    1  C   UNL     1       7.762  29.183  57.340  1.00  0.00    -0.038 A 
HETATM    2  C   UNL     1       8.055  27.885  56.883  1.00  0.00     0.038 A 
HETATM    3  C   UNL     1       7.354  27.324  55.813  1.00  0.00     0.035 A 
HETATM    4  C   UNL     1       6.333  28.067  55.209  1.00  0.00     0.029 A 
HETATM    5  C   UNL     1       6.015  29.345  55.672  1.00  0.00     0.003 A 
HETATM    6  C   UNL     1       6.726  29.902  56.733  1.00  0.00     0.009 A 
ENDROOT
BRANCH   1   7
HETATM    7  C   UNL     1       8.574  29.798  58.449  1.00  0.00     0.163 C 
BRANCH   7   8
HETATM    8  N   UNL     1       7.759  30.146  59.591  1.00  0.00    -0.339 N 
HETATM    9  C   UNL     1       7.446  31.456  59.875  1.00  0.00     0.321 C 
HETATM   10  N   UNL     1       6.780  31.540  61.081  1.00  0.00    -0.307 N 
HETATM   11  O   UNL     1       7.796  32.394  59.173  1.00  0.00    -0.247 OA
HETATM   12  H   UNL     1       7.075  30.812  61.718  1.00  0.00     0.170 HD
HETATM   13  H   UNL     1       7.122  29.439  59.927  1.00  0.00     0.164 HD
BRANCH  10  14
HETATM   14  C   UNL     1       6.355  32.749  61.682  1.00  0.00     0.059 A 
HETATM   15  C   UNL     1       6.870  33.293  62.867  1.00  0.00    -0.032 A 
HETATM   16  C   UNL     1       8.022  32.712  63.636  1.00  0.00     0.050 C 
HETATM   17  C   UNL     1       6.291  34.474  63.360  1.00  0.00     0.028 A 
HETATM   18  C   UNL     1       5.283  35.097  62.639  1.00  0.00     0.117 A 
HETATM   19  N   UNL     1       4.818  34.637  61.464  1.00  0.00    -0.271 NA
HETATM   20  C   UNL     1       5.366  33.482  61.018  1.00  0.00     0.146 A 
ENDBRANCH  10  14
ENDBRANCH   7   8
ENDBRANCH   1   7
BRANCH   3  21
HETATM   21  N   UNL     1       7.639  26.057  55.271  1.00  0.00    -0.321 N 
HETATM   22  C   UNL     1       7.470  24.815  55.860  1.00  0.00     0.279 C 
HETATM   23  O   UNL     1       6.933  24.609  56.944  1.00  0.00    -0.265 OA
HETATM   24  H   UNL     1       8.031  26.031  54.336  1.00  0.00     0.169 HD
BRANCH  22  25
HETATM   25  C   UNL     1       7.997  23.733  55.047  1.00  0.00     0.142 A 
HETATM   26  O   UNL     1       8.939  22.884  55.574  1.00  0.00    -0.317 OA
HETATM   27  C   UNL     1       9.225  21.962  54.618  1.00  0.00     0.143 A 
HETATM   28  C   UNL     1       8.496  22.205  53.479  1.00  0.00     0.027 A 
HETATM   29  C   UNL     1       7.706  23.347  53.751  1.00  0.00     0.045 A 
ENDBRANCH  22  25
ENDBRANCH   3  21
TORSDOF 5
ENDMDL
MODEL 8
REMARK VINA RESULT:      -8.6      2.045      2.519
REMARK  5 active torsions:
REMARK  status: ('A' for Active; 'I' for Inactive)
REMARK    1  A    between atoms: C_3  and  N_4 
REMARK       I    between atoms: N_4  and  C_5 
REMARK       I    between atoms: C_5  and  N_6 
REMARK    2  A    between atoms: N_6  and  C_7 
REMARK    3  A    between atoms: C_7  and  C_8 
REMARK    4  A    between atoms: C_10  and  N_11 
REMARK       I    between atoms: N_11  and  C_12 
REMARK    5  A    between atoms: C_12  and  C_13 
ROOT
HETATM    1  C   UNL     1       5.093  29.482  56.512  1.00  0.00    -0.038 A 
HETATM    2  C   UNL     1       5.591  29.873  57.767  1.00  0.00     0.038 A 
HETATM    3  C   UNL     1       5.695  31.223  58.111  1.00  0.00     0.035 A 
HETATM    4  C   UNL     1       5.314  32.191  57.174  1.00  0.00     0.029 A 
HETATM    5  C   UNL     1       4.844  31.815  55.914  1.00  0.00     0.003 A 
HETATM    6  C   UNL     1       4.734  30.466  55.583  1.00  0.00     0.009 A 
ENDROOT
BRANCH   1   7
HETATM    7  C   UNL     1       4.923  28.021  56.185  1.00  0.00     0.163 C 
BRANCH   7   8
HETATM    8  N   UNL     1       6.096  27.467  55.549  1.00  0.00    -0.339 N 
HETATM    9  C   UNL     1       6.206  26.118  55.300  1.00  0.00     0.321 C 
HETATM   10  N   UNL     1       7.464  25.819  54.817  1.00  0.00    -0.307 N 
HETATM   11  O   UNL     1       5.320  25.315  55.558  1.00  0.00    -0.247 OA
HETATM   12  H   UNL     1       8.163  26.448  55.190  1.00  0.00     0.170 HD
HETATM   13  H   UNL     1       6.629  28.087  54.956  1.00  0.00     0.164 HD
BRANCH  10  14
HETATM   14  C   UNL     1       7.916  24.515  54.502  1.00  0.00     0.059 A 
HETATM   15  C   UNL     1       7.954  23.956  53.217  1.00  0.00    -0.032 A 
HETATM   16  C   UNL     1       7.600  24.698  51.959  1.00  0.00     0.050 C 
HETATM   17  C   UNL     1       8.374  22.622  53.087  1.00  0.00     0.028 A 
HETATM   18  C   UNL     1       8.795  21.923  54.208  1.00  0.00     0.117 A 
HETATM   19  N   UNL     1       8.837  22.455  55.443  1.00  0.00    -0.271 NA
HETATM   20  C   UNL     1       8.401  23.732  55.555  1.00  0.00     0.146 A 
ENDBRANCH  10  14
ENDBRANCH   7   8
ENDBRANCH   1   7
BRANCH   3  21
HETATM   21  N   UNL     1       6.128  31.678  59.370  1.00  0.00    -0.321 N 
HETATM   22  C   UNL     1       7.400  32.073  59.748  1.00  0.00     0.279 C 
HETATM   23  O   UNL     1       8.361  32.191  58.995  1.00  0.00    -0.265 OA
HETATM   24  H   UNL     1       5.436  31.714  60.111  1.00  0.00     0.169 HD
BRANCH  22  25
HETATM   25  C   UNL     1       7.499  32.356  61.170  1.00  0.00     0.142 A 
HETATM   26  O   UNL     1       6.527  33.107  61.782  1.00  0.00    -0.317 OA
HETATM   27  C   UNL     1       6.852  33.186  63.098  1.00  0.00     0.143 A 
HETATM   28  C   UNL     1       8.023  32.511  63.348  1.00  0.00     0.027 A 
HETATM   29  C   UNL     1       8.443  31.977  62.107  1.00  0.00     0.045 A 
ENDBRANCH  22  25
ENDBRANCH   3  21
TORSDOF 5
ENDMDL
MODEL 9
REMARK VINA RESULT:      -8.6      5.139      8.889
REMARK  5 active torsions:
REMARK  status: ('A' for Active; 'I' for Inactive)
REMARK    1  A    between atoms: C_3  and  N_4 
REMARK       I    between atoms: N_4  and  C_5 
REMARK       I    between atoms: C_5  and  N_6 
REMARK    2  A    between atoms: N_6  and  C_7 
REMARK    3  A    between atoms: C_7  and  C_8 
REMARK    4  A    between atoms: C_10  and  N_11 
REMARK       I    between atoms: N_11  and  C_12 
REMARK    5  A    between atoms: C_12  and  C_13 
ROOT
HETATM    1  C   UNL     1       4.390  28.780  54.532  1.00  0.00    -0.038 A 
HETATM    2  C   UNL     1       4.108  28.031  53.376  1.00  0.00     0.038 A 
HETATM    3  C   UNL     1       3.603  28.644  52.226  1.00  0.00     0.035 A 
HETATM    4  C   UNL     1       3.360  30.023  52.247  1.00  0.00     0.029 A 
HETATM    5  C   UNL     1       3.610  30.772  53.398  1.00  0.00     0.003 A 
HETATM    6  C   UNL     1       4.123  30.154  54.538  1.00  0.00     0.009 A 
ENDROOT
BRANCH   1   7
HETATM    7  C   UNL     1       4.999  28.113  55.738  1.00  0.00     0.163 C 
BRANCH   7   8
HETATM    8  N   UNL     1       5.078  26.678  55.583  1.00  0.00    -0.339 N 
HETATM    9  C   UNL     1       6.289  26.037  55.454  1.00  0.00     0.321 C 
HETATM   10  N   UNL     1       6.098  24.698  55.182  1.00  0.00    -0.307 N 
HETATM   11  O   UNL     1       7.363  26.621  55.501  1.00  0.00    -0.247 OA
HETATM   12  H   UNL     1       5.248  24.545  54.657  1.00  0.00     0.170 HD
HETATM   13  H   UNL     1       4.311  26.137  55.953  1.00  0.00     0.164 HD
BRANCH  10  14
HETATM   14  C   UNL     1       7.140  23.768  54.951  1.00  0.00     0.059 A 
HETATM   15  C   UNL     1       7.731  23.500  53.709  1.00  0.00    -0.032 A 
HETATM   16  C   UNL     1       7.403  24.232  52.439  1.00  0.00     0.050 C 
HETATM   17  C   UNL     1       8.714  22.499  53.645  1.00  0.00     0.028 A 
HETATM   18  C   UNL     1       9.115  21.856  54.806  1.00  0.00     0.117 A 
HETATM   19  N   UNL     1       8.617  22.141  56.023  1.00  0.00    -0.271 NA
HETATM   20  C   UNL     1       7.650  23.087  56.063  1.00  0.00     0.146 A 
ENDBRANCH  10  14
ENDBRANCH   7   8
ENDBRANCH   1   7
BRANCH   3  21
HETATM   21  N   UNL     1       3.357  27.962  51.021  1.00  0.00    -0.321 N 
HETATM   22  C   UNL     1       4.166  27.883  49.900  1.00  0.00     0.279 C 
HETATM   23  O   UNL     1       5.308  28.322  49.816  1.00  0.00    -0.265 OA
HETATM   24  H   UNL     1       2.472  27.473  50.939  1.00  0.00     0.169 HD
BRANCH  22  25
HETATM   25  C   UNL     1       3.523  27.197  48.792  1.00  0.00     0.142 A 
HETATM   26  O   UNL     1       2.725  27.904  47.928  1.00  0.00    -0.317 OA
HETATM   27  C   UNL     1       2.287  27.031  46.984  1.00  0.00     0.143 A 
HETATM   28  C   UNL     1       2.776  25.770  47.228  1.00  0.00     0.027 A 
HETATM   29  C   UNL     1       3.571  25.873  48.394  1.00  0.00     0.045 A 
ENDBRANCH  22  25
ENDBRANCH   3  21
TORSDOF 5
ENDMDL
MODEL 10
REMARK VINA RESULT:      -8.5      1.947     10.306
REMARK  5 active torsions:
REMARK  status: ('A' for Active; 'I' for Inactive)
REMARK    1  A    between atoms: C_3  and  N_4 
REMARK       I    between atoms: N_4  and  C_5 
REMARK       I    between atoms: C_5  and  N_6 
REMARK    2  A    between atoms: N_6  and  C_7 
REMARK    3  A    between atoms: C_7  and  C_8 
REMARK    4  A    between atoms: C_10  and  N_11 
REMARK       I    between atoms: N_11  and  C_12 
REMARK    5  A    between atoms: C_12  and  C_13 
ROOT
HETATM    1  C   UNL     1       7.394  29.327  57.794  1.00  0.00    -0.038 A 
HETATM    2  C   UNL     1       7.806  28.097  57.252  1.00  0.00     0.038 A 
HETATM    3  C   UNL     1       6.958  27.355  56.426  1.00  0.00     0.035 A 
HETATM    4  C   UNL     1       5.674  27.846  56.159  1.00  0.00     0.029 A 
HETATM    5  C   UNL     1       5.244  29.052  56.715  1.00  0.00     0.003 A 
HETATM    6  C   UNL     1       6.100  29.791  57.530  1.00  0.00     0.009 A 
ENDROOT
BRANCH   1   7
HETATM    7  C   UNL     1       8.346  30.146  58.627  1.00  0.00     0.163 C 
BRANCH   7   8
HETATM    8  N   UNL     1       7.975  30.158  60.023  1.00  0.00    -0.339 N 
HETATM    9  C   UNL     1       7.490  31.296  60.626  1.00  0.00     0.321 C 
HETATM   10  N   UNL     1       7.341  31.094  61.984  1.00  0.00    -0.307 N 
HETATM   11  O   UNL     1       7.304  32.345  60.025  1.00  0.00    -0.247 OA
HETATM   12  H   UNL     1       8.024  30.439  62.338  1.00  0.00     0.170 HD
HETATM   13  H   UNL     1       7.708  29.274  60.431  1.00  0.00     0.164 HD
BRANCH  10  14
HETATM   14  C   UNL     1       6.901  32.081  62.899  1.00  0.00     0.059 A 
HETATM   15  C   UNL     1       5.578  32.515  63.053  1.00  0.00    -0.032 A 
HETATM   16  C   UNL     1       4.403  31.929  62.323  1.00  0.00     0.050 C 
HETATM   17  C   UNL     1       5.323  33.550  63.968  1.00  0.00     0.028 A 
HETATM   18  C   UNL     1       6.361  34.063  64.730  1.00  0.00     0.117 A 
HETATM   19  N   UNL     1       7.628  33.618  64.656  1.00  0.00    -0.271 NA
HETATM   20  C   UNL     1       7.862  32.641  63.748  1.00  0.00     0.146 A 
ENDBRANCH  10  14
ENDBRANCH   7   8
ENDBRANCH   1   7
BRANCH   3  21
HETATM   21  N   UNL     1       7.331  26.149  55.804  1.00  0.00    -0.321 N 
HETATM   22  C   UNL     1       7.603  25.923  54.466  1.00  0.00     0.279 C 
HETATM   23  O   UNL     1       7.665  26.788  53.597  1.00  0.00    -0.265 OA
HETATM   24  H   UNL     1       7.400  25.327  56.395  1.00  0.00     0.169 HD
BRANCH  22  25
HETATM   25  C   UNL     1       7.828  24.519  54.170  1.00  0.00     0.142 A 
HETATM   26  O   UNL     1       7.453  24.014  52.950  1.00  0.00    -0.317 OA
HETATM   27  C   UNL     1       7.806  22.703  52.934  1.00  0.00     0.143 A 
HETATM   28  C   UNL     1       8.391  22.345  54.125  1.00  0.00     0.027 A 
HETATM   29  C   UNL     1       8.405  23.513  54.924  1.00  0.00     0.045 A 
ENDBRANCH  22  25
ENDBRANCH   3  21
TORSDOF 5
ENDMDL
