MODEL 1
REMARK VINA RESULT:      -8.8      0.000      0.000
REMARK  4 active torsions:
REMARK  status: ('A' for Active; 'I' for Inactive)
REMARK    1  A    between atoms: C_2  and  N_3 
REMARK    2  A    between atoms: C_11  and  N_12 
REMARK    3  A    between atoms: N_12  and  C_15 
REMARK    4  A    between atoms: C_15  and  C_16 
ROOT
HETATM    1  N   UNL     1       6.714  28.260  57.432  1.00  0.00    -0.067 N 
HETATM    2  H   UNL     1       6.807  28.113  58.449  1.00  0.00     0.280 HD
HETATM    3  C   UNL     1       5.371  27.653  57.068  1.00  0.00     0.238 C 
HETATM    4  C   UNL     1       5.192  27.624  55.552  1.00  0.00     0.066 C 
HETATM    5  C   UNL     1       6.315  26.831  54.846  1.00  0.00     0.073 C 
HETATM    6  O   UNL     1       6.176  25.477  55.304  1.00  0.00    -0.339 OA
HETATM    7  C   UNL     1       6.840  24.513  54.599  1.00  0.00     0.078 A 
HETATM    8  C   UNL     1       7.315  24.689  53.294  1.00  0.00     0.006 A 
HETATM    9  C   UNL     1       7.054  25.973  52.551  1.00  0.00     0.224 C 
HETATM   10  C   UNL     1       6.083  26.878  53.324  1.00  0.00     0.076 C 
HETATM   11  C   UNL     1       7.027  23.306  55.272  1.00  0.00     0.037 A 
HETATM   12  C   UNL     1       7.742  22.274  54.670  1.00  0.00     0.003 A 
HETATM   13  C   UNL     1       8.276  22.452  53.398  1.00  0.00     0.001 A 
HETATM   14  C   UNL     1       8.070  23.652  52.714  1.00  0.00     0.012 A 
HETATM   15  C   UNL     1       7.682  27.399  55.288  1.00  0.00     0.066 C 
HETATM   16  C   UNL     1       7.818  27.426  56.811  1.00  0.00     0.238 C 
ENDROOT
BRANCH   9  17
HETATM   17  N   UNL     1       6.497  25.717  51.177  1.00  0.00    -0.063 N 
HETATM   18  H   UNL     1       6.931  26.364  50.506  1.00  0.00     0.278 HD
HETATM   19  H   UNL     1       6.790  24.788  50.845  1.00  0.00     0.278 HD
BRANCH  17  20
HETATM   20  C   UNL     1       5.023  25.855  50.993  1.00  0.00     0.274 C 
BRANCH  20  21
HETATM   21  C   UNL     1       4.728  26.636  49.775  1.00  0.00     0.004 A 
HETATM   22  C   UNL     1       5.065  27.944  49.476  1.00  0.00     0.122 A 
HETATM   23  N   UNL     1       4.569  28.193  48.224  1.00  0.00    -0.285 N 
HETATM   24  C   UNL     1       4.687  29.411  47.453  1.00  0.00     0.179 C 
HETATM   25  N   UNL     1       3.908  27.145  47.711  1.00  0.00    -0.185 NA
HETATM   26  C   UNL     1       4.026  26.193  48.630  1.00  0.00     0.149 A 
ENDBRANCH  20  21
ENDBRANCH  17  20
ENDBRANCH   9  17
BRANCH   1  27
HETATM   27  C   UNL     1       6.832  29.786  57.252  1.00  0.00     0.180 C 
HETATM   28  C   UNL     1       8.033  30.320  58.035  1.00  0.00     0.039 C 
HETATM   29  C   UNL     1       5.560  30.474  57.754  1.00  0.00     0.039 C 
ENDBRANCH   1  27
TORSDOF 4
ENDMDL
MODEL 2
REMARK VINA RESULT:      -8.6      1.922      5.179
REMARK  4 active torsions:
REMARK  status: ('A' for Active; 'I' for Inactive)
REMARK    1  A    between atoms: C_2  and  N_3 
REMARK    2  A    between atoms: C_11  and  N_12 
REMARK    3  A    between atoms: N_12  and  C_15 
REMARK    4  A    between atoms: C_15  and  C_16 
ROOT
HETATM    1  N   UNL     1       8.279  22.533  55.061  1.00  0.00    -0.067 N 
HETATM    2  H   UNL     1       9.015  22.327  55.754  1.00  0.00     0.280 HD
HETATM    3  C   UNL     1       8.991  23.268  53.939  1.00  0.00     0.238 C 
HETATM    4  C   UNL     1       7.981  23.809  52.931  1.00  0.00     0.066 C 
HETATM    5  C   UNL     1       6.952  24.759  53.586  1.00  0.00     0.073 C 
HETATM    6  O   UNL     1       7.711  25.884  54.055  1.00  0.00    -0.339 OA
HETATM    7  C   UNL     1       7.010  27.008  54.390  1.00  0.00     0.078 A 
HETATM    8  C   UNL     1       5.701  27.265  53.968  1.00  0.00     0.006 A 
HETATM    9  C   UNL     1       4.995  26.313  53.039  1.00  0.00     0.224 C 
HETATM   10  C   UNL     1       5.952  25.232  52.515  1.00  0.00     0.076 C 
HETATM   11  C   UNL     1       7.691  27.913  55.204  1.00  0.00     0.037 A 
HETATM   12  C   UNL     1       7.052  29.065  55.656  1.00  0.00     0.003 A 
HETATM   13  C   UNL     1       5.730  29.307  55.298  1.00  0.00     0.001 A 
HETATM   14  C   UNL     1       5.054  28.412  54.466  1.00  0.00     0.012 A 
HETATM   15  C   UNL     1       6.294  24.033  54.781  1.00  0.00     0.066 C 
HETATM   16  C   UNL     1       7.337  23.493  55.760  1.00  0.00     0.238 C 
ENDROOT
BRANCH   9  17
HETATM   17  N   UNL     1       4.380  27.032  51.869  1.00  0.00    -0.063 N 
HETATM   18  H   UNL     1       3.662  26.435  51.439  1.00  0.00     0.278 HD
HETATM   19  H   UNL     1       3.852  27.853  52.197  1.00  0.00     0.278 HD
BRANCH  17  20
HETATM   20  C   UNL     1       5.288  27.451  50.762  1.00  0.00     0.274 C 
BRANCH  20  21
HETATM   21  C   UNL     1       4.728  27.048  49.456  1.00  0.00     0.004 A 
HETATM   22  C   UNL     1       3.904  25.978  49.156  1.00  0.00     0.122 A 
HETATM   23  N   UNL     1       3.658  26.048  47.810  1.00  0.00    -0.285 N 
HETATM   24  C   UNL     1       2.826  25.171  47.017  1.00  0.00     0.179 C 
HETATM   25  N   UNL     1       4.295  27.070  47.220  1.00  0.00    -0.185 NA
HETATM   26  C   UNL     1       4.918  27.695  48.214  1.00  0.00     0.149 A 
ENDBRANCH  20  21
ENDBRANCH  17  20
ENDBRANCH   9  17
BRANCH   1  27
HETATM   27  C   UNL     1       7.699  21.153  54.697  1.00  0.00     0.180 C 
HETATM   28  C   UNL     1       7.671  20.249  55.931  1.00  0.00     0.039 C 
HETATM   29  C   UNL     1       8.552  20.493  53.611  1.00  0.00     0.039 C 
ENDBRANCH   1  27
TORSDOF 4
ENDMDL
MODEL 3
REMARK VINA RESULT:      -8.4      3.777      6.751
REMARK  4 active torsions:
REMARK  status: ('A' for Active; 'I' for Inactive)
REMARK    1  A    between atoms: C_2  and  N_3 
REMARK    2  A    between atoms: C_11  and  N_12 
REMARK    3  A    between atoms: N_12  and  C_15 
REMARK    4  A    between atoms: C_15  and  C_16 
ROOT
HETATM    1  N   UNL     1       8.466  23.003  54.518  1.00  0.00    -0.067 N 
HETATM    2  H   UNL     1       9.439  22.712  54.333  1.00  0.00     0.280 HD
HETATM    3  C   UNL     1       8.144  24.010  53.429  1.00  0.00     0.238 C 
HETATM    4  C   UNL     1       6.795  24.673  53.697  1.00  0.00     0.066 C 
HETATM    5  C   UNL     1       6.754  25.380  55.072  1.00  0.00     0.073 C 
HETATM    6  O   UNL     1       7.724  26.436  54.988  1.00  0.00    -0.339 OA
HETATM    7  C   UNL     1       7.667  27.407  55.949  1.00  0.00     0.078 A 
HETATM    8  C   UNL     1       6.544  27.645  56.750  1.00  0.00     0.006 A 
HETATM    9  C   UNL     1       5.276  26.859  56.545  1.00  0.00     0.224 C 
HETATM   10  C   UNL     1       5.356  25.990  55.281  1.00  0.00     0.076 C 
HETATM   11  C   UNL     1       8.825  28.169  56.095  1.00  0.00     0.037 A 
HETATM   12  C   UNL     1       8.899  29.147  57.084  1.00  0.00     0.003 A 
HETATM   13  C   UNL     1       7.816  29.356  57.930  1.00  0.00     0.001 A 
HETATM   14  C   UNL     1       6.647  28.608  57.772  1.00  0.00     0.012 A 
HETATM   15  C   UNL     1       7.168  24.371  56.165  1.00  0.00     0.066 C 
HETATM   16  C   UNL     1       8.515  23.717  55.854  1.00  0.00     0.238 C 
ENDROOT
BRANCH   9  17
HETATM   17  N   UNL     1       4.075  27.760  56.445  1.00  0.00    -0.063 N 
HETATM   18  H   UNL     1       3.220  27.189  56.412  1.00  0.00     0.278 HD
HETATM   19  H   UNL     1       3.970  28.307  57.311  1.00  0.00     0.278 HD
BRANCH  17  20
HETATM   20  C   UNL     1       3.999  28.684  55.276  1.00  0.00     0.274 C 
BRANCH  20  21
HETATM   21  C   UNL     1       3.800  30.075  55.730  1.00  0.00     0.004 A 
HETATM   22  C   UNL     1       4.212  31.253  55.133  1.00  0.00     0.122 A 
HETATM   23  N   UNL     1       3.773  32.268  55.941  1.00  0.00    -0.285 N 
HETATM   24  C   UNL     1       3.926  33.691  55.735  1.00  0.00     0.179 C 
HETATM   25  N   UNL     1       3.136  31.821  57.034  1.00  0.00    -0.185 NA
HETATM   26  C   UNL     1       3.123  30.499  56.897  1.00  0.00     0.149 A 
ENDBRANCH  20  21
ENDBRANCH  17  20
ENDBRANCH   9  17
BRANCH   1  27
HETATM   27  C   UNL     1       7.660  21.690  54.477  1.00  0.00     0.180 C 
HETATM   28  C   UNL     1       7.961  20.846  55.717  1.00  0.00     0.039 C 
HETATM   29  C   UNL     1       8.023  20.888  53.225  1.00  0.00     0.039 C 
ENDBRANCH   1  27
TORSDOF 4
ENDMDL
MODEL 4
REMARK VINA RESULT:      -8.1      1.529      7.014
REMARK  4 active torsions:
REMARK  status: ('A' for Active; 'I' for Inactive)
REMARK    1  A    between atoms: C_2  and  N_3 
REMARK    2  A    between atoms: C_11  and  N_12 
REMARK    3  A    between atoms: N_12  and  C_15 
REMARK    4  A    between atoms: C_15  and  C_16 
ROOT
HETATM    1  N   UNL     1       4.678  27.736  48.981  1.00  0.00    -0.067 N 
HETATM    2  H   UNL     1       5.062  27.624  48.030  1.00  0.00     0.280 HD
HETATM    3  C   UNL     1       5.709  28.567  49.724  1.00  0.00     0.238 C 
HETATM    4  C   UNL     1       5.364  28.644  51.208  1.00  0.00     0.066 C 
HETATM    5  C   UNL     1       5.273  27.245  51.861  1.00  0.00     0.073 C 
HETATM    6  O   UNL     1       6.597  26.695  51.774  1.00  0.00    -0.339 OA
HETATM    7  C   UNL     1       6.867  25.604  52.552  1.00  0.00     0.078 A 
HETATM    8  C   UNL     1       6.103  25.232  53.665  1.00  0.00     0.006 A 
HETATM    9  C   UNL     1       4.942  26.079  54.114  1.00  0.00     0.224 C 
HETATM   10  C   UNL     1       4.888  27.407  53.344  1.00  0.00     0.076 C 
HETATM   11  C   UNL     1       7.978  24.857  52.164  1.00  0.00     0.037 A 
HETATM   12  C   UNL     1       8.311  23.692  52.850  1.00  0.00     0.003 A 
HETATM   13  C   UNL     1       7.528  23.272  53.920  1.00  0.00     0.001 A 
HETATM   14  C   UNL     1       6.428  24.031  54.323  1.00  0.00     0.012 A 
HETATM   15  C   UNL     1       4.287  26.378  51.048  1.00  0.00     0.066 C 
HETATM   16  C   UNL     1       4.658  26.337  49.565  1.00  0.00     0.238 C 
ENDROOT
BRANCH   9  17
HETATM   17  N   UNL     1       5.006  26.371  55.589  1.00  0.00    -0.063 N 
HETATM   18  H   UNL     1       4.227  25.899  56.066  1.00  0.00     0.278 HD
HETATM   19  H   UNL     1       5.843  25.935  56.000  1.00  0.00     0.278 HD
BRANCH  17  20
HETATM   20  C   UNL     1       4.946  27.800  56.014  1.00  0.00     0.274 C 
BRANCH  20  21
HETATM   21  C   UNL     1       6.092  28.127  56.885  1.00  0.00     0.004 A 
HETATM   22  C   UNL     1       6.459  29.350  57.418  1.00  0.00     0.122 A 
HETATM   23  N   UNL     1       7.587  29.123  58.162  1.00  0.00    -0.285 N 
HETATM   24  C   UNL     1       8.337  30.080  58.944  1.00  0.00     0.179 C 
HETATM   25  N   UNL     1       7.989  27.844  58.115  1.00  0.00    -0.185 NA
HETATM   26  C   UNL     1       7.074  27.233  57.370  1.00  0.00     0.149 A 
ENDBRANCH  20  21
ENDBRANCH  17  20
ENDBRANCH   9  17
BRANCH   1  27
HETATM   27  C   UNL     1       3.307  28.404  48.766  1.00  0.00     0.180 C 
HETATM   28  C   UNL     1       2.315  27.399  48.179  1.00  0.00     0.039 C 
HETATM   29  C   UNL     1       3.444  29.590  47.809  1.00  0.00     0.039 C 
ENDBRANCH   1  27
TORSDOF 4
ENDMDL
MODEL 5
REMARK VINA RESULT:      -8.0      8.093     11.846
REMARK  4 active torsions:
REMARK  status: ('A' for Active; 'I' for Inactive)
REMARK    1  A    between atoms: C_2  and  N_3 
REMARK    2  A    between atoms: C_11  and  N_12 
REMARK    3  A    between atoms: N_12  and  C_15 
REMARK    4  A    between atoms: C_15  and  C_16 
ROOT
HETATM    1  N   UNL     1       2.421  35.333  60.495  1.00  0.00    -0.067 N 
HETATM    2  H   UNL     1       1.530  35.779  60.762  1.00  0.00     0.280 HD
HETATM    3  C   UNL     1       2.231  33.859  60.802  1.00  0.00     0.238 C 
HETATM    4  C   UNL     1       3.549  33.106  60.640  1.00  0.00     0.066 C 
HETATM    5  C   UNL     1       4.663  33.673  61.549  1.00  0.00     0.073 C 
HETATM    6  O   UNL     1       4.217  33.440  62.893  1.00  0.00    -0.339 OA
HETATM    7  C   UNL     1       5.151  33.560  63.885  1.00  0.00     0.078 A 
HETATM    8  C   UNL     1       6.532  33.518  63.664  1.00  0.00     0.006 A 
HETATM    9  C   UNL     1       7.080  33.269  62.284  1.00  0.00     0.224 C 
HETATM   10  C   UNL     1       5.963  32.886  61.301  1.00  0.00     0.076 C 
HETATM   11  C   UNL     1       4.636  33.733  65.169  1.00  0.00     0.037 A 
HETATM   12  C   UNL     1       5.496  33.925  66.247  1.00  0.00     0.003 A 
HETATM   13  C   UNL     1       6.871  33.949  66.038  1.00  0.00     0.001 A 
HETATM   14  C   UNL     1       7.388  33.754  64.756  1.00  0.00     0.012 A 
HETATM   15  C   UNL     1       4.791  35.191  61.292  1.00  0.00     0.066 C 
HETATM   16  C   UNL     1       3.450  35.908  61.450  1.00  0.00     0.238 C 
ENDROOT
BRANCH   9  17
HETATM   17  N   UNL     1       8.122  32.183  62.288  1.00  0.00    -0.063 N 
HETATM   18  H   UNL     1       9.036  32.585  62.043  1.00  0.00     0.278 HD
HETATM   19  H   UNL     1       8.260  31.829  63.245  1.00  0.00     0.278 HD
BRANCH  17  20
HETATM   20  C   UNL     1       7.918  31.026  61.368  1.00  0.00     0.274 C 
BRANCH  20  21
HETATM   21  C   UNL     1       8.767  31.167  60.168  1.00  0.00     0.004 A 
HETATM   22  C   UNL     1       9.032  30.239  59.177  1.00  0.00     0.122 A 
HETATM   23  N   UNL     1       9.867  30.858  58.283  1.00  0.00    -0.285 N 
HETATM   24  C   UNL     1      10.405  30.317  57.056  1.00  0.00     0.179 C 
HETATM   25  N   UNL     1      10.182  32.109  58.651  1.00  0.00    -0.185 NA
HETATM   26  C   UNL     1       9.497  32.311  59.772  1.00  0.00     0.149 A 
ENDBRANCH  20  21
ENDBRANCH  17  20
ENDBRANCH   9  17
BRANCH   1  27
HETATM   27  C   UNL     1       2.599  35.691  59.008  1.00  0.00     0.180 C 
HETATM   28  C   UNL     1       3.251  37.068  58.869  1.00  0.00     0.039 C 
HETATM   29  C   UNL     1       1.240  35.708  58.304  1.00  0.00     0.039 C 
ENDBRANCH   1  27
TORSDOF 4
ENDMDL
MODEL 6
REMARK VINA RESULT:      -7.9      3.230      9.119
REMARK  4 active torsions:
REMARK  status: ('A' for Active; 'I' for Inactive)
REMARK    1  A    between atoms: C_2  and  N_3 
REMARK    2  A    between atoms: C_11  and  N_12 
REMARK    3  A    between atoms: N_12  and  C_15 
REMARK    4  A    between atoms: C_15  and  C_16 
ROOT
HETATM    1  N   UNL     1       6.377  25.380  53.989  1.00  0.00    -0.067 N 
HETATM    2  H   UNL     1       5.728  25.086  53.242  1.00  0.00     0.280 HD
HETATM    3  C   UNL     1       5.695  24.977  55.283  1.00  0.00     0.238 C 
HETATM    4  C   UNL     1       6.458  25.531  56.483  1.00  0.00     0.066 C 
HETATM    5  C   UNL     1       6.585  27.072  56.435  1.00  0.00     0.073 C 
HETATM    6  O   UNL     1       5.242  27.570  56.533  1.00  0.00    -0.339 OA
HETATM    7  C   UNL     1       5.094  28.897  56.829  1.00  0.00     0.078 A 
HETATM    8  C   UNL     1       6.101  29.686  57.397  1.00  0.00     0.006 A 
HETATM    9  C   UNL     1       7.424  29.078  57.782  1.00  0.00     0.224 C 
HETATM   10  C   UNL     1       7.394  27.548  57.656  1.00  0.00     0.076 C 
HETATM   11  C   UNL     1       3.846  29.439  56.524  1.00  0.00     0.037 A 
HETATM   12  C   UNL     1       3.604  30.795  56.729  1.00  0.00     0.003 A 
HETATM   13  C   UNL     1       4.613  31.608  57.234  1.00  0.00     0.001 A 
HETATM   14  C   UNL     1       5.856  31.062  57.561  1.00  0.00     0.012 A 
HETATM   15  C   UNL     1       7.200  27.479  55.078  1.00  0.00     0.066 C 
HETATM   16  C   UNL     1       6.418  26.893  53.902  1.00  0.00     0.238 C 
ENDROOT
BRANCH   9  17
HETATM   17  N   UNL     1       7.816  29.446  59.187  1.00  0.00    -0.063 N 
HETATM   18  H   UNL     1       6.970  29.618  59.745  1.00  0.00     0.278 HD
HETATM   19  H   UNL     1       8.256  28.641  59.654  1.00  0.00     0.278 HD
BRANCH  17  20
HETATM   20  C   UNL     1       8.684  30.646  59.371  1.00  0.00     0.274 C 
BRANCH  20  21
HETATM   21  C   UNL     1       8.303  31.374  60.598  1.00  0.00     0.004 A 
HETATM   22  C   UNL     1       7.496  32.490  60.733  1.00  0.00     0.122 A 
HETATM   23  N   UNL     1       7.448  32.770  62.073  1.00  0.00    -0.285 N 
HETATM   24  C   UNL     1       6.710  33.826  62.729  1.00  0.00     0.179 C 
HETATM   25  N   UNL     1       8.196  31.931  62.805  1.00  0.00    -0.185 NA
HETATM   26  C   UNL     1       8.691  31.068  61.923  1.00  0.00     0.149 A 
ENDBRANCH  20  21
ENDBRANCH  17  20
ENDBRANCH   9  17
BRANCH   1  27
HETATM   27  C   UNL     1       7.691  24.644  53.665  1.00  0.00     0.180 C 
HETATM   28  C   UNL     1       8.135  24.957  52.235  1.00  0.00     0.039 C 
HETATM   29  C   UNL     1       7.498  23.133  53.810  1.00  0.00     0.039 C 
ENDBRANCH   1  27
TORSDOF 4
ENDMDL
MODEL 7
REMARK VINA RESULT:      -7.8      2.420      7.107
REMARK  4 active torsions:
REMARK  status: ('A' for Active; 'I' for Inactive)
REMARK    1  A    between atoms: C_2  and  N_3 
REMARK    2  A    between atoms: C_11  and  N_12 
REMARK    3  A    between atoms: N_12  and  C_15 
REMARK    4  A    between atoms: C_15  and  C_16 
ROOT
HETATM    1  N   UNL     1       4.262  27.603  52.130  1.00  0.00    -0.067 N 
HETATM    2  H   UNL     1       3.841  27.074  51.351  1.00  0.00     0.280 HD
HETATM    3  C   UNL     1       5.710  27.810  51.727  1.00  0.00     0.238 C 
HETATM    4  C   UNL     1       6.505  28.411  52.884  1.00  0.00     0.066 C 
HETATM    5  C   UNL     1       6.452  27.527  54.151  1.00  0.00     0.073 C 
HETATM    6  O   UNL     1       7.109  26.302  53.792  1.00  0.00    -0.339 OA
HETATM    7  C   UNL     1       7.477  25.474  54.815  1.00  0.00     0.078 A 
HETATM    8  C   UNL     1       7.602  25.887  56.147  1.00  0.00     0.006 A 
HETATM    9  C   UNL     1       7.390  27.330  56.524  1.00  0.00     0.224 C 
HETATM   10  C   UNL     1       7.245  28.217  55.278  1.00  0.00     0.076 C 
HETATM   11  C   UNL     1       7.728  24.152  54.450  1.00  0.00     0.037 A 
HETATM   12  C   UNL     1       8.053  23.208  55.421  1.00  0.00     0.003 A 
HETATM   13  C   UNL     1       8.121  23.586  56.757  1.00  0.00     0.001 A 
HETATM   14  C   UNL     1       7.892  24.914  57.122  1.00  0.00     0.012 A 
HETATM   15  C   UNL     1       4.975  27.250  54.505  1.00  0.00     0.066 C 
HETATM   16  C   UNL     1       4.208  26.663  53.318  1.00  0.00     0.238 C 
ENDROOT
BRANCH   9  17
HETATM   17  N   UNL     1       8.519  27.854  57.369  1.00  0.00    -0.063 N 
HETATM   18  H   UNL     1       8.140  28.258  58.235  1.00  0.00     0.278 HD
HETATM   19  H   UNL     1       9.105  27.075  57.699  1.00  0.00     0.278 HD
BRANCH  17  20
HETATM   20  C   UNL     1       9.398  28.903  56.774  1.00  0.00     0.274 C 
BRANCH  20  21
HETATM   21  C   UNL     1       9.459  30.086  57.656  1.00  0.00     0.004 A 
HETATM   22  C   UNL     1       8.551  30.505  58.613  1.00  0.00     0.122 A 
HETATM   23  N   UNL     1       9.070  31.648  59.160  1.00  0.00    -0.285 N 
HETATM   24  C   UNL     1       8.511  32.451  60.225  1.00  0.00     0.179 C 
HETATM   25  N   UNL     1      10.232  32.011  58.597  1.00  0.00    -0.185 NA
HETATM   26  C   UNL     1      10.486  31.055  57.710  1.00  0.00     0.149 A 
ENDBRANCH  20  21
ENDBRANCH  17  20
ENDBRANCH   9  17
BRANCH   1  27
HETATM   27  C   UNL     1       3.405  28.879  52.234  1.00  0.00     0.180 C 
HETATM   28  C   UNL     1       2.375  28.919  51.104  1.00  0.00     0.039 C 
HETATM   29  C   UNL     1       4.296  30.120  52.143  1.00  0.00     0.039 C 
ENDBRANCH   1  27
TORSDOF 4
ENDMDL
MODEL 8
REMARK VINA RESULT:      -7.4      2.418      7.131
REMARK  4 active torsions:
REMARK  status: ('A' for Active; 'I' for Inactive)
REMARK    1  A    between atoms: C_2  and  N_3 
REMARK    2  A    between atoms: C_11  and  N_12 
REMARK    3  A    between atoms: N_12  and  C_15 
REMARK    4  A    between atoms: C_15  and  C_16 
ROOT
HETATM    1  N   UNL     1       3.971  30.536  49.410  1.00  0.00    -0.067 N 
HETATM    2  H   UNL     1       3.485  31.442  49.500  1.00  0.00     0.280 HD
HETATM    3  C   UNL     1       2.899  29.490  49.657  1.00  0.00     0.238 C 
HETATM    4  C   UNL     1       3.522  28.099  49.751  1.00  0.00     0.066 C 
HETATM    5  C   UNL     1       4.587  28.009  50.869  1.00  0.00     0.073 C 
HETATM    6  O   UNL     1       3.873  28.225  52.096  1.00  0.00    -0.339 OA
HETATM    7  C   UNL     1       4.516  27.888  53.254  1.00  0.00     0.078 A 
HETATM    8  C   UNL     1       5.620  27.029  53.311  1.00  0.00     0.006 A 
HETATM    9  C   UNL     1       6.134  26.360  52.064  1.00  0.00     0.224 C 
HETATM   10  C   UNL     1       5.190  26.592  50.875  1.00  0.00     0.076 C 
HETATM   11  C   UNL     1       3.998  28.466  54.413  1.00  0.00     0.037 A 
HETATM   12  C   UNL     1       4.611  28.238  55.642  1.00  0.00     0.003 A 
HETATM   13  C   UNL     1       5.746  27.437  55.710  1.00  0.00     0.001 A 
HETATM   14  C   UNL     1       6.253  26.840  54.554  1.00  0.00     0.012 A 
HETATM   15  C   UNL     1       5.627  29.132  50.660  1.00  0.00     0.066 C 
HETATM   16  C   UNL     1       4.964  30.507  50.556  1.00  0.00     0.238 C 
ENDROOT
BRANCH   9  17
HETATM   17  N   UNL     1       6.316  24.879  52.263  1.00  0.00    -0.063 N 
HETATM   18  H   UNL     1       5.852  24.592  53.135  1.00  0.00     0.278 HD
HETATM   19  H   UNL     1       5.808  24.360  51.534  1.00  0.00     0.278 HD
BRANCH  17  20
HETATM   20  C   UNL     1       7.711  24.359  52.345  1.00  0.00     0.274 C 
BRANCH  20  21
HETATM   21  C   UNL     1       7.801  23.282  53.352  1.00  0.00     0.004 A 
HETATM   22  C   UNL     1       8.362  22.023  53.231  1.00  0.00     0.122 A 
HETATM   23  N   UNL     1       8.199  21.411  54.446  1.00  0.00    -0.285 N 
HETATM   24  C   UNL     1       8.643  20.092  54.838  1.00  0.00     0.179 C 
HETATM   25  N   UNL     1       7.541  22.178  55.328  1.00  0.00    -0.185 NA
HETATM   26  C   UNL     1       7.325  23.320  54.682  1.00  0.00     0.149 A 
ENDBRANCH  20  21
ENDBRANCH  17  20
ENDBRANCH   9  17
BRANCH   1  27
HETATM   27  C   UNL     1       4.570  30.561  47.992  1.00  0.00     0.180 C 
HETATM   28  C   UNL     1       5.133  31.948  47.679  1.00  0.00     0.039 C 
HETATM   29  C   UNL     1       3.495  30.212  46.960  1.00  0.00     0.039 C 
ENDBRANCH   1  27
TORSDOF 4
ENDMDL
MODEL 9
REMARK VINA RESULT:      -7.3     15.316     17.751
REMARK  4 active torsions:
REMARK  status: ('A' for Active; 'I' for Inactive)
REMARK    1  A    between atoms: C_2  and  N_3 
REMARK    2  A    between atoms: C_11  and  N_12 
REMARK    3  A    between atoms: N_12  and  C_15 
REMARK    4  A    between atoms: C_15  and  C_16 
ROOT
HETATM    1  N   UNL     1      16.292   9.650  55.965  1.00  0.00    -0.067 N 
HETATM    2  H   UNL     1      17.200   9.227  55.720  1.00  0.00     0.280 HD
HETATM    3  C   UNL     1      15.253   8.648  55.497  1.00  0.00     0.238 C 
HETATM    4  C   UNL     1      13.850   9.237  55.619  1.00  0.00     0.066 C 
HETATM    5  C   UNL     1      13.693  10.545  54.810  1.00  0.00     0.073 C 
HETATM    6  O   UNL     1      13.864  10.169  53.435  1.00  0.00    -0.339 OA
HETATM    7  C   UNL     1      13.465  11.073  52.491  1.00  0.00     0.078 A 
HETATM    8  C   UNL     1      12.587  12.132  52.749  1.00  0.00     0.006 A 
HETATM    9  C   UNL     1      11.966  12.299  54.111  1.00  0.00     0.224 C 
HETATM   10  C   UNL     1      12.267  11.093  55.013  1.00  0.00     0.076 C 
HETATM   11  C   UNL     1      13.998  10.879  51.217  1.00  0.00     0.037 A 
HETATM   12  C   UNL     1      13.705  11.775  50.193  1.00  0.00     0.003 A 
HETATM   13  C   UNL     1      12.884  12.869  50.445  1.00  0.00     0.001 A 
HETATM   14  C   UNL     1      12.332  13.053  51.714  1.00  0.00     0.012 A 
HETATM   15  C   UNL     1      14.807  11.529  55.230  1.00  0.00     0.066 C 
HETATM   16  C   UNL     1      16.195  10.898  55.109  1.00  0.00     0.238 C 
ENDROOT
BRANCH   9  17
HETATM   17  N   UNL     1      10.476  12.485  54.023  1.00  0.00    -0.063 N 
HETATM   18  H   UNL     1      10.104  12.715  54.954  1.00  0.00     0.278 HD
HETATM   19  H   UNL     1      10.256  13.318  53.460  1.00  0.00     0.278 HD
BRANCH  17  20
HETATM   20  C   UNL     1       9.664  11.336  53.526  1.00  0.00     0.274 C 
BRANCH  20  21
HETATM   21  C   UNL     1       8.467  11.148  54.369  1.00  0.00     0.004 A 
HETATM   22  C   UNL     1       8.003   9.994  54.976  1.00  0.00     0.122 A 
HETATM   23  N   UNL     1       6.865  10.346  55.652  1.00  0.00    -0.285 N 
HETATM   24  C   UNL     1       6.026   9.500  56.471  1.00  0.00     0.179 C 
HETATM   25  N   UNL     1       6.547  11.640  55.492  1.00  0.00    -0.185 NA
HETATM   26  C   UNL     1       7.527  12.135  54.744  1.00  0.00     0.149 A 
ENDBRANCH  20  21
ENDBRANCH  17  20
ENDBRANCH   9  17
BRANCH   1  27
HETATM   27  C   UNL     1      16.371   9.874  57.487  1.00  0.00     0.180 C 
HETATM   28  C   UNL     1      17.688  10.561  57.853  1.00  0.00     0.039 C 
HETATM   29  C   UNL     1      16.284   8.534  58.221  1.00  0.00     0.039 C 
ENDBRANCH   1  27
TORSDOF 4
ENDMDL
MODEL 10
REMARK VINA RESULT:      -7.1      5.421      9.302
REMARK  4 active torsions:
REMARK  status: ('A' for Active; 'I' for Inactive)
REMARK    1  A    between atoms: C_2  and  N_3 
REMARK    2  A    between atoms: C_11  and  N_12 
REMARK    3  A    between atoms: N_12  and  C_15 
REMARK    4  A    between atoms: C_15  and  C_16 
ROOT
HETATM    1  N   UNL     1       2.807  34.737  61.156  1.00  0.00    -0.067 N 
HETATM    2  H   UNL     1       2.542  35.240  62.017  1.00  0.00     0.280 HD
HETATM    3  C   UNL     1       2.651  33.266  61.496  1.00  0.00     0.238 C 
HETATM    4  C   UNL     1       3.202  32.396  60.370  1.00  0.00     0.066 C 
HETATM    5  C   UNL     1       4.691  32.693  60.076  1.00  0.00     0.073 C 
HETATM    6  O   UNL     1       5.399  32.322  61.269  1.00  0.00    -0.339 OA
HETATM    7  C   UNL     1       6.755  32.188  61.167  1.00  0.00     0.078 A 
HETATM    8  C   UNL     1       7.434  32.019  59.955  1.00  0.00     0.006 A 
HETATM    9  C   UNL     1       6.672  31.909  58.660  1.00  0.00     0.224 C 
HETATM   10  C   UNL     1       5.160  31.804  58.909  1.00  0.00     0.076 C 
HETATM   11  C   UNL     1       7.450  32.233  62.376  1.00  0.00     0.037 A 
HETATM   12  C   UNL     1       8.840  32.166  62.386  1.00  0.00     0.003 A 
HETATM   13  C   UNL     1       9.536  32.061  61.187  1.00  0.00     0.001 A 
HETATM   14  C   UNL     1       8.841  31.993  59.977  1.00  0.00     0.012 A 
HETATM   15  C   UNL     1       4.855  34.207  59.816  1.00  0.00     0.066 C 
HETATM   16  C   UNL     1       4.279  35.045  60.958  1.00  0.00     0.238 C 
ENDROOT
BRANCH   9  17
HETATM   17  N   UNL     1       7.119  30.720  57.853  1.00  0.00    -0.063 N 
HETATM   18  H   UNL     1       7.653  31.043  57.035  1.00  0.00     0.278 HD
HETATM   19  H   UNL     1       7.803  30.166  58.388  1.00  0.00     0.278 HD
BRANCH  17  20
HETATM   20  C   UNL     1       6.064  29.808  57.325  1.00  0.00     0.274 C 
BRANCH  20  21
HETATM   21  C   UNL     1       6.537  28.409  57.341  1.00  0.00     0.004 A 
HETATM   22  C   UNL     1       5.863  27.258  56.972  1.00  0.00     0.122 A 
HETATM   23  N   UNL     1       6.738  26.222  57.162  1.00  0.00    -0.285 N 
HETATM   24  C   UNL     1       6.519  24.819  56.891  1.00  0.00     0.179 C 
HETATM   25  N   UNL     1       7.917  26.625  57.659  1.00  0.00    -0.185 NA
HETATM   26  C   UNL     1       7.811  27.947  57.741  1.00  0.00     0.149 A 
ENDBRANCH  20  21
ENDBRANCH  17  20
ENDBRANCH   9  17
BRANCH   1  27
HETATM   27  C   UNL     1       1.847  35.283  60.082  1.00  0.00     0.180 C 
HETATM   28  C   UNL     1       2.020  36.796  59.937  1.00  0.00     0.039 C 
HETATM   29  C   UNL     1       0.398  34.978  60.467  1.00  0.00     0.039 C 
ENDBRANCH   1  27
TORSDOF 4
ENDMDL
