MODEL 1
REMARK VINA RESULT:      -8.6      0.000      0.000
REMARK  3 active torsions:
REMARK  status: ('A' for Active; 'I' for Inactive)
REMARK    1  A    between atoms: C_10  and  C_11 
REMARK    2  A    between atoms: C_11  and  C_12 
REMARK    3  A    between atoms: C_13  and  O_14 
ROOT
HETATM    1  C   UNL     1       6.168  25.598  54.957  1.00  0.00     0.196 C 
HETATM    2  O   UNL     1       5.193  25.519  54.213  1.00  0.00    -0.286 OA
ENDROOT
BRANCH   1   3
HETATM    3  C   UNL     1       6.914  24.369  55.294  1.00  0.00     0.034 A 
HETATM    4  C   UNL     1       7.434  24.242  56.583  1.00  0.00     0.134 A 
HETATM    5  N   UNL     1       8.142  23.181  57.049  1.00  0.00    -0.240 NA
HETATM    6  C   UNL     1       8.328  22.233  56.111  1.00  0.00     0.155 A 
HETATM    7  N   UNL     1       9.005  21.059  56.270  1.00  0.00    -0.260 N 
HETATM    8  C   UNL     1       7.891  22.243  54.796  1.00  0.00     0.038 A 
HETATM    9  N   UNL     1       9.037  20.295  55.160  1.00  0.00    -0.177 NA
HETATM   10  H   UNL     1       9.462  20.731  57.112  1.00  0.00     0.191 HD
HETATM   11  C   UNL     1       8.363  21.019  54.254  1.00  0.00     0.065 A 
HETATM   12  C   UNL     1       8.180  20.507  52.873  1.00  0.00     0.073 C 
HETATM   13  C   UNL     1       7.159  23.358  54.355  1.00  0.00     0.034 A 
ENDBRANCH   1   3
BRANCH   1  14
HETATM   14  C   UNL     1       6.528  26.932  55.502  1.00  0.00     0.051 A 
HETATM   15  C   UNL     1       5.576  27.655  56.243  1.00  0.00     0.101 A 
HETATM   16  C   UNL     1       5.911  28.906  56.776  1.00  0.00     0.069 A 
HETATM   17 CL   UNL     1       4.784  29.818  57.714  1.00  0.00    -0.081 Cl
HETATM   18  C   UNL     1       7.176  29.451  56.552  1.00  0.00     0.050 A 
HETATM   19  C   UNL     1       8.100  28.748  55.786  1.00  0.00     0.036 A 
HETATM   20 CL   UNL     1       9.655  29.424  55.492  1.00  0.00    -0.084 Cl
HETATM   21  C   UNL     1       7.785  27.497  55.252  1.00  0.00     0.042 A 
BRANCH  15  22
HETATM   22  O   UNL     1       4.315  27.162  56.465  1.00  0.00    -0.358 OA
HETATM   23  H   UNL     1       4.296  26.214  56.206  1.00  0.00     0.218 HD
ENDBRANCH  15  22
ENDBRANCH   1  14
TORSDOF 3
ENDMDL
MODEL 2
REMARK VINA RESULT:      -8.4      4.073      6.939
REMARK  3 active torsions:
REMARK  status: ('A' for Active; 'I' for Inactive)
REMARK    1  A    between atoms: C_10  and  C_11 
REMARK    2  A    between atoms: C_11  and  C_12 
REMARK    3  A    between atoms: C_13  and  O_14 
ROOT
HETATM    1  C   UNL     1       8.219  24.888  56.836  1.00  0.00     0.196 C 
HETATM    2  O   UNL     1       8.943  24.434  57.720  1.00  0.00    -0.286 OA
ENDROOT
BRANCH   1   3
HETATM    3  C   UNL     1       7.498  26.153  57.081  1.00  0.00     0.034 A 
HETATM    4  C   UNL     1       6.115  26.174  56.894  1.00  0.00     0.134 A 
HETATM    5  N   UNL     1       5.309  27.251  57.073  1.00  0.00    -0.240 NA
HETATM    6  C   UNL     1       5.993  28.352  57.438  1.00  0.00     0.155 A 
HETATM    7  N   UNL     1       5.467  29.588  57.682  1.00  0.00    -0.260 N 
HETATM    8  C   UNL     1       7.359  28.476  57.634  1.00  0.00     0.038 A 
HETATM    9  N   UNL     1       6.386  30.510  58.031  1.00  0.00    -0.177 NA
HETATM   10  H   UNL     1       4.492  29.855  57.626  1.00  0.00     0.191 HD
HETATM   11  C   UNL     1       7.545  29.836  57.996  1.00  0.00     0.065 A 
HETATM   12  C   UNL     1       8.821  30.522  58.322  1.00  0.00     0.073 C 
HETATM   13  C   UNL     1       8.157  27.336  57.440  1.00  0.00     0.034 A 
ENDBRANCH   1   3
BRANCH   1  14
HETATM   14  C   UNL     1       8.090  24.119  55.572  1.00  0.00     0.051 A 
HETATM   15  C   UNL     1       8.144  22.714  55.610  1.00  0.00     0.101 A 
HETATM   16  C   UNL     1       8.004  21.979  54.426  1.00  0.00     0.069 A 
HETATM   17 CL   UNL     1       8.040  20.252  54.428  1.00  0.00    -0.081 Cl
HETATM   18  C   UNL     1       7.839  22.634  53.206  1.00  0.00     0.050 A 
HETATM   19  C   UNL     1       7.823  24.025  53.170  1.00  0.00     0.036 A 
HETATM   20 CL   UNL     1       7.636  24.837  51.665  1.00  0.00    -0.084 Cl
HETATM   21  C   UNL     1       7.955  24.773  54.341  1.00  0.00     0.042 A 
BRANCH  15  22
HETATM   22  O   UNL     1       8.329  22.035  56.788  1.00  0.00    -0.358 OA
HETATM   23  H   UNL     1       7.738  22.422  57.472  1.00  0.00     0.218 HD
ENDBRANCH  15  22
ENDBRANCH   1  14
TORSDOF 3
ENDMDL
MODEL 3
REMARK VINA RESULT:      -8.3      4.227      7.310
REMARK  3 active torsions:
REMARK  status: ('A' for Active; 'I' for Inactive)
REMARK    1  A    between atoms: C_10  and  C_11 
REMARK    2  A    between atoms: C_11  and  C_12 
REMARK    3  A    between atoms: C_13  and  O_14 
ROOT
HETATM    1  C   UNL     1       6.489  27.645  57.066  1.00  0.00     0.196 C 
HETATM    2  O   UNL     1       5.354  27.935  57.441  1.00  0.00    -0.286 OA
ENDROOT
BRANCH   1   3
HETATM    3  C   UNL     1       7.579  28.623  57.259  1.00  0.00     0.034 A 
HETATM    4  C   UNL     1       8.731  28.492  56.485  1.00  0.00     0.134 A 
HETATM    5  N   UNL     1       9.820  29.302  56.542  1.00  0.00    -0.240 NA
HETATM    6  C   UNL     1       9.694  30.270  57.469  1.00  0.00     0.155 A 
HETATM    7  N   UNL     1      10.617  31.228  57.770  1.00  0.00    -0.260 N 
HETATM    8  C   UNL     1       8.621  30.498  58.318  1.00  0.00     0.038 A 
HETATM    9  N   UNL     1      10.227  32.073  58.746  1.00  0.00    -0.177 NA
HETATM   10  H   UNL     1      11.526  31.351  57.341  1.00  0.00     0.191 HD
HETATM   11  C   UNL     1       9.010  31.625  59.088  1.00  0.00     0.065 A 
HETATM   12  C   UNL     1       8.236  32.304  60.158  1.00  0.00     0.073 C 
HETATM   13  C   UNL     1       7.514  29.638  58.223  1.00  0.00     0.034 A 
ENDBRANCH   1   3
BRANCH   1  14
HETATM   14  C   UNL     1       6.695  26.330  56.409  1.00  0.00     0.051 A 
HETATM   15  C   UNL     1       7.388  25.316  57.095  1.00  0.00     0.101 A 
HETATM   16  C   UNL     1       7.571  24.065  56.491  1.00  0.00     0.069 A 
HETATM   17 CL   UNL     1       8.394  22.783  57.305  1.00  0.00    -0.081 Cl
HETATM   18  C   UNL     1       7.093  23.829  55.202  1.00  0.00     0.050 A 
HETATM   19  C   UNL     1       6.441  24.848  54.514  1.00  0.00     0.036 A 
HETATM   20 CL   UNL     1       5.866  24.566  52.918  1.00  0.00    -0.084 Cl
HETATM   21  C   UNL     1       6.245  26.098  55.103  1.00  0.00     0.042 A 
BRANCH  15  22
HETATM   22  O   UNL     1       7.892  25.519  58.355  1.00  0.00    -0.358 OA
HETATM   23  H   UNL     1       8.603  24.860  58.521  1.00  0.00     0.218 HD
ENDBRANCH  15  22
ENDBRANCH   1  14
TORSDOF 3
ENDMDL
MODEL 4
REMARK VINA RESULT:      -8.1      4.127      7.221
REMARK  3 active torsions:
REMARK  status: ('A' for Active; 'I' for Inactive)
REMARK    1  A    between atoms: C_10  and  C_11 
REMARK    2  A    between atoms: C_11  and  C_12 
REMARK    3  A    between atoms: C_13  and  O_14 
ROOT
HETATM    1  C   UNL     1       6.443  27.679  57.044  1.00  0.00     0.196 C 
HETATM    2  O   UNL     1       5.311  27.977  57.421  1.00  0.00    -0.286 OA
ENDROOT
BRANCH   1   3
HETATM    3  C   UNL     1       7.542  28.647  57.241  1.00  0.00     0.034 A 
HETATM    4  C   UNL     1       8.694  28.506  56.467  1.00  0.00     0.134 A 
HETATM    5  N   UNL     1       9.790  29.306  56.527  1.00  0.00    -0.240 NA
HETATM    6  C   UNL     1       9.671  30.273  57.457  1.00  0.00     0.155 A 
HETATM    7  N   UNL     1      10.603  31.223  57.760  1.00  0.00    -0.260 N 
HETATM    8  C   UNL     1       8.600  30.509  58.304  1.00  0.00     0.038 A 
HETATM    9  N   UNL     1      10.220  32.069  58.737  1.00  0.00    -0.177 NA
HETATM   10  H   UNL     1      11.514  31.338  57.333  1.00  0.00     0.191 HD
HETATM   11  C   UNL     1       8.998  31.631  59.077  1.00  0.00     0.065 A 
HETATM   12  C   UNL     1       8.229  32.316  60.147  1.00  0.00     0.073 C 
HETATM   13  C   UNL     1       7.485  29.660  58.206  1.00  0.00     0.034 A 
ENDBRANCH   1   3
BRANCH   1  14
HETATM   14  C   UNL     1       6.637  26.364  56.382  1.00  0.00     0.051 A 
HETATM   15  C   UNL     1       6.083  26.143  55.109  1.00  0.00     0.101 A 
HETATM   16  C   UNL     1       6.276  24.913  54.468  1.00  0.00     0.069 A 
HETATM   17 CL   UNL     1       5.636  24.605  52.893  1.00  0.00    -0.081 Cl
HETATM   18  C   UNL     1       6.992  23.896  55.098  1.00  0.00     0.050 A 
HETATM   19  C   UNL     1       7.506  24.107  56.375  1.00  0.00     0.036 A 
HETATM   20 CL   UNL     1       8.375  22.849  57.163  1.00  0.00    -0.084 Cl
HETATM   21  C   UNL     1       7.328  25.329  57.025  1.00  0.00     0.042 A 
BRANCH  15  22
HETATM   22  O   UNL     1       5.353  27.112  54.466  1.00  0.00    -0.358 OA
HETATM   23  H   UNL     1       4.794  27.577  55.128  1.00  0.00     0.218 HD
ENDBRANCH  15  22
ENDBRANCH   1  14
TORSDOF 3
ENDMDL
MODEL 5
REMARK VINA RESULT:      -8.0      4.498      6.770
REMARK  3 active torsions:
REMARK  status: ('A' for Active; 'I' for Inactive)
REMARK    1  A    between atoms: C_10  and  C_11 
REMARK    2  A    between atoms: C_11  and  C_12 
REMARK    3  A    between atoms: C_13  and  O_14 
ROOT
HETATM    1  C   UNL     1       6.159  27.368  56.288  1.00  0.00     0.196 C 
HETATM    2  O   UNL     1       4.932  27.425  56.232  1.00  0.00    -0.286 OA
ENDROOT
BRANCH   1   3
HETATM    3  C   UNL     1       6.898  28.470  56.937  1.00  0.00     0.034 A 
HETATM    4  C   UNL     1       6.171  29.436  57.633  1.00  0.00     0.134 A 
HETATM    5  N   UNL     1       6.696  30.508  58.280  1.00  0.00    -0.240 NA
HETATM    6  C   UNL     1       8.036  30.574  58.165  1.00  0.00     0.155 A 
HETATM    7  N   UNL     1       8.847  31.535  58.694  1.00  0.00    -0.260 N 
HETATM    8  C   UNL     1       8.873  29.701  57.488  1.00  0.00     0.038 A 
HETATM    9  N   UNL     1      10.155  31.353  58.421  1.00  0.00    -0.177 NA
HETATM   10  H   UNL     1       8.562  32.333  59.247  1.00  0.00     0.191 HD
HETATM   11  C   UNL     1      10.174  30.237  57.677  1.00  0.00     0.065 A 
HETATM   12  C   UNL     1      11.460  29.701  57.166  1.00  0.00     0.073 C 
HETATM   13  C   UNL     1       8.289  28.603  56.834  1.00  0.00     0.034 A 
ENDBRANCH   1   3
BRANCH   1  14
HETATM   14  C   UNL     1       6.835  26.199  55.671  1.00  0.00     0.051 A 
HETATM   15  C   UNL     1       7.258  25.135  56.487  1.00  0.00     0.101 A 
HETATM   16  C   UNL     1       7.879  24.019  55.912  1.00  0.00     0.069 A 
HETATM   17 CL   UNL     1       8.393  22.679  56.872  1.00  0.00    -0.081 Cl
HETATM   18  C   UNL     1       8.106  23.971  54.536  1.00  0.00     0.050 A 
HETATM   19  C   UNL     1       7.718  25.043  53.738  1.00  0.00     0.036 A 
HETATM   20 CL   UNL     1       8.011  24.995  52.044  1.00  0.00    -0.084 Cl
HETATM   21  C   UNL     1       7.092  26.160  54.295  1.00  0.00     0.042 A 
BRANCH  15  22
HETATM   22  O   UNL     1       7.074  25.158  57.847  1.00  0.00    -0.358 OA
HETATM   23  H   UNL     1       7.408  24.315  58.225  1.00  0.00     0.218 HD
ENDBRANCH  15  22
ENDBRANCH   1  14
TORSDOF 3
ENDMDL
MODEL 6
REMARK VINA RESULT:      -7.9      3.906      6.788
REMARK  3 active torsions:
REMARK  status: ('A' for Active; 'I' for Inactive)
REMARK    1  A    between atoms: C_10  and  C_11 
REMARK    2  A    between atoms: C_11  and  C_12 
REMARK    3  A    between atoms: C_13  and  O_14 
ROOT
HETATM    1  C   UNL     1       5.668  25.836  56.645  1.00  0.00     0.196 C 
HETATM    2  O   UNL     1       4.809  25.287  57.331  1.00  0.00    -0.286 OA
ENDROOT
BRANCH   1   3
HETATM    3  C   UNL     1       6.219  27.133  57.088  1.00  0.00     0.034 A 
HETATM    4  C   UNL     1       7.514  27.160  57.604  1.00  0.00     0.134 A 
HETATM    5  N   UNL     1       8.163  28.265  58.055  1.00  0.00    -0.240 NA
HETATM    6  C   UNL     1       7.404  29.375  57.980  1.00  0.00     0.155 A 
HETATM    7  N   UNL     1       7.770  30.633  58.363  1.00  0.00    -0.260 N 
HETATM    8  C   UNL     1       6.103  29.483  57.514  1.00  0.00     0.038 A 
HETATM    9  N   UNL     1       6.808  31.559  58.176  1.00  0.00    -0.177 NA
HETATM   10  H   UNL     1       8.659  30.913  58.757  1.00  0.00     0.191 HD
HETATM   11  C   UNL     1       5.785  30.859  57.663  1.00  0.00     0.065 A 
HETATM   12  C   UNL     1       4.511  31.539  57.318  1.00  0.00     0.073 C 
HETATM   13  C   UNL     1       5.470  28.316  57.054  1.00  0.00     0.034 A 
ENDBRANCH   1   3
BRANCH   1  14
HETATM   14  C   UNL     1       6.088  25.170  55.386  1.00  0.00     0.051 A 
HETATM   15  C   UNL     1       5.473  25.533  54.174  1.00  0.00     0.101 A 
HETATM   16  C   UNL     1       5.875  24.924  52.978  1.00  0.00     0.069 A 
HETATM   17 CL   UNL     1       5.165  25.355  51.464  1.00  0.00    -0.081 Cl
HETATM   18  C   UNL     1       6.864  23.941  52.987  1.00  0.00     0.050 A 
HETATM   19  C   UNL     1       7.443  23.560  54.194  1.00  0.00     0.036 A 
HETATM   20 CL   UNL     1       8.651  22.335  54.211  1.00  0.00    -0.084 Cl
HETATM   21  C   UNL     1       7.058  24.160  55.394  1.00  0.00     0.042 A 
BRANCH  15  22
HETATM   22  O   UNL     1       4.480  26.479  54.130  1.00  0.00    -0.358 OA
HETATM   23  H   UNL     1       4.014  26.490  54.995  1.00  0.00     0.218 HD
ENDBRANCH  15  22
ENDBRANCH   1  14
TORSDOF 3
ENDMDL
MODEL 7
REMARK VINA RESULT:      -7.8      3.949      6.972
REMARK  3 active torsions:
REMARK  status: ('A' for Active; 'I' for Inactive)
REMARK    1  A    between atoms: C_10  and  C_11 
REMARK    2  A    between atoms: C_11  and  C_12 
REMARK    3  A    between atoms: C_13  and  O_14 
ROOT
HETATM    1  C   UNL     1       5.644  25.790  56.692  1.00  0.00     0.196 C 
HETATM    2  O   UNL     1       4.836  25.215  57.419  1.00  0.00    -0.286 OA
ENDROOT
BRANCH   1   3
HETATM    3  C   UNL     1       6.173  27.104  57.109  1.00  0.00     0.034 A 
HETATM    4  C   UNL     1       7.480  27.168  57.594  1.00  0.00     0.134 A 
HETATM    5  N   UNL     1       8.112  28.293  58.018  1.00  0.00    -0.240 NA
HETATM    6  C   UNL     1       7.324  29.383  57.951  1.00  0.00     0.155 A 
HETATM    7  N   UNL     1       7.668  30.653  58.313  1.00  0.00    -0.260 N 
HETATM    8  C   UNL     1       6.010  29.455  57.516  1.00  0.00     0.038 A 
HETATM    9  N   UNL     1       6.680  31.554  58.141  1.00  0.00    -0.177 NA
HETATM   10  H   UNL     1       8.559  30.959  58.683  1.00  0.00     0.191 HD
HETATM   11  C   UNL     1       5.662  30.824  57.660  1.00  0.00     0.065 A 
HETATM   12  C   UNL     1       4.364  31.469  57.340  1.00  0.00     0.073 C 
HETATM   13  C   UNL     1       5.395  28.269  57.083  1.00  0.00     0.034 A 
ENDBRANCH   1   3
BRANCH   1  14
HETATM   14  C   UNL     1       6.025  25.137  55.414  1.00  0.00     0.051 A 
HETATM   15  C   UNL     1       6.975  24.100  55.424  1.00  0.00     0.101 A 
HETATM   16  C   UNL     1       7.327  23.465  54.226  1.00  0.00     0.069 A 
HETATM   17 CL   UNL     1       8.469  22.170  54.194  1.00  0.00    -0.081 Cl
HETATM   18  C   UNL     1       6.761  23.876  53.019  1.00  0.00     0.050 A 
HETATM   19  C   UNL     1       5.850  24.928  53.011  1.00  0.00     0.036 A 
HETATM   20 CL   UNL     1       5.163  25.449  51.523  1.00  0.00    -0.084 Cl
HETATM   21  C   UNL     1       5.484  25.567  54.197  1.00  0.00     0.042 A 
BRANCH  15  22
HETATM   22  O   UNL     1       7.570  23.684  56.589  1.00  0.00    -0.358 OA
HETATM   23  H   UNL     1       8.090  24.430  56.962  1.00  0.00     0.218 HD
ENDBRANCH  15  22
ENDBRANCH   1  14
TORSDOF 3
ENDMDL
MODEL 8
REMARK VINA RESULT:      -7.8      6.313      8.733
REMARK  3 active torsions:
REMARK  status: ('A' for Active; 'I' for Inactive)
REMARK    1  A    between atoms: C_10  and  C_11 
REMARK    2  A    between atoms: C_11  and  C_12 
REMARK    3  A    between atoms: C_13  and  O_14 
ROOT
HETATM    1  C   UNL     1       8.104  31.373  61.492  1.00  0.00     0.196 C 
HETATM    2  O   UNL     1       8.444  30.713  62.472  1.00  0.00    -0.286 OA
ENDROOT
BRANCH   1   3
HETATM    3  C   UNL     1       8.774  31.130  60.198  1.00  0.00     0.034 A 
HETATM    4  C   UNL     1       9.758  32.028  59.784  1.00  0.00     0.134 A 
HETATM    5  N   UNL     1      10.463  31.950  58.626  1.00  0.00    -0.240 NA
HETATM    6  C   UNL     1      10.096  30.899  57.869  1.00  0.00     0.155 A 
HETATM    7  N   UNL     1      10.611  30.560  56.651  1.00  0.00    -0.260 N 
HETATM    8  C   UNL     1       9.123  29.952  58.147  1.00  0.00     0.038 A 
HETATM    9  N   UNL     1      10.054  29.456  56.114  1.00  0.00    -0.177 NA
HETATM   10  H   UNL     1      11.340  31.045  56.144  1.00  0.00     0.191 HD
HETATM   11  C   UNL     1       9.139  29.085  57.022  1.00  0.00     0.065 A 
HETATM   12  C   UNL     1       8.295  27.887  56.788  1.00  0.00     0.073 C 
HETATM   13  C   UNL     1       8.419  30.068  59.357  1.00  0.00     0.034 A 
ENDBRANCH   1   3
BRANCH   1  14
HETATM   14  C   UNL     1       7.049  32.402  61.672  1.00  0.00     0.051 A 
HETATM   15  C   UNL     1       7.039  33.184  62.841  1.00  0.00     0.101 A 
HETATM   16  C   UNL     1       6.060  34.171  63.012  1.00  0.00     0.069 A 
HETATM   17 CL   UNL     1       6.024  35.171  64.419  1.00  0.00    -0.081 Cl
HETATM   18  C   UNL     1       5.077  34.362  62.041  1.00  0.00     0.050 A 
HETATM   19  C   UNL     1       5.069  33.560  60.904  1.00  0.00     0.036 A 
HETATM   20 CL   UNL     1       3.849  33.782  59.712  1.00  0.00    -0.084 Cl
HETATM   21  C   UNL     1       6.042  32.577  60.715  1.00  0.00     0.042 A 
BRANCH  15  22
HETATM   22  O   UNL     1       7.976  33.008  63.829  1.00  0.00    -0.358 OA
HETATM   23  H   UNL     1       7.521  32.705  64.646  1.00  0.00     0.218 HD
ENDBRANCH  15  22
ENDBRANCH   1  14
TORSDOF 3
ENDMDL
MODEL 9
REMARK VINA RESULT:      -7.7      4.286      6.418
REMARK  3 active torsions:
REMARK  status: ('A' for Active; 'I' for Inactive)
REMARK    1  A    between atoms: C_10  and  C_11 
REMARK    2  A    between atoms: C_11  and  C_12 
REMARK    3  A    between atoms: C_13  and  O_14 
ROOT
HETATM    1  C   UNL     1       5.901  25.823  56.442  1.00  0.00     0.196 C 
HETATM    2  O   UNL     1       5.143  25.201  57.184  1.00  0.00    -0.286 OA
ENDROOT
BRANCH   1   3
HETATM    3  C   UNL     1       6.391  27.150  56.867  1.00  0.00     0.034 A 
HETATM    4  C   UNL     1       5.459  28.087  57.314  1.00  0.00     0.134 A 
HETATM    5  N   UNL     1       5.743  29.347  57.735  1.00  0.00    -0.240 NA
HETATM    6  C   UNL     1       7.057  29.632  57.657  1.00  0.00     0.155 A 
HETATM    7  N   UNL     1       7.650  30.813  57.996  1.00  0.00    -0.260 N 
HETATM    8  C   UNL     1       8.079  28.808  57.211  1.00  0.00     0.038 A 
HETATM    9  N   UNL     1       8.986  30.823  57.815  1.00  0.00    -0.177 NA
HETATM   10  H   UNL     1       7.192  31.641  58.355  1.00  0.00     0.191 HD
HETATM   11  C   UNL     1       9.251  29.601  57.328  1.00  0.00     0.065 A 
HETATM   12  C   UNL     1      10.644  29.217  56.989  1.00  0.00     0.073 C 
HETATM   13  C   UNL     1       7.741  27.513  56.787  1.00  0.00     0.034 A 
ENDBRANCH   1   3
BRANCH   1  14
HETATM   14  C   UNL     1       6.263  25.211  55.139  1.00  0.00     0.051 A 
HETATM   15  C   UNL     1       5.590  25.617  53.973  1.00  0.00     0.101 A 
HETATM   16  C   UNL     1       5.937  25.060  52.736  1.00  0.00     0.069 A 
HETATM   17 CL   UNL     1       5.154  25.547  51.276  1.00  0.00    -0.081 Cl
HETATM   18  C   UNL     1       6.928  24.082  52.659  1.00  0.00     0.050 A 
HETATM   19  C   UNL     1       7.565  23.656  53.821  1.00  0.00     0.036 A 
HETATM   20 CL   UNL     1       8.776  22.438  53.731  1.00  0.00    -0.084 Cl
HETATM   21  C   UNL     1       7.236  24.206  55.060  1.00  0.00     0.042 A 
BRANCH  15  22
HETATM   22  O   UNL     1       4.593  26.560  54.014  1.00  0.00    -0.358 OA
HETATM   23  H   UNL     1       3.978  26.339  54.748  1.00  0.00     0.218 HD
ENDBRANCH  15  22
ENDBRANCH   1  14
TORSDOF 3
ENDMDL
MODEL 10
REMARK VINA RESULT:      -7.7      1.399      2.052
REMARK  3 active torsions:
REMARK  status: ('A' for Active; 'I' for Inactive)
REMARK    1  A    between atoms: C_10  and  C_11 
REMARK    2  A    between atoms: C_11  and  C_12 
REMARK    3  A    between atoms: C_13  and  O_14 
ROOT
HETATM    1  C   UNL     1       6.337  26.382  53.826  1.00  0.00     0.196 C 
HETATM    2  O   UNL     1       5.408  26.575  53.044  1.00  0.00    -0.286 OA
ENDROOT
BRANCH   1   3
HETATM    3  C   UNL     1       7.024  25.075  53.814  1.00  0.00     0.034 A 
HETATM    4  C   UNL     1       7.381  24.526  52.582  1.00  0.00     0.134 A 
HETATM    5  N   UNL     1       8.012  23.338  52.398  1.00  0.00    -0.240 NA
HETATM    6  C   UNL     1       8.252  22.697  53.557  1.00  0.00     0.155 A 
HETATM    7  N   UNL     1       8.860  21.484  53.701  1.00  0.00    -0.260 N 
HETATM    8  C   UNL     1       7.931  23.115  54.840  1.00  0.00     0.038 A 
HETATM    9  N   UNL     1       8.970  21.078  54.982  1.00  0.00    -0.177 NA
HETATM   10  H   UNL     1       9.218  20.893  52.961  1.00  0.00     0.191 HD
HETATM   11  C   UNL     1       8.396  22.070  55.681  1.00  0.00     0.065 A 
HETATM   12  C   UNL     1       8.314  21.991  57.161  1.00  0.00     0.073 C 
HETATM   13  C   UNL     1       7.281  24.351  54.985  1.00  0.00     0.034 A 
ENDBRANCH   1   3
BRANCH   1  14
HETATM   14  C   UNL     1       6.699  27.474  54.765  1.00  0.00     0.051 A 
HETATM   15  C   UNL     1       5.713  28.015  55.610  1.00  0.00     0.101 A 
HETATM   16  C   UNL     1       6.049  29.031  56.512  1.00  0.00     0.069 A 
HETATM   17 CL   UNL     1       4.877  29.708  57.586  1.00  0.00    -0.081 Cl
HETATM   18  C   UNL     1       7.351  29.530  56.558  1.00  0.00     0.050 A 
HETATM   19  C   UNL     1       8.313  29.017  55.694  1.00  0.00     0.036 A 
HETATM   20 CL   UNL     1       9.916  29.641  55.735  1.00  0.00    -0.084 Cl
HETATM   21  C   UNL     1       7.997  27.999  54.793  1.00  0.00     0.042 A 
BRANCH  15  22
HETATM   22  O   UNL     1       4.417  27.566  55.577  1.00  0.00    -0.358 OA
HETATM   23  H   UNL     1       3.886  28.173  55.015  1.00  0.00     0.218 HD
ENDBRANCH  15  22
ENDBRANCH   1  14
TORSDOF 3
ENDMDL
