MODEL 1
REMARK VINA RESULT:      -8.8      0.000      0.000
REMARK  6 active torsions:
REMARK  status: ('A' for Active; 'I' for Inactive)
REMARK    1  A    between atoms: C_3  and  N_4 
REMARK    2  A    between atoms: N_4  and  C_5 
REMARK    3  A    between atoms: C_5  and  C_6 
REMARK    4  A    between atoms: N_8  and  C_10 
REMARK    5  A    between atoms: C_10  and  C_11 
REMARK    6  A    between atoms: C_16  and  O_17 
ROOT
HETATM    1  C   UNL     1       5.841  26.779  52.046  1.00  0.00     0.031 C 
HETATM    2  C   UNL     1       6.602  25.481  51.787  1.00  0.00     0.241 C 
HETATM    3  N   UNL     1       6.504  24.720  53.093  1.00  0.00    -0.067 N 
HETATM    4  H   UNL     1       6.173  23.767  52.878  1.00  0.00     0.280 HD
HETATM    5  C   UNL     1       5.439  25.390  53.939  1.00  0.00     0.235 C 
HETATM    6  C   UNL     1       4.719  26.309  52.966  1.00  0.00     0.035 C 
ENDROOT
BRANCH   3   7
HETATM    7  C   UNL     1       7.829  24.524  53.797  1.00  0.00     0.274 C 
BRANCH   7   8
HETATM    8  C   UNL     1       8.103  23.097  54.181  1.00  0.00    -0.013 A 
HETATM    9  C   UNL     1       8.443  22.705  55.487  1.00  0.00     0.019 A 
HETATM   10 BR   UNL     1       8.609  23.970  56.894  1.00  0.00    -0.051 Br
HETATM   11  C   UNL     1       8.689  21.362  55.790  1.00  0.00     0.022 A 
HETATM   12  C   UNL     1       8.608  20.389  54.793  1.00  0.00     0.038 A 
HETATM   13  C   UNL     1       8.281  20.771  53.501  1.00  0.00     0.066 A 
HETATM   14  C   UNL     1       8.027  22.104  53.189  1.00  0.00     0.046 A 
BRANCH  13  15
HETATM   15  O   UNL     1       8.198  19.871  52.485  1.00  0.00    -0.361 OA
HETATM   16  H   UNL     1       8.145  18.969  52.851  1.00  0.00     0.217 HD
ENDBRANCH  13  15
ENDBRANCH   7   8
ENDBRANCH   3   7
BRANCH   1  17
HETATM   17  C   UNL     1       5.356  27.454  50.758  1.00  0.00     0.127 C 
BRANCH  17  18
HETATM   18  N   UNL     1       5.063  26.446  49.734  1.00  0.00    -0.376 N 
HETATM   19  H   UNL     1       5.341  25.499  49.973  1.00  0.00     0.161 HD
BRANCH  18  20
HETATM   20  C   UNL     1       3.948  26.573  48.918  1.00  0.00     0.100 A 
HETATM   21  C   UNL     1       3.740  25.850  47.736  1.00  0.00     0.048 A 
HETATM   22  C   UNL     1       2.573  26.029  46.993  1.00  0.00     0.005 A 
HETATM   23  C   UNL     1       1.606  26.918  47.439  1.00  0.00     0.017 A 
HETATM   24  C   UNL     1       1.828  27.600  48.622  1.00  0.00     0.089 A 
HETATM   25  N   UNL     1       2.964  27.404  49.311  1.00  0.00    -0.353 N 
HETATM   26  H   UNL     1       3.079  27.904  50.187  1.00  0.00     0.166 HD
ENDBRANCH  18  20
ENDBRANCH  17  18
ENDBRANCH   1  17
TORSDOF 6
ENDMDL
MODEL 2
REMARK VINA RESULT:      -8.3      1.977      2.284
REMARK  6 active torsions:
REMARK  status: ('A' for Active; 'I' for Inactive)
REMARK    1  A    between atoms: C_3  and  N_4 
REMARK    2  A    between atoms: N_4  and  C_5 
REMARK    3  A    between atoms: C_5  and  C_6 
REMARK    4  A    between atoms: N_8  and  C_10 
REMARK    5  A    between atoms: C_10  and  C_11 
REMARK    6  A    between atoms: C_16  and  O_17 
ROOT
HETATM    1  C   UNL     1       5.939  26.334  52.273  1.00  0.00     0.031 C 
HETATM    2  C   UNL     1       6.783  25.225  51.649  1.00  0.00     0.241 C 
HETATM    3  N   UNL     1       6.867  24.164  52.726  1.00  0.00    -0.067 N 
HETATM    4  H   UNL     1       6.602  23.262  52.302  1.00  0.00     0.280 HD
HETATM    5  C   UNL     1       5.828  24.492  53.781  1.00  0.00     0.235 C 
HETATM    6  C   UNL     1       4.947  25.538  53.118  1.00  0.00     0.035 C 
ENDROOT
BRANCH   3   7
HETATM    7  C   UNL     1       8.262  23.945  53.270  1.00  0.00     0.274 C 
BRANCH   7   8
HETATM    8  C   UNL     1       8.294  23.149  54.545  1.00  0.00    -0.013 A 
HETATM    9  C   UNL     1       8.205  21.747  54.577  1.00  0.00     0.019 A 
HETATM   10 BR   UNL     1       8.011  20.725  52.989  1.00  0.00    -0.051 Br
HETATM   11  C   UNL     1       8.239  21.055  55.793  1.00  0.00     0.022 A 
HETATM   12  C   UNL     1       8.354  21.752  56.997  1.00  0.00     0.038 A 
HETATM   13  C   UNL     1       8.434  23.136  56.971  1.00  0.00     0.066 A 
HETATM   14  C   UNL     1       8.409  23.834  55.767  1.00  0.00     0.046 A 
BRANCH  13  15
HETATM   15  O   UNL     1       8.535  23.871  58.111  1.00  0.00    -0.361 OA
HETATM   16  H   UNL     1       8.419  24.816  57.901  1.00  0.00     0.217 HD
ENDBRANCH  13  15
ENDBRANCH   7   8
ENDBRANCH   3   7
BRANCH   1  17
HETATM   17  C   UNL     1       5.284  27.245  51.229  1.00  0.00     0.127 C 
BRANCH  17  18
HETATM   18  N   UNL     1       5.300  26.604  49.910  1.00  0.00    -0.376 N 
HETATM   19  H   UNL     1       5.866  25.763  49.850  1.00  0.00     0.161 HD
BRANCH  18  20
HETATM   20  C   UNL     1       4.185  26.656  49.087  1.00  0.00     0.100 A 
HETATM   21  C   UNL     1       3.959  25.804  47.998  1.00  0.00     0.048 A 
HETATM   22  C   UNL     1       2.793  25.917  47.241  1.00  0.00     0.005 A 
HETATM   23  C   UNL     1       1.844  26.870  47.581  1.00  0.00     0.017 A 
HETATM   24  C   UNL     1       2.083  27.681  48.676  1.00  0.00     0.089 A 
HETATM   25  N   UNL     1       3.218  27.546  49.381  1.00  0.00    -0.353 N 
HETATM   26  H   UNL     1       3.345  28.142  50.193  1.00  0.00     0.166 HD
ENDBRANCH  18  20
ENDBRANCH  17  18
ENDBRANCH   1  17
TORSDOF 6
ENDMDL
MODEL 3
REMARK VINA RESULT:      -8.2      5.856      8.378
REMARK  6 active torsions:
REMARK  status: ('A' for Active; 'I' for Inactive)
REMARK    1  A    between atoms: C_3  and  N_4 
REMARK    2  A    between atoms: N_4  and  C_5 
REMARK    3  A    between atoms: C_5  and  C_6 
REMARK    4  A    between atoms: N_8  and  C_10 
REMARK    5  A    between atoms: C_10  and  C_11 
REMARK    6  A    between atoms: C_16  and  O_17 
ROOT
HETATM    1  C   UNL     1       7.711  25.400  56.199  1.00  0.00     0.031 C 
HETATM    2  C   UNL     1       8.001  26.628  57.059  1.00  0.00     0.241 C 
HETATM    3  N   UNL     1       6.982  27.653  56.607  1.00  0.00    -0.067 N 
HETATM    4  H   UNL     1       6.513  28.024  57.448  1.00  0.00     0.280 HD
HETATM    5  C   UNL     1       5.933  26.932  55.783  1.00  0.00     0.235 C 
HETATM    6  C   UNL     1       6.192  25.461  56.065  1.00  0.00     0.035 C 
ENDROOT
BRANCH   3   7
HETATM    7  C   UNL     1       7.582  28.866  55.930  1.00  0.00     0.274 C 
BRANCH   7   8
HETATM    8  C   UNL     1       8.559  29.617  56.791  1.00  0.00    -0.013 A 
HETATM    9  C   UNL     1       8.164  30.525  57.788  1.00  0.00     0.019 A 
HETATM   10 BR   UNL     1       6.333  30.902  58.121  1.00  0.00    -0.051 Br
HETATM   11  C   UNL     1       9.116  31.198  58.562  1.00  0.00     0.022 A 
HETATM   12  C   UNL     1      10.477  30.982  58.347  1.00  0.00     0.038 A 
HETATM   13  C   UNL     1      10.873  30.093  57.359  1.00  0.00     0.066 A 
HETATM   14  C   UNL     1       9.935  29.412  56.588  1.00  0.00     0.046 A 
BRANCH  13  15
HETATM   15  O   UNL     1      12.185  29.850  57.094  1.00  0.00    -0.361 OA
HETATM   16  H   UNL     1      12.260  29.099  56.478  1.00  0.00     0.217 HD
ENDBRANCH  13  15
ENDBRANCH   7   8
ENDBRANCH   3   7
BRANCH   1  17
HETATM   17  C   UNL     1       8.235  24.100  56.819  1.00  0.00     0.127 C 
BRANCH  17  18
HETATM   18  N   UNL     1       9.215  23.469  55.929  1.00  0.00    -0.376 N 
HETATM   19  H   UNL     1      10.141  23.349  56.329  1.00  0.00     0.161 HD
BRANCH  18  20
HETATM   20  C   UNL     1       8.816  22.517  55.002  1.00  0.00     0.100 A 
HETATM   21  C   UNL     1       8.233  22.810  53.762  1.00  0.00     0.048 A 
HETATM   22  C   UNL     1       7.886  21.782  52.884  1.00  0.00     0.005 A 
HETATM   23  C   UNL     1       8.136  20.465  53.237  1.00  0.00     0.017 A 
HETATM   24  C   UNL     1       8.735  20.208  54.458  1.00  0.00     0.089 A 
HETATM   25  N   UNL     1       9.054  21.221  55.279  1.00  0.00    -0.353 N 
HETATM   26  H   UNL     1       9.515  20.994  56.155  1.00  0.00     0.166 HD
ENDBRANCH  18  20
ENDBRANCH  17  18
ENDBRANCH   1  17
TORSDOF 6
ENDMDL
MODEL 4
REMARK VINA RESULT:      -8.0      6.307      8.907
REMARK  6 active torsions:
REMARK  status: ('A' for Active; 'I' for Inactive)
REMARK    1  A    between atoms: C_3  and  N_4 
REMARK    2  A    between atoms: N_4  and  C_5 
REMARK    3  A    between atoms: C_5  and  C_6 
REMARK    4  A    between atoms: N_8  and  C_10 
REMARK    5  A    between atoms: C_10  and  C_11 
REMARK    6  A    between atoms: C_16  and  O_17 
ROOT
HETATM    1  C   UNL     1       7.183  28.544  57.319  1.00  0.00     0.031 C 
HETATM    2  C   UNL     1       7.843  27.247  56.855  1.00  0.00     0.241 C 
HETATM    3  N   UNL     1       7.058  26.844  55.625  1.00  0.00    -0.067 N 
HETATM    4  H   UNL     1       7.732  26.655  54.868  1.00  0.00     0.280 HD
HETATM    5  C   UNL     1       6.220  28.034  55.200  1.00  0.00     0.235 C 
HETATM    6  C   UNL     1       6.799  29.194  55.992  1.00  0.00     0.035 C 
ENDROOT
BRANCH   3   7
HETATM    7  C   UNL     1       6.278  25.557  55.783  1.00  0.00     0.274 C 
BRANCH   7   8
HETATM    8  C   UNL     1       6.888  24.388  55.060  1.00  0.00    -0.013 A 
HETATM    9  C   UNL     1       6.646  24.115  53.703  1.00  0.00     0.019 A 
HETATM   10 BR   UNL     1       5.491  25.202  52.659  1.00  0.00    -0.051 Br
HETATM   11  C   UNL     1       7.239  23.012  53.077  1.00  0.00     0.022 A 
HETATM   12  C   UNL     1       8.078  22.162  53.799  1.00  0.00     0.038 A 
HETATM   13  C   UNL     1       8.313  22.423  55.140  1.00  0.00     0.066 A 
HETATM   14  C   UNL     1       7.734  23.520  55.770  1.00  0.00     0.046 A 
BRANCH  13  15
HETATM   15  O   UNL     1       9.111  21.623  55.899  1.00  0.00    -0.361 OA
HETATM   16  H   UNL     1       8.942  20.689  55.677  1.00  0.00     0.217 HD
ENDBRANCH  13  15
ENDBRANCH   7   8
ENDBRANCH   3   7
BRANCH   1  17
HETATM   17  C   UNL     1       8.102  29.401  58.196  1.00  0.00     0.127 C 
BRANCH  17  18
HETATM   18  N   UNL     1       7.326  30.429  58.897  1.00  0.00    -0.376 N 
HETATM   19  H   UNL     1       6.318  30.339  58.808  1.00  0.00     0.161 HD
BRANCH  18  20
HETATM   20  C   UNL     1       7.792  30.979  60.082  1.00  0.00     0.100 A 
HETATM   21  C   UNL     1       9.116  31.382  60.305  1.00  0.00     0.048 A 
HETATM   22  C   UNL     1       9.486  31.950  61.524  1.00  0.00     0.005 A 
HETATM   23  C   UNL     1       8.533  32.130  62.515  1.00  0.00     0.017 A 
HETATM   24  C   UNL     1       7.229  31.744  62.257  1.00  0.00     0.089 A 
HETATM   25  N   UNL     1       6.907  31.200  61.072  1.00  0.00    -0.353 N 
HETATM   26  H   UNL     1       5.936  30.953  60.912  1.00  0.00     0.166 HD
ENDBRANCH  18  20
ENDBRANCH  17  18
ENDBRANCH   1  17
TORSDOF 6
ENDMDL
MODEL 5
REMARK VINA RESULT:      -8.0      6.370      8.956
REMARK  6 active torsions:
REMARK  status: ('A' for Active; 'I' for Inactive)
REMARK    1  A    between atoms: C_3  and  N_4 
REMARK    2  A    between atoms: N_4  and  C_5 
REMARK    3  A    between atoms: C_5  and  C_6 
REMARK    4  A    between atoms: N_8  and  C_10 
REMARK    5  A    between atoms: C_10  and  C_11 
REMARK    6  A    between atoms: C_16  and  O_17 
ROOT
HETATM    1  C   UNL     1       7.479  28.573  57.787  1.00  0.00     0.031 C 
HETATM    2  C   UNL     1       8.132  27.881  56.593  1.00  0.00     0.241 C 
HETATM    3  N   UNL     1       7.140  26.810  56.190  1.00  0.00    -0.067 N 
HETATM    4  H   UNL     1       6.975  26.899  55.176  1.00  0.00     0.280 HD
HETATM    5  C   UNL     1       5.829  27.106  56.892  1.00  0.00     0.235 C 
HETATM    6  C   UNL     1       6.001  28.524  57.411  1.00  0.00     0.035 C 
ENDROOT
BRANCH   3   7
HETATM    7  C   UNL     1       7.645  25.396  56.381  1.00  0.00     0.274 C 
BRANCH   7   8
HETATM    8  C   UNL     1       7.729  24.608  55.103  1.00  0.00    -0.013 A 
HETATM    9  C   UNL     1       8.019  23.233  55.067  1.00  0.00     0.019 A 
HETATM   10 BR   UNL     1       8.357  22.245  56.653  1.00  0.00    -0.051 Br
HETATM   11  C   UNL     1       8.086  22.547  53.849  1.00  0.00     0.022 A 
HETATM   12  C   UNL     1       7.872  23.224  52.648  1.00  0.00     0.038 A 
HETATM   13  C   UNL     1       7.594  24.582  52.678  1.00  0.00     0.066 A 
HETATM   14  C   UNL     1       7.517  25.273  53.883  1.00  0.00     0.046 A 
BRANCH  13  15
HETATM   15  O   UNL     1       7.389  25.298  51.539  1.00  0.00    -0.361 OA
HETATM   16  H   UNL     1       8.073  25.072  50.884  1.00  0.00     0.217 HD
ENDBRANCH  13  15
ENDBRANCH   7   8
ENDBRANCH   3   7
BRANCH   1  17
HETATM   17  C   UNL     1       8.020  29.987  58.026  1.00  0.00     0.127 C 
BRANCH  17  18
HETATM   18  N   UNL     1       8.788  30.037  59.274  1.00  0.00    -0.376 N 
HETATM   19  H   UNL     1       9.790  29.907  59.165  1.00  0.00     0.161 HD
BRANCH  18  20
HETATM   20  C   UNL     1       8.383  30.852  60.320  1.00  0.00     0.100 A 
HETATM   21  C   UNL     1       9.205  31.251  61.383  1.00  0.00     0.048 A 
HETATM   22  C   UNL     1       8.713  32.095  62.379  1.00  0.00     0.005 A 
HETATM   23  C   UNL     1       7.406  32.552  62.307  1.00  0.00     0.017 A 
HETATM   24  C   UNL     1       6.625  32.160  61.234  1.00  0.00     0.089 A 
HETATM   25  N   UNL     1       7.130  31.346  60.293  1.00  0.00    -0.353 N 
HETATM   26  H   UNL     1       6.535  31.101  59.508  1.00  0.00     0.166 HD
ENDBRANCH  18  20
ENDBRANCH  17  18
ENDBRANCH   1  17
TORSDOF 6
ENDMDL
MODEL 6
REMARK VINA RESULT:      -7.9      4.734      6.506
REMARK  6 active torsions:
REMARK  status: ('A' for Active; 'I' for Inactive)
REMARK    1  A    between atoms: C_3  and  N_4 
REMARK    2  A    between atoms: N_4  and  C_5 
REMARK    3  A    between atoms: C_5  and  C_6 
REMARK    4  A    between atoms: N_8  and  C_10 
REMARK    5  A    between atoms: C_10  and  C_11 
REMARK    6  A    between atoms: C_16  and  O_17 
ROOT
HETATM    1  C   UNL     1       5.857  27.197  56.040  1.00  0.00     0.031 C 
HETATM    2  C   UNL     1       6.206  26.260  54.886  1.00  0.00     0.241 C 
HETATM    3  N   UNL     1       6.451  24.921  55.550  1.00  0.00    -0.067 N 
HETATM    4  H   UNL     1       5.889  24.214  55.051  1.00  0.00     0.280 HD
HETATM    5  C   UNL     1       5.921  25.003  56.968  1.00  0.00     0.235 C 
HETATM    6  C   UNL     1       5.083  26.271  56.975  1.00  0.00     0.035 C 
ENDROOT
BRANCH   3   7
HETATM    7  C   UNL     1       7.878  24.430  55.444  1.00  0.00     0.274 C 
BRANCH   7   8
HETATM    8  C   UNL     1       8.006  23.081  54.792  1.00  0.00    -0.013 A 
HETATM    9  C   UNL     1       7.961  22.895  53.400  1.00  0.00     0.019 A 
HETATM   10 BR   UNL     1       7.707  24.352  52.208  1.00  0.00    -0.051 Br
HETATM   11  C   UNL     1       8.085  21.617  52.844  1.00  0.00     0.022 A 
HETATM   12  C   UNL     1       8.248  20.504  53.670  1.00  0.00     0.038 A 
HETATM   13  C   UNL     1       8.285  20.681  55.044  1.00  0.00     0.066 A 
HETATM   14  C   UNL     1       8.170  21.949  55.607  1.00  0.00     0.046 A 
BRANCH  13  15
HETATM   15  O   UNL     1       8.429  19.634  55.900  1.00  0.00    -0.361 OA
HETATM   16  H   UNL     1       8.257  18.799  55.427  1.00  0.00     0.217 HD
ENDBRANCH  13  15
ENDBRANCH   7   8
ENDBRANCH   3   7
BRANCH   1  17
HETATM   17  C   UNL     1       5.070  28.432  55.587  1.00  0.00     0.127 C 
BRANCH  17  18
HETATM   18  N   UNL     1       5.952  29.602  55.519  1.00  0.00    -0.376 N 
HETATM   19  H   UNL     1       5.477  30.487  55.369  1.00  0.00     0.161 HD
BRANCH  18  20
HETATM   20  C   UNL     1       7.121  29.649  56.264  1.00  0.00     0.100 A 
HETATM   21  C   UNL     1       7.174  29.865  57.648  1.00  0.00     0.048 A 
HETATM   22  C   UNL     1       8.399  29.871  58.316  1.00  0.00     0.005 A 
HETATM   23  C   UNL     1       9.569  29.647  57.605  1.00  0.00     0.017 A 
HETATM   24  C   UNL     1       9.483  29.413  56.244  1.00  0.00     0.089 A 
HETATM   25  N   UNL     1       8.287  29.415  55.633  1.00  0.00    -0.353 N 
HETATM   26  H   UNL     1       8.263  29.215  54.638  1.00  0.00     0.166 HD
ENDBRANCH  18  20
ENDBRANCH  17  18
ENDBRANCH   1  17
TORSDOF 6
ENDMDL
MODEL 7
REMARK VINA RESULT:      -7.9      6.109      8.852
REMARK  6 active torsions:
REMARK  status: ('A' for Active; 'I' for Inactive)
REMARK    1  A    between atoms: C_3  and  N_4 
REMARK    2  A    between atoms: N_4  and  C_5 
REMARK    3  A    between atoms: C_5  and  C_6 
REMARK    4  A    between atoms: N_8  and  C_10 
REMARK    5  A    between atoms: C_10  and  C_11 
REMARK    6  A    between atoms: C_16  and  O_17 
ROOT
HETATM    1  C   UNL     1       6.469  26.165  56.149  1.00  0.00     0.031 C 
HETATM    2  C   UNL     1       7.526  26.761  57.075  1.00  0.00     0.241 C 
HETATM    3  N   UNL     1       6.957  28.105  57.480  1.00  0.00    -0.067 N 
HETATM    4  H   UNL     1       7.004  28.171  58.508  1.00  0.00     0.280 HD
HETATM    5  C   UNL     1       5.492  28.124  57.090  1.00  0.00     0.235 C 
HETATM    6  C   UNL     1       5.175  26.671  56.780  1.00  0.00     0.035 C 
ENDROOT
BRANCH   3   7
HETATM    7  C   UNL     1       7.752  29.290  56.976  1.00  0.00     0.274 C 
BRANCH   7   8
HETATM    8  C   UNL     1       8.108  30.279  58.051  1.00  0.00    -0.013 A 
HETATM    9  C   UNL     1       9.422  30.725  58.279  1.00  0.00     0.019 A 
HETATM   10 BR   UNL     1      10.883  30.089  57.247  1.00  0.00    -0.051 Br
HETATM   11  C   UNL     1       9.698  31.647  59.295  1.00  0.00     0.022 A 
HETATM   12  C   UNL     1       8.670  32.133  60.104  1.00  0.00     0.038 A 
HETATM   13  C   UNL     1       7.374  31.689  59.888  1.00  0.00     0.066 A 
HETATM   14  C   UNL     1       7.086  30.778  58.876  1.00  0.00     0.046 A 
BRANCH  13  15
HETATM   15  O   UNL     1       6.332  32.116  60.652  1.00  0.00    -0.361 OA
HETATM   16  H   UNL     1       6.154  33.056  60.465  1.00  0.00     0.217 HD
ENDBRANCH  13  15
ENDBRANCH   7   8
ENDBRANCH   3   7
BRANCH   1  17
HETATM   17  C   UNL     1       6.561  24.639  56.042  1.00  0.00     0.127 C 
BRANCH  17  18
HETATM   18  N   UNL     1       6.988  24.246  54.695  1.00  0.00    -0.376 N 
HETATM   19  H   UNL     1       7.445  24.978  54.161  1.00  0.00     0.161 HD
BRANCH  18  20
HETATM   20  C   UNL     1       7.398  22.947  54.436  1.00  0.00     0.100 A 
HETATM   21  C   UNL     1       7.748  22.460  53.169  1.00  0.00     0.048 A 
HETATM   22  C   UNL     1       8.173  21.141  53.011  1.00  0.00     0.005 A 
HETATM   23  C   UNL     1       8.263  20.311  54.119  1.00  0.00     0.017 A 
HETATM   24  C   UNL     1       7.933  20.826  55.360  1.00  0.00     0.089 A 
HETATM   25  N   UNL     1       7.527  22.101  55.477  1.00  0.00    -0.353 N 
HETATM   26  H   UNL     1       7.318  22.449  56.407  1.00  0.00     0.166 HD
ENDBRANCH  18  20
ENDBRANCH  17  18
ENDBRANCH   1  17
TORSDOF 6
ENDMDL
MODEL 8
REMARK VINA RESULT:      -7.8      4.296      6.432
REMARK  6 active torsions:
REMARK  status: ('A' for Active; 'I' for Inactive)
REMARK    1  A    between atoms: C_3  and  N_4 
REMARK    2  A    between atoms: N_4  and  C_5 
REMARK    3  A    between atoms: C_5  and  C_6 
REMARK    4  A    between atoms: N_8  and  C_10 
REMARK    5  A    between atoms: C_10  and  C_11 
REMARK    6  A    between atoms: C_16  and  O_17 
ROOT
HETATM    1  C   UNL     1       7.016  26.716  54.051  1.00  0.00     0.031 C 
HETATM    2  C   UNL     1       7.632  26.041  52.827  1.00  0.00     0.241 C 
HETATM    3  N   UNL     1       7.246  24.583  52.967  1.00  0.00    -0.067 N 
HETATM    4  H   UNL     1       6.829  24.280  52.074  1.00  0.00     0.280 HD
HETATM    5  C   UNL     1       6.165  24.490  54.027  1.00  0.00     0.235 C 
HETATM    6  C   UNL     1       5.719  25.930  54.225  1.00  0.00     0.035 C 
ENDROOT
BRANCH   3   7
HETATM    7  C   UNL     1       8.418  23.652  53.188  1.00  0.00     0.274 C 
BRANCH   7   8
HETATM    8  C   UNL     1       8.361  22.910  54.495  1.00  0.00    -0.013 A 
HETATM    9  C   UNL     1       8.181  21.519  54.580  1.00  0.00     0.019 A 
HETATM   10 BR   UNL     1       7.966  20.445  53.029  1.00  0.00    -0.051 Br
HETATM   11  C   UNL     1       8.135  20.878  55.823  1.00  0.00     0.022 A 
HETATM   12  C   UNL     1       8.261  21.617  57.001  1.00  0.00     0.038 A 
HETATM   13  C   UNL     1       8.431  22.990  56.922  1.00  0.00     0.066 A 
HETATM   14  C   UNL     1       8.486  23.637  55.691  1.00  0.00     0.046 A 
BRANCH  13  15
HETATM   15  O   UNL     1       8.548  23.765  58.034  1.00  0.00    -0.361 OA
HETATM   16  H   UNL     1       7.706  24.229  58.198  1.00  0.00     0.217 HD
ENDBRANCH  13  15
ENDBRANCH   7   8
ENDBRANCH   3   7
BRANCH   1  17
HETATM   17  C   UNL     1       6.815  28.224  53.862  1.00  0.00     0.127 C 
BRANCH  17  18
HETATM   18  N   UNL     1       6.677  28.887  55.163  1.00  0.00    -0.376 N 
HETATM   19  H   UNL     1       5.827  28.659  55.671  1.00  0.00     0.161 HD
BRANCH  18  20
HETATM   20  C   UNL     1       7.795  29.174  55.931  1.00  0.00     0.100 A 
HETATM   21  C   UNL     1       9.103  29.252  55.434  1.00  0.00     0.048 A 
HETATM   22  C   UNL     1      10.164  29.571  56.282  1.00  0.00     0.005 A 
HETATM   23  C   UNL     1       9.918  29.828  57.622  1.00  0.00     0.017 A 
HETATM   24  C   UNL     1       8.613  29.767  58.080  1.00  0.00     0.089 A 
HETATM   25  N   UNL     1       7.616  29.455  57.236  1.00  0.00    -0.353 N 
HETATM   26  H   UNL     1       6.670  29.445  57.603  1.00  0.00     0.166 HD
ENDBRANCH  18  20
ENDBRANCH  17  18
ENDBRANCH   1  17
TORSDOF 6
ENDMDL
MODEL 9
REMARK VINA RESULT:      -7.7      4.465      7.129
REMARK  6 active torsions:
REMARK  status: ('A' for Active; 'I' for Inactive)
REMARK    1  A    between atoms: C_3  and  N_4 
REMARK    2  A    between atoms: N_4  and  C_5 
REMARK    3  A    between atoms: C_5  and  C_6 
REMARK    4  A    between atoms: N_8  and  C_10 
REMARK    5  A    between atoms: C_10  and  C_11 
REMARK    6  A    between atoms: C_16  and  O_17 
ROOT
HETATM    1  C   UNL     1       6.976  27.428  54.832  1.00  0.00     0.031 C 
HETATM    2  C   UNL     1       7.602  26.199  55.487  1.00  0.00     0.241 C 
HETATM    3  N   UNL     1       7.685  25.179  54.371  1.00  0.00    -0.067 N 
HETATM    4  H   UNL     1       8.649  24.812  54.350  1.00  0.00     0.280 HD
HETATM    5  C   UNL     1       7.448  25.906  53.061  1.00  0.00     0.235 C 
HETATM    6  C   UNL     1       7.571  27.376  53.428  1.00  0.00     0.035 C 
ENDROOT
BRANCH   3   7
HETATM    7  C   UNL     1       6.809  23.963  54.577  1.00  0.00     0.274 C 
BRANCH   7   8
HETATM    8  C   UNL     1       7.573  22.670  54.627  1.00  0.00    -0.013 A 
HETATM    9  C   UNL     1       8.284  22.241  55.761  1.00  0.00     0.019 A 
HETATM   10 BR   UNL     1       8.358  23.287  57.344  1.00  0.00    -0.051 Br
HETATM   11  C   UNL     1       8.980  21.027  55.753  1.00  0.00     0.022 A 
HETATM   12  C   UNL     1       8.984  20.226  54.611  1.00  0.00     0.038 A 
HETATM   13  C   UNL     1       8.292  20.649  53.486  1.00  0.00     0.066 A 
HETATM   14  C   UNL     1       7.590  21.850  53.485  1.00  0.00     0.046 A 
BRANCH  13  15
HETATM   15  O   UNL     1       8.270  19.918  52.339  1.00  0.00    -0.361 OA
HETATM   16  H   UNL     1       8.324  18.969  52.556  1.00  0.00     0.217 HD
ENDBRANCH  13  15
ENDBRANCH   7   8
ENDBRANCH   3   7
BRANCH   1  17
HETATM   17  C   UNL     1       7.273  28.726  55.592  1.00  0.00     0.127 C 
BRANCH  17  18
HETATM   18  N   UNL     1       8.482  28.574  56.408  1.00  0.00    -0.376 N 
HETATM   19  H   UNL     1       9.240  28.069  55.959  1.00  0.00     0.161 HD
BRANCH  18  20
HETATM   20  C   UNL     1       8.849  29.557  57.315  1.00  0.00     0.100 A 
HETATM   21  C   UNL     1       8.125  29.886  58.469  1.00  0.00     0.048 A 
HETATM   22  C   UNL     1       8.588  30.876  59.336  1.00  0.00     0.005 A 
HETATM   23  C   UNL     1       9.781  31.527  59.060  1.00  0.00     0.017 A 
HETATM   24  C   UNL     1      10.486  31.165  57.926  1.00  0.00     0.089 A 
HETATM   25  N   UNL     1      10.011  30.208  57.112  1.00  0.00    -0.353 N 
HETATM   26  H   UNL     1      10.569  29.953  56.304  1.00  0.00     0.166 HD
ENDBRANCH  18  20
ENDBRANCH  17  18
ENDBRANCH   1  17
TORSDOF 6
ENDMDL
MODEL 10
REMARK VINA RESULT:      -7.5      2.111      2.752
REMARK  6 active torsions:
REMARK  status: ('A' for Active; 'I' for Inactive)
REMARK    1  A    between atoms: C_3  and  N_4 
REMARK    2  A    between atoms: N_4  and  C_5 
REMARK    3  A    between atoms: C_5  and  C_6 
REMARK    4  A    between atoms: N_8  and  C_10 
REMARK    5  A    between atoms: C_10  and  C_11 
REMARK    6  A    between atoms: C_16  and  O_17 
ROOT
HETATM    1  C   UNL     1       5.150  27.646  54.471  1.00  0.00     0.031 C 
HETATM    2  C   UNL     1       5.435  26.187  54.123  1.00  0.00     0.241 C 
HETATM    3  N   UNL     1       5.985  25.595  55.404  1.00  0.00    -0.067 N 
HETATM    4  H   UNL     1       5.458  24.730  55.604  1.00  0.00     0.280 HD
HETATM    5  C   UNL     1       5.695  26.572  56.527  1.00  0.00     0.235 C 
HETATM    6  C   UNL     1       4.692  27.540  55.923  1.00  0.00     0.035 C 
ENDROOT
BRANCH   3   7
HETATM    7  C   UNL     1       7.431  25.158  55.313  1.00  0.00     0.274 C 
BRANCH   7   8
HETATM    8  C   UNL     1       7.607  23.754  54.807  1.00  0.00    -0.013 A 
HETATM    9  C   UNL     1       7.805  23.446  53.450  1.00  0.00     0.019 A 
HETATM   10 BR   UNL     1       7.845  24.799  52.118  1.00  0.00    -0.051 Br
HETATM   11  C   UNL     1       7.963  22.120  53.033  1.00  0.00     0.022 A 
HETATM   12  C   UNL     1       7.918  21.079  53.962  1.00  0.00     0.038 A 
HETATM   13  C   UNL     1       7.714  21.377  55.300  1.00  0.00     0.066 A 
HETATM   14  C   UNL     1       7.563  22.693  55.728  1.00  0.00     0.046 A 
BRANCH  13  15
HETATM   15  O   UNL     1       7.647  20.406  56.251  1.00  0.00    -0.361 OA
HETATM   16  H   UNL     1       8.051  20.729  57.077  1.00  0.00     0.217 HD
ENDBRANCH  13  15
ENDBRANCH   7   8
ENDBRANCH   3   7
BRANCH   1  17
HETATM   17  C   UNL     1       4.123  28.293  53.535  1.00  0.00     0.127 C 
BRANCH  17  18
HETATM   18  N   UNL     1       4.763  28.701  52.280  1.00  0.00    -0.376 N 
HETATM   19  H   UNL     1       5.738  28.972  52.365  1.00  0.00     0.161 HD
BRANCH  18  20
HETATM   20  C   UNL     1       4.387  28.124  51.076  1.00  0.00     0.100 A 
HETATM   21  C   UNL     1       5.120  27.136  50.404  1.00  0.00     0.048 A 
HETATM   22  C   UNL     1       4.648  26.597  49.207  1.00  0.00     0.005 A 
HETATM   23  C   UNL     1       3.437  27.032  48.689  1.00  0.00     0.017 A 
HETATM   24  C   UNL     1       2.724  27.991  49.387  1.00  0.00     0.089 A 
HETATM   25  N   UNL     1       3.209  28.489  50.536  1.00  0.00    -0.353 N 
HETATM   26  H   UNL     1       2.645  29.173  51.032  1.00  0.00     0.166 HD
ENDBRANCH  18  20
ENDBRANCH  17  18
ENDBRANCH   1  17
TORSDOF 6
ENDMDL
