MODEL 1
REMARK VINA RESULT:     -10.5      0.000      0.000
REMARK  8 active torsions:
REMARK  status: ('A' for Active; 'I' for Inactive)
REMARK    1  A    between atoms: O_2  and  C_3 
REMARK    2  A    between atoms: C_6  and  N_7 
REMARK       I    between atoms: N_7  and  C_8 
REMARK    3  A    between atoms: C_8  and  C_9 
REMARK    4  A    between atoms: C_9  and  N_10 
REMARK    5  A    between atoms: N_13  and  C_14 
REMARK    6  A    between atoms: C_14  and  C_15 
REMARK    7  A    between atoms: C_30  and  C_31 
REMARK       I    between atoms: C_31  and  N_32 
REMARK    8  A    between atoms: N_32  and  C_33 
ROOT
HETATM    1  N   UNL     1       7.198  29.761  57.817  1.00  0.00    -0.290 N 
HETATM    2  C   UNL     1       7.587  28.434  57.701  1.00  0.00     0.332 C 
HETATM    3  O   UNL     1       8.771  28.116  57.851  1.00  0.00    -0.246 OA
HETATM    4  N   UNL     1       6.600  27.514  57.393  1.00  0.00    -0.261 N 
HETATM    5  C   UNL     1       5.317  27.845  56.980  1.00  0.00     0.264 C 
HETATM    6  O   UNL     1       4.471  27.023  56.634  1.00  0.00    -0.267 OA
HETATM    7  C   UNL     1       4.982  29.279  56.943  1.00  0.00     0.059 A 
HETATM    8  C   UNL     1       5.918  30.208  57.393  1.00  0.00     0.056 A 
HETATM    9  C   UNL     1       3.728  29.687  56.467  1.00  0.00     0.020 A 
HETATM   10  C   UNL     1       3.410  31.044  56.413  1.00  0.00     0.018 A 
HETATM   11  C   UNL     1       4.336  31.994  56.848  1.00  0.00     0.034 A 
HETATM   12  C   UNL     1       5.567  31.568  57.372  1.00  0.00     0.048 A 
ENDROOT
BRANCH   1  13
HETATM   13  C   UNL     1       8.210  30.713  58.282  1.00  0.00     0.237 C 
BRANCH  13  14
HETATM   14  C   UNL     1       8.195  30.839  59.806  1.00  0.00     0.240 C 
HETATM   15  N   UNL     1       7.314  31.808  60.258  1.00  0.00    -0.326 N 
HETATM   16  H   UNL     1       6.751  32.273  59.547  1.00  0.00     0.169 HD
HETATM   17  O   UNL     1       8.893  30.097  60.495  1.00  0.00    -0.271 OA
BRANCH  15  18
HETATM   18  C   UNL     1       7.103  32.217  61.590  1.00  0.00     0.034 A 
HETATM   19  C   UNL     1       5.787  32.495  61.976  1.00  0.00     0.032 A 
HETATM   20  C   UNL     1       5.495  32.945  63.272  1.00  0.00     0.039 A 
HETATM   21  C   UNL     1       6.521  33.121  64.198  1.00  0.00     0.068 A 
HETATM   22  C   UNL     1       7.830  32.823  63.822  1.00  0.00     0.039 A 
HETATM   23  C   UNL     1       8.123  32.378  62.527  1.00  0.00     0.032 A 
BRANCH  21  24
HETATM   24  O   UNL     1       6.379  33.562  65.484  1.00  0.00    -0.356 OA
HETATM   25  C   UNL     1       5.060  33.879  65.910  1.00  0.00     0.210 C 
ENDBRANCH  21  24
ENDBRANCH  15  18
ENDBRANCH  13  14
ENDBRANCH   1  13
BRANCH   4  26
HETATM   26  C   UNL     1       6.932  26.097  57.486  1.00  0.00     0.175 C 
BRANCH  26  27
HETATM   27  C   UNL     1       7.175  25.501  56.111  1.00  0.00    -0.037 A 
HETATM   28  C   UNL     1       7.192  24.107  55.936  1.00  0.00     0.048 A 
HETATM   29  C   UNL     1       7.456  23.612  54.676  1.00  0.00     0.105 A 
HETATM   30  C   UNL     1       7.708  24.441  53.609  1.00  0.00     0.105 A 
HETATM   31  O   UNL     1       7.508  22.297  54.334  1.00  0.00    -0.323 OA
HETATM   32  O   UNL     1       7.951  23.752  52.462  1.00  0.00    -0.323 OA
HETATM   33  C   UNL     1       7.707  25.811  53.740  1.00  0.00     0.040 A 
HETATM   34  C   UNL     1       7.818  22.393  52.928  1.00  0.00     0.352 A 
HETATM   35  C   UNL     1       7.438  26.345  55.005  1.00  0.00     0.012 A 
ENDBRANCH  26  27
ENDBRANCH   4  26
BRANCH  11  36
HETATM   36  C   UNL     1       3.985  33.440  56.744  1.00  0.00     0.252 C 
HETATM   37  N   UNL     1       3.230  33.968  57.773  1.00  0.00    -0.352 N 
HETATM   38  H   UNL     1       3.108  33.432  58.623  1.00  0.00     0.163 HD
HETATM   39  O   UNL     1       4.387  34.094  55.788  1.00  0.00    -0.268 OA
BRANCH  37  40
HETATM   40  C   UNL     1       2.903  35.389  57.850  1.00  0.00     0.084 C 
HETATM   41  C   UNL     1       1.498  35.587  58.428  1.00  0.00     0.025 C 
HETATM   42  C   UNL     1       1.419  35.282  59.924  1.00  0.00     0.002 C 
HETATM   43  C   UNL     1       2.467  36.058  60.713  1.00  0.00     0.000 C 
HETATM   44  C   UNL     1       3.873  35.827  60.168  1.00  0.00     0.002 C 
HETATM   45  C   UNL     1       3.959  36.139  58.673  1.00  0.00     0.025 C 
ENDBRANCH  37  40
ENDBRANCH  11  36
TORSDOF 8
ENDMDL
MODEL 2
REMARK VINA RESULT:     -10.5      2.799     10.426
REMARK  8 active torsions:
REMARK  status: ('A' for Active; 'I' for Inactive)
REMARK    1  A    between atoms: O_2  and  C_3 
REMARK    2  A    between atoms: C_6  and  N_7 
REMARK       I    between atoms: N_7  and  C_8 
REMARK    3  A    between atoms: C_8  and  C_9 
REMARK    4  A    between atoms: C_9  and  N_10 
REMARK    5  A    between atoms: N_13  and  C_14 
REMARK    6  A    between atoms: C_14  and  C_15 
REMARK    7  A    between atoms: C_30  and  C_31 
REMARK       I    between atoms: C_31  and  N_32 
REMARK    8  A    between atoms: N_32  and  C_33 
ROOT
HETATM    1  N   UNL     1       5.631  30.701  57.802  1.00  0.00    -0.290 N 
HETATM    2  C   UNL     1       6.294  31.802  58.326  1.00  0.00     0.332 C 
HETATM    3  O   UNL     1       5.833  32.938  58.175  1.00  0.00    -0.246 OA
HETATM    4  N   UNL     1       7.484  31.561  58.992  1.00  0.00    -0.261 N 
HETATM    5  C   UNL     1       8.161  30.349  58.979  1.00  0.00     0.264 C 
HETATM    6  O   UNL     1       9.255  30.167  59.509  1.00  0.00    -0.267 OA
HETATM    7  C   UNL     1       7.516  29.237  58.262  1.00  0.00     0.059 A 
HETATM    8  C   UNL     1       6.248  29.423  57.715  1.00  0.00     0.056 A 
HETATM    9  C   UNL     1       8.179  28.006  58.149  1.00  0.00     0.020 A 
HETATM   10  C   UNL     1       7.582  26.953  57.457  1.00  0.00     0.018 A 
HETATM   11  C   UNL     1       6.316  27.121  56.890  1.00  0.00     0.034 A 
HETATM   12  C   UNL     1       5.642  28.341  57.057  1.00  0.00     0.048 A 
ENDROOT
BRANCH   1  13
HETATM   13  C   UNL     1       4.306  30.935  57.223  1.00  0.00     0.237 C 
BRANCH  13  14
HETATM   14  C   UNL     1       4.386  31.114  55.706  1.00  0.00     0.240 C 
HETATM   15  N   UNL     1       3.673  30.151  55.011  1.00  0.00    -0.326 N 
HETATM   16  H   UNL     1       3.145  29.486  55.576  1.00  0.00     0.169 HD
HETATM   17  O   UNL     1       5.008  32.061  55.227  1.00  0.00    -0.271 OA
BRANCH  15  18
HETATM   18  C   UNL     1       3.590  29.992  53.614  1.00  0.00     0.034 A 
HETATM   19  C   UNL     1       3.983  28.757  53.083  1.00  0.00     0.032 A 
HETATM   20  C   UNL     1       3.966  28.529  51.699  1.00  0.00     0.039 A 
HETATM   21  C   UNL     1       3.555  29.537  50.830  1.00  0.00     0.068 A 
HETATM   22  C   UNL     1       3.142  30.759  51.358  1.00  0.00     0.039 A 
HETATM   23  C   UNL     1       3.162  30.989  52.739  1.00  0.00     0.032 A 
BRANCH  21  24
HETATM   24  O   UNL     1       3.502  29.453  49.467  1.00  0.00    -0.356 OA
HETATM   25  C   UNL     1       4.342  30.340  48.738  1.00  0.00     0.210 C 
ENDBRANCH  21  24
ENDBRANCH  15  18
ENDBRANCH  13  14
ENDBRANCH   1  13
BRANCH   4  26
HETATM   26  C   UNL     1       8.083  32.659  59.741  1.00  0.00     0.175 C 
BRANCH  26  27
HETATM   27  C   UNL     1       7.542  32.715  61.157  1.00  0.00    -0.037 A 
HETATM   28  C   UNL     1       6.266  33.248  61.408  1.00  0.00     0.048 A 
HETATM   29  C   UNL     1       5.833  33.315  62.716  1.00  0.00     0.105 A 
HETATM   30  C   UNL     1       6.616  32.886  63.762  1.00  0.00     0.105 A 
HETATM   31  O   UNL     1       4.632  33.798  63.133  1.00  0.00    -0.323 OA
HETATM   32  O   UNL     1       6.007  33.045  64.967  1.00  0.00    -0.323 OA
HETATM   33  C   UNL     1       7.873  32.363  63.559  1.00  0.00     0.040 A 
HETATM   34  C   UNL     1       4.747  33.620  64.560  1.00  0.00     0.352 A 
HETATM   35  C   UNL     1       8.339  32.278  62.243  1.00  0.00     0.012 A 
ENDBRANCH  26  27
ENDBRANCH   4  26
BRANCH  11  36
HETATM   36  C   UNL     1       5.718  25.990  56.123  1.00  0.00     0.252 C 
HETATM   37  N   UNL     1       6.095  25.874  54.799  1.00  0.00    -0.352 N 
HETATM   38  H   UNL     1       6.878  26.418  54.457  1.00  0.00     0.163 HD
HETATM   39  O   UNL     1       4.954  25.214  56.685  1.00  0.00    -0.268 OA
BRANCH  37  40
HETATM   40  C   UNL     1       5.666  24.757  53.962  1.00  0.00     0.084 C 
HETATM   41  C   UNL     1       5.349  25.240  52.542  1.00  0.00     0.025 C 
HETATM   42  C   UNL     1       6.597  25.619  51.747  1.00  0.00     0.002 C 
HETATM   43  C   UNL     1       7.625  24.493  51.742  1.00  0.00     0.000 C 
HETATM   44  C   UNL     1       7.978  24.042  53.156  1.00  0.00     0.002 C 
HETATM   45  C   UNL     1       6.732  23.653  53.954  1.00  0.00     0.025 C 
ENDBRANCH  37  40
ENDBRANCH  11  36
TORSDOF 8
ENDMDL
MODEL 3
REMARK VINA RESULT:     -10.5      4.258      9.865
REMARK  8 active torsions:
REMARK  status: ('A' for Active; 'I' for Inactive)
REMARK    1  A    between atoms: O_2  and  C_3 
REMARK    2  A    between atoms: C_6  and  N_7 
REMARK       I    between atoms: N_7  and  C_8 
REMARK    3  A    between atoms: C_8  and  C_9 
REMARK    4  A    between atoms: C_9  and  N_10 
REMARK    5  A    between atoms: N_13  and  C_14 
REMARK    6  A    between atoms: C_14  and  C_15 
REMARK    7  A    between atoms: C_30  and  C_31 
REMARK       I    between atoms: C_31  and  N_32 
REMARK    8  A    between atoms: N_32  and  C_33 
ROOT
HETATM    1  N   UNL     1       4.225  28.773  54.187  1.00  0.00    -0.290 N 
HETATM    2  C   UNL     1       4.142  28.962  55.560  1.00  0.00     0.332 C 
HETATM    3  O   UNL     1       3.912  28.006  56.308  1.00  0.00    -0.246 OA
HETATM    4  N   UNL     1       4.304  30.254  56.027  1.00  0.00    -0.261 N 
HETATM    5  C   UNL     1       4.319  31.386  55.223  1.00  0.00     0.264 C 
HETATM    6  O   UNL     1       4.386  32.535  55.653  1.00  0.00    -0.267 OA
HETATM    7  C   UNL     1       4.229  31.167  53.770  1.00  0.00     0.059 A 
HETATM    8  C   UNL     1       4.217  29.863  53.276  1.00  0.00     0.056 A 
HETATM    9  C   UNL     1       4.167  32.269  52.904  1.00  0.00     0.020 A 
HETATM   10  C   UNL     1       4.065  32.070  51.528  1.00  0.00     0.018 A 
HETATM   11  C   UNL     1       4.039  30.772  51.011  1.00  0.00     0.034 A 
HETATM   12  C   UNL     1       4.155  29.680  51.885  1.00  0.00     0.048 A 
ENDROOT
BRANCH   1  13
HETATM   13  C   UNL     1       4.197  27.390  53.702  1.00  0.00     0.237 C 
BRANCH  13  14
HETATM   14  C   UNL     1       5.559  26.715  53.872  1.00  0.00     0.240 C 
HETATM   15  N   UNL     1       5.462  25.346  54.062  1.00  0.00    -0.326 N 
HETATM   16  H   UNL     1       4.524  24.949  54.012  1.00  0.00     0.169 HD
HETATM   17  O   UNL     1       6.591  27.378  53.799  1.00  0.00    -0.271 OA
BRANCH  15  18
HETATM   18  C   UNL     1       6.512  24.441  54.310  1.00  0.00     0.034 A 
HETATM   19  C   UNL     1       7.042  23.754  53.211  1.00  0.00     0.032 A 
HETATM   20  C   UNL     1       8.064  22.808  53.376  1.00  0.00     0.039 A 
HETATM   21  C   UNL     1       8.568  22.537  54.646  1.00  0.00     0.068 A 
HETATM   22  C   UNL     1       8.057  23.236  55.739  1.00  0.00     0.039 A 
HETATM   23  C   UNL     1       7.034  24.178  55.576  1.00  0.00     0.032 A 
BRANCH  21  24
HETATM   24  O   UNL     1       9.549  21.635  54.949  1.00  0.00    -0.356 OA
HETATM   25  C   UNL     1       9.187  20.560  55.806  1.00  0.00     0.210 C 
ENDBRANCH  21  24
ENDBRANCH  15  18
ENDBRANCH  13  14
ENDBRANCH   1  13
BRANCH   4  26
HETATM   26  C   UNL     1       4.444  30.449  57.465  1.00  0.00     0.175 C 
BRANCH  26  27
HETATM   27  C   UNL     1       5.903  30.417  57.882  1.00  0.00    -0.037 A 
HETATM   28  C   UNL     1       6.503  31.555  58.448  1.00  0.00     0.048 A 
HETATM   29  C   UNL     1       7.842  31.491  58.774  1.00  0.00     0.105 A 
HETATM   30  C   UNL     1       8.589  30.359  58.552  1.00  0.00     0.105 A 
HETATM   31  O   UNL     1       8.574  32.494  59.328  1.00  0.00    -0.323 OA
HETATM   32  O   UNL     1       9.885  30.508  58.937  1.00  0.00    -0.323 OA
HETATM   33  C   UNL     1       8.041  29.226  57.994  1.00  0.00     0.040 A 
HETATM   34  C   UNL     1       9.866  31.863  59.432  1.00  0.00     0.352 A 
HETATM   35  C   UNL     1       6.683  29.258  57.657  1.00  0.00     0.012 A 
ENDBRANCH  26  27
ENDBRANCH   4  26
BRANCH  11  36
HETATM   36  C   UNL     1       3.890  30.588  49.539  1.00  0.00     0.252 C 
HETATM   37  N   UNL     1       4.199  29.338  49.039  1.00  0.00    -0.352 N 
HETATM   38  H   UNL     1       4.326  28.565  49.680  1.00  0.00     0.163 HD
HETATM   39  O   UNL     1       3.488  31.518  48.849  1.00  0.00    -0.268 OA
BRANCH  37  40
HETATM   40  C   UNL     1       4.001  28.991  47.634  1.00  0.00     0.084 C 
HETATM   41  C   UNL     1       5.026  27.942  47.189  1.00  0.00     0.025 C 
HETATM   42  C   UNL     1       4.759  26.557  47.779  1.00  0.00     0.002 C 
HETATM   43  C   UNL     1       3.331  26.097  47.510  1.00  0.00     0.000 C 
HETATM   44  C   UNL     1       2.306  27.118  47.994  1.00  0.00     0.002 C 
HETATM   45  C   UNL     1       2.564  28.504  47.400  1.00  0.00     0.025 C 
ENDBRANCH  37  40
ENDBRANCH  11  36
TORSDOF 8
ENDMDL
MODEL 4
REMARK VINA RESULT:     -10.4      4.353      9.485
REMARK  8 active torsions:
REMARK  status: ('A' for Active; 'I' for Inactive)
REMARK    1  A    between atoms: O_2  and  C_3 
REMARK    2  A    between atoms: C_6  and  N_7 
REMARK       I    between atoms: N_7  and  C_8 
REMARK    3  A    between atoms: C_8  and  C_9 
REMARK    4  A    between atoms: C_9  and  N_10 
REMARK    5  A    between atoms: N_13  and  C_14 
REMARK    6  A    between atoms: C_14  and  C_15 
REMARK    7  A    between atoms: C_30  and  C_31 
REMARK       I    between atoms: C_31  and  N_32 
REMARK    8  A    between atoms: N_32  and  C_33 
ROOT
HETATM    1  N   UNL     1       4.286  28.617  54.246  1.00  0.00    -0.290 N 
HETATM    2  C   UNL     1       4.498  28.581  55.618  1.00  0.00     0.332 C 
HETATM    3  O   UNL     1       4.487  27.503  56.222  1.00  0.00    -0.246 OA
HETATM    4  N   UNL     1       4.693  29.793  56.256  1.00  0.00    -0.261 N 
HETATM    5  C   UNL     1       4.474  31.034  55.673  1.00  0.00     0.264 C 
HETATM    6  O   UNL     1       4.575  32.103  56.270  1.00  0.00    -0.267 OA
HETATM    7  C   UNL     1       4.077  31.039  54.255  1.00  0.00     0.059 A 
HETATM    8  C   UNL     1       4.022  29.832  53.559  1.00  0.00     0.056 A 
HETATM    9  C   UNL     1       3.771  32.253  53.623  1.00  0.00     0.020 A 
HETATM   10  C   UNL     1       3.378  32.264  52.286  1.00  0.00     0.018 A 
HETATM   11  C   UNL     1       3.304  31.066  51.571  1.00  0.00     0.034 A 
HETATM   12  C   UNL     1       3.665  29.864  52.201  1.00  0.00     0.048 A 
ENDROOT
BRANCH   1  13
HETATM   13  C   UNL     1       4.222  27.330  53.548  1.00  0.00     0.237 C 
BRANCH  13  14
HETATM   14  C   UNL     1       5.565  26.601  53.604  1.00  0.00     0.240 C 
HETATM   15  N   UNL     1       5.452  25.297  54.058  1.00  0.00    -0.326 N 
HETATM   16  H   UNL     1       4.507  24.965  54.244  1.00  0.00     0.169 HD
HETATM   17  O   UNL     1       6.592  27.167  53.232  1.00  0.00    -0.271 OA
BRANCH  15  18
HETATM   18  C   UNL     1       6.496  24.378  54.285  1.00  0.00     0.034 A 
HETATM   19  C   UNL     1       7.020  23.712  53.170  1.00  0.00     0.032 A 
HETATM   20  C   UNL     1       8.034  22.754  53.313  1.00  0.00     0.039 A 
HETATM   21  C   UNL     1       8.535  22.451  54.577  1.00  0.00     0.068 A 
HETATM   22  C   UNL     1       8.030  23.128  55.686  1.00  0.00     0.039 A 
HETATM   23  C   UNL     1       7.015  24.083  55.544  1.00  0.00     0.032 A 
BRANCH  21  24
HETATM   24  O   UNL     1       9.509  21.534  54.859  1.00  0.00    -0.356 OA
HETATM   25  C   UNL     1       9.215  20.579  55.871  1.00  0.00     0.210 C 
ENDBRANCH  21  24
ENDBRANCH  15  18
ENDBRANCH  13  14
ENDBRANCH   1  13
BRANCH   4  26
HETATM   26  C   UNL     1       5.137  29.771  57.645  1.00  0.00     0.175 C 
BRANCH  26  27
HETATM   27  C   UNL     1       6.616  30.090  57.752  1.00  0.00    -0.037 A 
HETATM   28  C   UNL     1       7.554  29.366  56.995  1.00  0.00     0.048 A 
HETATM   29  C   UNL     1       8.891  29.665  57.156  1.00  0.00     0.105 A 
HETATM   30  C   UNL     1       9.317  30.634  58.033  1.00  0.00     0.105 A 
HETATM   31  O   UNL     1       9.923  29.066  56.504  1.00  0.00    -0.323 OA
HETATM   32  O   UNL     1      10.671  30.765  58.044  1.00  0.00    -0.323 OA
HETATM   33  C   UNL     1       8.432  31.361  58.796  1.00  0.00     0.040 A 
HETATM   34  C   UNL     1      11.048  29.771  57.069  1.00  0.00     0.352 A 
HETATM   35  C   UNL     1       7.068  31.084  58.653  1.00  0.00     0.012 A 
ENDBRANCH  26  27
ENDBRANCH   4  26
BRANCH  11  36
HETATM   36  C   UNL     1       2.844  31.102  50.153  1.00  0.00     0.252 C 
HETATM   37  N   UNL     1       3.078  29.970  49.399  1.00  0.00    -0.352 N 
HETATM   38  H   UNL     1       3.367  29.117  49.861  1.00  0.00     0.163 HD
HETATM   39  O   UNL     1       2.270  32.099  49.728  1.00  0.00    -0.268 OA
BRANCH  37  40
HETATM   40  C   UNL     1       2.590  29.831  48.029  1.00  0.00     0.084 C 
HETATM   41  C   UNL     1       3.624  29.108  47.160  1.00  0.00     0.025 C 
HETATM   42  C   UNL     1       3.740  27.618  47.483  1.00  0.00     0.002 C 
HETATM   43  C   UNL     1       2.384  26.925  47.438  1.00  0.00     0.000 C 
HETATM   44  C   UNL     1       1.364  27.616  48.338  1.00  0.00     0.002 C 
HETATM   45  C   UNL     1       1.238  29.105  48.012  1.00  0.00     0.025 C 
ENDBRANCH  37  40
ENDBRANCH  11  36
TORSDOF 8
ENDMDL
MODEL 5
REMARK VINA RESULT:     -10.4      2.195      8.915
REMARK  8 active torsions:
REMARK  status: ('A' for Active; 'I' for Inactive)
REMARK    1  A    between atoms: O_2  and  C_3 
REMARK    2  A    between atoms: C_6  and  N_7 
REMARK       I    between atoms: N_7  and  C_8 
REMARK    3  A    between atoms: C_8  and  C_9 
REMARK    4  A    between atoms: C_9  and  N_10 
REMARK    5  A    between atoms: N_13  and  C_14 
REMARK    6  A    between atoms: C_14  and  C_15 
REMARK    7  A    between atoms: C_30  and  C_31 
REMARK       I    between atoms: C_31  and  N_32 
REMARK    8  A    between atoms: N_32  and  C_33 
ROOT
HETATM    1  N   UNL     1       7.367  29.473  57.025  1.00  0.00    -0.290 N 
HETATM    2  C   UNL     1       6.482  30.541  57.081  1.00  0.00     0.332 C 
HETATM    3  O   UNL     1       6.867  31.652  57.457  1.00  0.00    -0.246 OA
HETATM    4  N   UNL     1       5.169  30.288  56.721  1.00  0.00    -0.261 N 
HETATM    5  C   UNL     1       4.636  29.020  56.528  1.00  0.00     0.264 C 
HETATM    6  O   UNL     1       3.452  28.801  56.285  1.00  0.00    -0.267 OA
HETATM    7  C   UNL     1       5.567  27.885  56.649  1.00  0.00     0.059 A 
HETATM    8  C   UNL     1       6.921  28.134  56.863  1.00  0.00     0.056 A 
HETATM    9  C   UNL     1       5.081  26.574  56.538  1.00  0.00     0.020 A 
HETATM   10  C   UNL     1       5.953  25.494  56.667  1.00  0.00     0.018 A 
HETATM   11  C   UNL     1       7.313  25.719  56.894  1.00  0.00     0.034 A 
HETATM   12  C   UNL     1       7.793  27.037  56.950  1.00  0.00     0.048 A 
ENDROOT
BRANCH   1  13
HETATM   13  C   UNL     1       8.782  29.770  57.267  1.00  0.00     0.237 C 
BRANCH  13  14
HETATM   14  C   UNL     1       8.961  30.655  58.501  1.00  0.00     0.240 C 
HETATM   15  N   UNL     1       8.121  30.301  59.544  1.00  0.00    -0.326 N 
HETATM   16  H   UNL     1       7.537  29.479  59.394  1.00  0.00     0.169 HD
HETATM   17  O   UNL     1       9.808  31.546  58.506  1.00  0.00    -0.271 OA
BRANCH  15  18
HETATM   18  C   UNL     1       7.988  30.944  60.791  1.00  0.00     0.034 A 
HETATM   19  C   UNL     1       7.001  31.932  60.904  1.00  0.00     0.032 A 
HETATM   20  C   UNL     1       6.829  32.646  62.098  1.00  0.00     0.039 A 
HETATM   21  C   UNL     1       7.644  32.379  63.195  1.00  0.00     0.068 A 
HETATM   22  C   UNL     1       8.612  31.382  63.093  1.00  0.00     0.039 A 
HETATM   23  C   UNL     1       8.788  30.670  61.899  1.00  0.00     0.032 A 
BRANCH  21  24
HETATM   24  O   UNL     1       7.592  33.006  64.409  1.00  0.00    -0.356 OA
HETATM   25  C   UNL     1       6.379  33.674  64.733  1.00  0.00     0.210 C 
ENDBRANCH  21  24
ENDBRANCH  15  18
ENDBRANCH  13  14
ENDBRANCH   1  13
BRANCH   4  26
HETATM   26  C   UNL     1       4.274  31.426  56.554  1.00  0.00     0.175 C 
BRANCH  26  27
HETATM   27  C   UNL     1       3.956  32.072  57.890  1.00  0.00    -0.037 A 
HETATM   28  C   UNL     1       4.130  33.455  58.067  1.00  0.00     0.048 A 
HETATM   29  C   UNL     1       3.866  33.991  59.311  1.00  0.00     0.105 A 
HETATM   30  C   UNL     1       3.452  33.211  60.363  1.00  0.00     0.105 A 
HETATM   31  O   UNL     1       3.980  35.303  59.652  1.00  0.00    -0.323 OA
HETATM   32  O   UNL     1       3.254  33.932  61.499  1.00  0.00    -0.323 OA
HETATM   33  C   UNL     1       3.276  31.852  60.233  1.00  0.00     0.040 A 
HETATM   34  C   UNL     1       3.587  35.259  61.039  1.00  0.00     0.352 A 
HETATM   35  C   UNL     1       3.531  31.279  58.983  1.00  0.00     0.012 A 
ENDBRANCH  26  27
ENDBRANCH   4  26
BRANCH  11  36
HETATM   36  C   UNL     1       8.216  24.545  57.067  1.00  0.00     0.252 C 
HETATM   37  N   UNL     1       8.133  23.555  56.107  1.00  0.00    -0.352 N 
HETATM   38  H   UNL     1       7.625  23.737  55.251  1.00  0.00     0.163 HD
HETATM   39  O   UNL     1       8.994  24.514  58.014  1.00  0.00    -0.268 OA
BRANCH  37  40
HETATM   40  C   UNL     1       9.030  22.403  56.098  1.00  0.00     0.084 C 
HETATM   41  C   UNL     1       8.290  21.142  56.561  1.00  0.00     0.025 C 
HETATM   42  C   UNL     1       7.287  20.625  55.531  1.00  0.00     0.002 C 
HETATM   43  C   UNL     1       7.934  20.428  54.165  1.00  0.00     0.000 C 
HETATM   44  C   UNL     1       8.632  21.695  53.679  1.00  0.00     0.002 C 
HETATM   45  C   UNL     1       9.644  22.211  54.704  1.00  0.00     0.025 C 
ENDBRANCH  37  40
ENDBRANCH  11  36
TORSDOF 8
ENDMDL
MODEL 6
REMARK VINA RESULT:     -10.3      2.089      5.344
REMARK  8 active torsions:
REMARK  status: ('A' for Active; 'I' for Inactive)
REMARK    1  A    between atoms: O_2  and  C_3 
REMARK    2  A    between atoms: C_6  and  N_7 
REMARK       I    between atoms: N_7  and  C_8 
REMARK    3  A    between atoms: C_8  and  C_9 
REMARK    4  A    between atoms: C_9  and  N_10 
REMARK    5  A    between atoms: N_13  and  C_14 
REMARK    6  A    between atoms: C_14  and  C_15 
REMARK    7  A    between atoms: C_30  and  C_31 
REMARK       I    between atoms: C_31  and  N_32 
REMARK    8  A    between atoms: N_32  and  C_33 
ROOT
HETATM    1  N   UNL     1       6.167  31.140  58.455  1.00  0.00    -0.290 N 
HETATM    2  C   UNL     1       6.532  30.313  57.402  1.00  0.00     0.332 C 
HETATM    3  O   UNL     1       5.669  29.817  56.670  1.00  0.00    -0.246 OA
HETATM    4  N   UNL     1       7.884  30.065  57.237  1.00  0.00    -0.261 N 
HETATM    5  C   UNL     1       8.863  30.395  58.164  1.00  0.00     0.264 C 
HETATM    6  O   UNL     1      10.050  30.102  58.044  1.00  0.00    -0.267 OA
HETATM    7  C   UNL     1       8.420  31.122  59.365  1.00  0.00     0.059 A 
HETATM    8  C   UNL     1       7.086  31.510  59.473  1.00  0.00     0.056 A 
HETATM    9  C   UNL     1       9.345  31.423  60.375  1.00  0.00     0.020 A 
HETATM   10  C   UNL     1       8.930  32.097  61.523  1.00  0.00     0.018 A 
HETATM   11  C   UNL     1       7.595  32.486  61.659  1.00  0.00     0.034 A 
HETATM   12  C   UNL     1       6.692  32.225  60.616  1.00  0.00     0.048 A 
ENDROOT
BRANCH   1  13
HETATM   13  C   UNL     1       4.753  31.518  58.546  1.00  0.00     0.237 C 
BRANCH  13  14
HETATM   14  C   UNL     1       4.561  33.011  58.277  1.00  0.00     0.240 C 
HETATM   15  N   UNL     1       3.682  33.609  59.165  1.00  0.00    -0.326 N 
HETATM   16  H   UNL     1       3.319  33.015  59.910  1.00  0.00     0.169 HD
HETATM   17  O   UNL     1       5.184  33.562  57.372  1.00  0.00    -0.271 OA
BRANCH  15  18
HETATM   18  C   UNL     1       3.240  34.947  59.160  1.00  0.00     0.034 A 
HETATM   19  C   UNL     1       4.185  35.938  59.449  1.00  0.00     0.032 A 
HETATM   20  C   UNL     1       3.820  37.291  59.502  1.00  0.00     0.039 A 
HETATM   21  C   UNL     1       2.499  37.667  59.266  1.00  0.00     0.068 A 
HETATM   22  C   UNL     1       1.561  36.684  58.956  1.00  0.00     0.039 A 
HETATM   23  C   UNL     1       1.924  35.333  58.907  1.00  0.00     0.032 A 
BRANCH  21  24
HETATM   24  O   UNL     1       2.007  38.942  59.297  1.00  0.00    -0.356 OA
HETATM   25  C   UNL     1       2.287  39.708  60.462  1.00  0.00     0.210 C 
ENDBRANCH  21  24
ENDBRANCH  15  18
ENDBRANCH  13  14
ENDBRANCH   1  13
BRANCH   4  26
HETATM   26  C   UNL     1       8.311  29.390  56.018  1.00  0.00     0.175 C 
BRANCH  26  27
HETATM   27  C   UNL     1       8.051  27.897  56.098  1.00  0.00    -0.037 A 
HETATM   28  C   UNL     1       7.574  27.199  54.975  1.00  0.00     0.048 A 
HETATM   29  C   UNL     1       7.315  25.851  55.108  1.00  0.00     0.105 A 
HETATM   30  C   UNL     1       7.502  25.190  56.299  1.00  0.00     0.105 A 
HETATM   31  O   UNL     1       6.853  25.030  54.128  1.00  0.00    -0.323 OA
HETATM   32  O   UNL     1       7.180  23.871  56.218  1.00  0.00    -0.323 OA
HETATM   33  C   UNL     1       7.961  25.838  57.423  1.00  0.00     0.040 A 
HETATM   34  C   UNL     1       6.775  23.776  54.836  1.00  0.00     0.352 A 
HETATM   35  C   UNL     1       8.238  27.206  57.319  1.00  0.00     0.012 A 
ENDBRANCH  26  27
ENDBRANCH   4  26
BRANCH  11  36
HETATM   36  C   UNL     1       7.171  33.171  62.914  1.00  0.00     0.252 C 
HETATM   37  N   UNL     1       5.993  33.890  62.856  1.00  0.00    -0.352 N 
HETATM   38  H   UNL     1       5.382  33.777  62.057  1.00  0.00     0.163 HD
HETATM   39  O   UNL     1       7.850  33.055  63.927  1.00  0.00    -0.268 OA
BRANCH  37  40
HETATM   40  C   UNL     1       5.409  34.524  64.035  1.00  0.00     0.084 C 
HETATM   41  C   UNL     1       5.739  36.020  64.061  1.00  0.00     0.025 C 
HETATM   42  C   UNL     1       4.975  36.818  63.004  1.00  0.00     0.002 C 
HETATM   43  C   UNL     1       3.473  36.572  63.089  1.00  0.00     0.000 C 
HETATM   44  C   UNL     1       3.138  35.085  63.017  1.00  0.00     0.002 C 
HETATM   45  C   UNL     1       3.894  34.283  64.079  1.00  0.00     0.025 C 
ENDBRANCH  37  40
ENDBRANCH  11  36
TORSDOF 8
ENDMDL
MODEL 7
REMARK VINA RESULT:     -10.1      1.574      2.259
REMARK  8 active torsions:
REMARK  status: ('A' for Active; 'I' for Inactive)
REMARK    1  A    between atoms: O_2  and  C_3 
REMARK    2  A    between atoms: C_6  and  N_7 
REMARK       I    between atoms: N_7  and  C_8 
REMARK    3  A    between atoms: C_8  and  C_9 
REMARK    4  A    between atoms: C_9  and  N_10 
REMARK    5  A    between atoms: N_13  and  C_14 
REMARK    6  A    between atoms: C_14  and  C_15 
REMARK    7  A    between atoms: C_30  and  C_31 
REMARK       I    between atoms: C_31  and  N_32 
REMARK    8  A    between atoms: N_32  and  C_33 
ROOT
HETATM    1  N   UNL     1       7.123  29.675  57.799  1.00  0.00    -0.290 N 
HETATM    2  C   UNL     1       7.609  28.380  57.686  1.00  0.00     0.332 C 
HETATM    3  O   UNL     1       8.816  28.153  57.822  1.00  0.00    -0.246 OA
HETATM    4  N   UNL     1       6.690  27.386  57.398  1.00  0.00    -0.261 N 
HETATM    5  C   UNL     1       5.380  27.617  57.000  1.00  0.00     0.264 C 
HETATM    6  O   UNL     1       4.594  26.731  56.672  1.00  0.00    -0.267 OA
HETATM    7  C   UNL     1       4.938  29.021  56.958  1.00  0.00     0.059 A 
HETATM    8  C   UNL     1       5.807  30.022  57.390  1.00  0.00     0.056 A 
HETATM    9  C   UNL     1       3.650  29.330  56.497  1.00  0.00     0.020 A 
HETATM   10  C   UNL     1       3.230  30.659  56.439  1.00  0.00     0.018 A 
HETATM   11  C   UNL     1       4.088  31.680  56.855  1.00  0.00     0.034 A 
HETATM   12  C   UNL     1       5.355  31.351  57.364  1.00  0.00     0.048 A 
ENDROOT
BRANCH   1  13
HETATM   13  C   UNL     1       8.067  30.704  58.243  1.00  0.00     0.237 C 
BRANCH  13  14
HETATM   14  C   UNL     1       8.075  30.829  59.767  1.00  0.00     0.240 C 
HETATM   15  N   UNL     1       7.166  31.763  60.237  1.00  0.00    -0.326 N 
HETATM   16  H   UNL     1       6.572  32.206  59.536  1.00  0.00     0.169 HD
HETATM   17  O   UNL     1       8.813  30.113  60.442  1.00  0.00    -0.271 OA
BRANCH  15  18
HETATM   18  C   UNL     1       6.964  32.163  61.572  1.00  0.00     0.034 A 
HETATM   19  C   UNL     1       5.642  32.242  62.027  1.00  0.00     0.032 A 
HETATM   20  C   UNL     1       5.352  32.669  63.331  1.00  0.00     0.039 A 
HETATM   21  C   UNL     1       6.385  33.021  64.197  1.00  0.00     0.068 A 
HETATM   22  C   UNL     1       7.702  32.921  63.753  1.00  0.00     0.039 A 
HETATM   23  C   UNL     1       7.993  32.499  62.450  1.00  0.00     0.032 A 
BRANCH  21  24
HETATM   24  O   UNL     1       6.243  33.462  65.482  1.00  0.00    -0.356 OA
HETATM   25  C   UNL     1       4.935  33.842  65.889  1.00  0.00     0.210 C 
ENDBRANCH  21  24
ENDBRANCH  15  18
ENDBRANCH  13  14
ENDBRANCH   1  13
BRANCH   4  26
HETATM   26  C   UNL     1       7.129  25.999  57.495  1.00  0.00     0.175 C 
BRANCH  26  27
HETATM   27  C   UNL     1       7.310  25.385  56.119  1.00  0.00    -0.037 A 
HETATM   28  C   UNL     1       7.323  23.989  55.962  1.00  0.00     0.048 A 
HETATM   29  C   UNL     1       7.530  23.477  54.698  1.00  0.00     0.105 A 
HETATM   30  C   UNL     1       7.731  24.292  53.610  1.00  0.00     0.105 A 
HETATM   31  O   UNL     1       7.570  22.157  54.372  1.00  0.00    -0.323 OA
HETATM   32  O   UNL     1       7.924  23.588  52.462  1.00  0.00    -0.323 OA
HETATM   33  C   UNL     1       7.733  25.664  53.722  1.00  0.00     0.040 A 
HETATM   34  C   UNL     1       7.815  22.235  52.952  1.00  0.00     0.352 A 
HETATM   35  C   UNL     1       7.520  26.214  54.990  1.00  0.00     0.012 A 
ENDBRANCH  26  27
ENDBRANCH   4  26
BRANCH  11  36
HETATM   36  C   UNL     1       3.628  33.094  56.746  1.00  0.00     0.252 C 
HETATM   37  N   UNL     1       4.079  33.808  55.653  1.00  0.00    -0.352 N 
HETATM   38  H   UNL     1       4.531  33.316  54.892  1.00  0.00     0.163 HD
HETATM   39  O   UNL     1       2.868  33.551  57.593  1.00  0.00    -0.268 OA
BRANCH  37  40
HETATM   40  C   UNL     1       3.625  35.166  55.369  1.00  0.00     0.084 C 
HETATM   41  C   UNL     1       4.656  36.191  55.857  1.00  0.00     0.025 C 
HETATM   42  C   UNL     1       5.922  36.219  55.002  1.00  0.00     0.002 C 
HETATM   43  C   UNL     1       5.600  36.406  53.524  1.00  0.00     0.000 C 
HETATM   44  C   UNL     1       4.609  35.359  53.023  1.00  0.00     0.002 C 
HETATM   45  C   UNL     1       3.336  35.333  53.871  1.00  0.00     0.025 C 
ENDBRANCH  37  40
ENDBRANCH  11  36
TORSDOF 8
ENDMDL
MODEL 8
REMARK VINA RESULT:     -10.0      3.059     10.643
REMARK  8 active torsions:
REMARK  status: ('A' for Active; 'I' for Inactive)
REMARK    1  A    between atoms: O_2  and  C_3 
REMARK    2  A    between atoms: C_6  and  N_7 
REMARK       I    between atoms: N_7  and  C_8 
REMARK    3  A    between atoms: C_8  and  C_9 
REMARK    4  A    between atoms: C_9  and  N_10 
REMARK    5  A    between atoms: N_13  and  C_14 
REMARK    6  A    between atoms: C_14  and  C_15 
REMARK    7  A    between atoms: C_30  and  C_31 
REMARK       I    between atoms: C_31  and  N_32 
REMARK    8  A    between atoms: N_32  and  C_33 
ROOT
HETATM    1  N   UNL     1       4.619  30.452  57.313  1.00  0.00    -0.290 N 
HETATM    2  C   UNL     1       4.485  31.759  57.763  1.00  0.00     0.332 C 
HETATM    3  O   UNL     1       3.479  32.416  57.476  1.00  0.00    -0.246 OA
HETATM    4  N   UNL     1       5.527  32.276  58.513  1.00  0.00    -0.261 N 
HETATM    5  C   UNL     1       6.769  31.673  58.655  1.00  0.00     0.264 C 
HETATM    6  O   UNL     1       7.713  32.176  59.259  1.00  0.00    -0.267 OA
HETATM    7  C   UNL     1       6.944  30.357  58.016  1.00  0.00     0.059 A 
HETATM    8  C   UNL     1       5.856  29.756  57.385  1.00  0.00     0.056 A 
HETATM    9  C   UNL     1       8.195  29.725  58.061  1.00  0.00     0.020 A 
HETATM   10  C   UNL     1       8.372  28.487  57.444  1.00  0.00     0.018 A 
HETATM   11  C   UNL     1       7.300  27.871  56.795  1.00  0.00     0.034 A 
HETATM   12  C   UNL     1       6.040  28.491  56.805  1.00  0.00     0.048 A 
ENDROOT
BRANCH   1  13
HETATM   13  C   UNL     1       3.460  29.856  56.643  1.00  0.00     0.237 C 
BRANCH  13  14
HETATM   14  C   UNL     1       3.456  30.181  55.149  1.00  0.00     0.240 C 
HETATM   15  N   UNL     1       3.843  29.108  54.363  1.00  0.00    -0.326 N 
HETATM   16  H   UNL     1       4.027  28.233  54.853  1.00  0.00     0.169 HD
HETATM   17  O   UNL     1       3.098  31.290  54.758  1.00  0.00    -0.271 OA
BRANCH  15  18
HETATM   18  C   UNL     1       4.005  29.087  52.964  1.00  0.00     0.034 A 
HETATM   19  C   UNL     1       5.243  29.494  52.453  1.00  0.00     0.032 A 
HETATM   20  C   UNL     1       5.474  29.540  51.071  1.00  0.00     0.039 A 
HETATM   21  C   UNL     1       4.465  29.176  50.181  1.00  0.00     0.068 A 
HETATM   22  C   UNL     1       3.239  28.749  50.688  1.00  0.00     0.039 A 
HETATM   23  C   UNL     1       3.006  28.708  52.068  1.00  0.00     0.032 A 
BRANCH  21  24
HETATM   24  O   UNL     1       4.551  29.186  48.818  1.00  0.00    -0.356 OA
HETATM   25  C   UNL     1       3.475  28.590  48.104  1.00  0.00     0.210 C 
ENDBRANCH  21  24
ENDBRANCH  15  18
ENDBRANCH  13  14
ENDBRANCH   1  13
BRANCH   4  26
HETATM   26  C   UNL     1       5.319  33.554  59.182  1.00  0.00     0.175 C 
BRANCH  26  27
HETATM   27  C   UNL     1       5.109  33.364  60.672  1.00  0.00    -0.037 A 
HETATM   28  C   UNL     1       5.945  34.017  61.594  1.00  0.00     0.048 A 
HETATM   29  C   UNL     1       5.741  33.782  62.938  1.00  0.00     0.105 A 
HETATM   30  C   UNL     1       4.759  32.930  63.385  1.00  0.00     0.105 A 
HETATM   31  O   UNL     1       6.455  34.329  63.958  1.00  0.00    -0.323 OA
HETATM   32  O   UNL     1       4.732  32.834  64.741  1.00  0.00    -0.323 OA
HETATM   33  C   UNL     1       3.924  32.267  62.514  1.00  0.00     0.040 A 
HETATM   34  C   UNL     1       5.806  33.728  65.098  1.00  0.00     0.352 A 
HETATM   35  C   UNL     1       4.102  32.489  61.145  1.00  0.00     0.012 A 
ENDBRANCH  26  27
ENDBRANCH   4  26
BRANCH  11  36
HETATM   36  C   UNL     1       7.528  26.565  56.111  1.00  0.00     0.252 C 
HETATM   37  N   UNL     1       7.056  26.456  54.817  1.00  0.00    -0.352 N 
HETATM   38  H   UNL     1       6.756  27.289  54.327  1.00  0.00     0.163 HD
HETATM   39  O   UNL     1       8.129  25.672  56.696  1.00  0.00    -0.268 OA
BRANCH  37  40
HETATM   40  C   UNL     1       7.301  25.273  53.997  1.00  0.00     0.084 C 
HETATM   41  C   UNL     1       6.093  24.330  54.039  1.00  0.00     0.025 C 
HETATM   42  C   UNL     1       4.890  24.866  53.264  1.00  0.00     0.002 C 
HETATM   43  C   UNL     1       5.261  25.241  51.834  1.00  0.00     0.000 C 
HETATM   44  C   UNL     1       6.434  26.216  51.791  1.00  0.00     0.002 C 
HETATM   45  C   UNL     1       7.645  25.680  52.558  1.00  0.00     0.025 C 
ENDBRANCH  37  40
ENDBRANCH  11  36
TORSDOF 8
ENDMDL
MODEL 9
REMARK VINA RESULT:      -9.7      1.769      2.714
REMARK  8 active torsions:
REMARK  status: ('A' for Active; 'I' for Inactive)
REMARK    1  A    between atoms: O_2  and  C_3 
REMARK    2  A    between atoms: C_6  and  N_7 
REMARK       I    between atoms: N_7  and  C_8 
REMARK    3  A    between atoms: C_8  and  C_9 
REMARK    4  A    between atoms: C_9  and  N_10 
REMARK    5  A    between atoms: N_13  and  C_14 
REMARK    6  A    between atoms: C_14  and  C_15 
REMARK    7  A    between atoms: C_30  and  C_31 
REMARK       I    between atoms: C_31  and  N_32 
REMARK    8  A    between atoms: N_32  and  C_33 
ROOT
HETATM    1  N   UNL     1       7.292  29.088  55.564  1.00  0.00    -0.290 N 
HETATM    2  C   UNL     1       7.616  28.211  54.539  1.00  0.00     0.332 C 
HETATM    3  O   UNL     1       8.786  28.101  54.158  1.00  0.00    -0.246 OA
HETATM    4  N   UNL     1       6.575  27.501  53.966  1.00  0.00    -0.261 N 
HETATM    5  C   UNL     1       5.229  27.763  54.186  1.00  0.00     0.264 C 
HETATM    6  O   UNL     1       4.312  27.179  53.614  1.00  0.00    -0.267 OA
HETATM    7  C   UNL     1       4.911  28.826  55.154  1.00  0.00     0.059 A 
HETATM    8  C   UNL     1       5.947  29.446  55.850  1.00  0.00     0.056 A 
HETATM    9  C   UNL     1       3.574  29.191  55.371  1.00  0.00     0.020 A 
HETATM   10  C   UNL     1       3.266  30.207  56.274  1.00  0.00     0.018 A 
HETATM   11  C   UNL     1       4.289  30.851  56.974  1.00  0.00     0.034 A 
HETATM   12  C   UNL     1       5.617  30.440  56.786  1.00  0.00     0.048 A 
ENDROOT
BRANCH   1  13
HETATM   13  C   UNL     1       8.406  29.732  56.266  1.00  0.00     0.237 C 
BRANCH  13  14
HETATM   14  C   UNL     1       8.217  29.669  57.782  1.00  0.00     0.240 C 
HETATM   15  N   UNL     1       8.299  30.912  58.388  1.00  0.00    -0.326 N 
HETATM   16  H   UNL     1       8.417  31.711  57.764  1.00  0.00     0.169 HD
HETATM   17  O   UNL     1       7.981  28.595  58.332  1.00  0.00    -0.271 OA
BRANCH  15  18
HETATM   18  C   UNL     1       8.232  31.198  59.766  1.00  0.00     0.034 A 
HETATM   19  C   UNL     1       7.132  31.938  60.216  1.00  0.00     0.032 A 
HETATM   20  C   UNL     1       7.008  32.298  61.566  1.00  0.00     0.039 A 
HETATM   21  C   UNL     1       7.987  31.920  62.482  1.00  0.00     0.068 A 
HETATM   22  C   UNL     1       9.072  31.165  62.040  1.00  0.00     0.039 A 
HETATM   23  C   UNL     1       9.199  30.808  60.692  1.00  0.00     0.032 A 
BRANCH  21  24
HETATM   24  O   UNL     1       7.997  32.212  63.817  1.00  0.00    -0.356 OA
HETATM   25  C   UNL     1       7.225  33.331  64.233  1.00  0.00     0.210 C 
ENDBRANCH  21  24
ENDBRANCH  15  18
ENDBRANCH  13  14
ENDBRANCH   1  13
BRANCH   4  26
HETATM   26  C   UNL     1       6.908  26.418  53.049  1.00  0.00     0.175 C 
BRANCH  26  27
HETATM   27  C   UNL     1       7.132  25.117  53.798  1.00  0.00    -0.037 A 
HETATM   28  C   UNL     1       7.437  23.938  53.095  1.00  0.00     0.048 A 
HETATM   29  C   UNL     1       7.593  22.772  53.815  1.00  0.00     0.105 A 
HETATM   30  C   UNL     1       7.449  22.739  55.182  1.00  0.00     0.105 A 
HETATM   31  O   UNL     1       7.890  21.551  53.296  1.00  0.00    -0.323 OA
HETATM   32  O   UNL     1       7.636  21.493  55.694  1.00  0.00    -0.323 OA
HETATM   33  C   UNL     1       7.144  23.869  55.906  1.00  0.00     0.040 A 
HETATM   34  C   UNL     1       7.920  20.746  54.493  1.00  0.00     0.352 A 
HETATM   35  C   UNL     1       6.985  25.069  55.205  1.00  0.00     0.012 A 
ENDBRANCH  26  27
ENDBRANCH   4  26
BRANCH  11  36
HETATM   36  C   UNL     1       3.933  31.961  57.905  1.00  0.00     0.252 C 
HETATM   37  N   UNL     1       3.793  33.216  57.344  1.00  0.00    -0.352 N 
HETATM   38  H   UNL     1       3.747  33.306  56.337  1.00  0.00     0.163 HD
HETATM   39  O   UNL     1       3.760  31.722  59.094  1.00  0.00    -0.268 OA
BRANCH  37  40
HETATM   40  C   UNL     1       3.348  34.370  58.121  1.00  0.00     0.084 C 
HETATM   41  C   UNL     1       4.462  35.419  58.210  1.00  0.00     0.025 C 
HETATM   42  C   UNL     1       4.704  36.147  56.888  1.00  0.00     0.002 C 
HETATM   43  C   UNL     1       3.417  36.740  56.327  1.00  0.00     0.000 C 
HETATM   44  C   UNL     1       2.320  35.688  56.194  1.00  0.00     0.002 C 
HETATM   45  C   UNL     1       2.068  34.962  57.517  1.00  0.00     0.025 C 
ENDBRANCH  37  40
ENDBRANCH  11  36
TORSDOF 8
ENDMDL
MODEL 10
REMARK VINA RESULT:      -9.6      3.374      8.037
REMARK  8 active torsions:
REMARK  status: ('A' for Active; 'I' for Inactive)
REMARK    1  A    between atoms: O_2  and  C_3 
REMARK    2  A    between atoms: C_6  and  N_7 
REMARK       I    between atoms: N_7  and  C_8 
REMARK    3  A    between atoms: C_8  and  C_9 
REMARK    4  A    between atoms: C_9  and  N_10 
REMARK    5  A    between atoms: N_13  and  C_14 
REMARK    6  A    between atoms: C_14  and  C_15 
REMARK    7  A    between atoms: C_30  and  C_31 
REMARK       I    between atoms: C_31  and  N_32 
REMARK    8  A    between atoms: N_32  and  C_33 
ROOT
HETATM    1  N   UNL     1       4.283  29.012  55.575  1.00  0.00    -0.290 N 
HETATM    2  C   UNL     1       3.786  28.956  54.280  1.00  0.00     0.332 C 
HETATM    3  O   UNL     1       3.699  27.874  53.691  1.00  0.00    -0.246 OA
HETATM    4  N   UNL     1       3.423  30.157  53.693  1.00  0.00    -0.261 N 
HETATM    5  C   UNL     1       3.725  31.409  54.212  1.00  0.00     0.264 C 
HETATM    6  O   UNL     1       3.467  32.468  53.646  1.00  0.00    -0.267 OA
HETATM    7  C   UNL     1       4.414  31.439  55.513  1.00  0.00     0.059 A 
HETATM    8  C   UNL     1       4.651  30.241  56.186  1.00  0.00     0.056 A 
HETATM    9  C   UNL     1       4.811  32.667  56.061  1.00  0.00     0.020 A 
HETATM   10  C   UNL     1       5.479  32.702  57.285  1.00  0.00     0.018 A 
HETATM   11  C   UNL     1       5.737  31.513  57.971  1.00  0.00     0.034 A 
HETATM   12  C   UNL     1       5.287  30.296  57.437  1.00  0.00     0.048 A 
ENDROOT
BRANCH   1  13
HETATM   13  C   UNL     1       4.532  27.735  56.248  1.00  0.00     0.237 C 
BRANCH  13  14
HETATM   14  C   UNL     1       5.689  26.979  55.593  1.00  0.00     0.240 C 
HETATM   15  N   UNL     1       5.380  25.659  55.311  1.00  0.00    -0.326 N 
HETATM   16  H   UNL     1       4.424  25.366  55.515  1.00  0.00     0.169 HD
HETATM   17  O   UNL     1       6.742  27.560  55.339  1.00  0.00    -0.271 OA
BRANCH  15  18
HETATM   18  C   UNL     1       6.233  24.678  54.768  1.00  0.00     0.034 A 
HETATM   19  C   UNL     1       6.921  23.855  55.668  1.00  0.00     0.032 A 
HETATM   20  C   UNL     1       7.819  22.879  55.211  1.00  0.00     0.039 A 
HETATM   21  C   UNL     1       8.038  22.716  53.845  1.00  0.00     0.068 A 
HETATM   22  C   UNL     1       7.337  23.519  52.947  1.00  0.00     0.039 A 
HETATM   23  C   UNL     1       6.444  24.496  53.402  1.00  0.00     0.032 A 
BRANCH  21  24
HETATM   24  O   UNL     1       8.890  21.816  53.267  1.00  0.00    -0.356 OA
HETATM   25  C   UNL     1       8.351  20.542  52.942  1.00  0.00     0.210 C 
ENDBRANCH  21  24
ENDBRANCH  15  18
ENDBRANCH  13  14
ENDBRANCH   1  13
BRANCH   4  26
HETATM   26  C   UNL     1       2.696  30.109  52.431  1.00  0.00     0.175 C 
BRANCH  26  27
HETATM   27  C   UNL     1       3.610  29.709  51.287  1.00  0.00    -0.037 A 
HETATM   28  C   UNL     1       3.212  28.715  50.377  1.00  0.00     0.048 A 
HETATM   29  C   UNL     1       4.093  28.357  49.378  1.00  0.00     0.105 A 
HETATM   30  C   UNL     1       5.333  28.937  49.262  1.00  0.00     0.105 A 
HETATM   31  O   UNL     1       3.868  27.420  48.418  1.00  0.00    -0.323 OA
HETATM   32  O   UNL     1       6.045  28.438  48.217  1.00  0.00    -0.323 OA
HETATM   33  C   UNL     1       5.763  29.910  50.137  1.00  0.00     0.040 A 
HETATM   34  C   UNL     1       5.108  27.480  47.683  1.00  0.00     0.352 A 
HETATM   35  C   UNL     1       4.890  30.298  51.159  1.00  0.00     0.012 A 
ENDBRANCH  26  27
ENDBRANCH   4  26
BRANCH  11  36
HETATM   36  C   UNL     1       6.487  31.577  59.259  1.00  0.00     0.252 C 
HETATM   37  N   UNL     1       5.789  32.039  60.358  1.00  0.00    -0.352 N 
HETATM   38  H   UNL     1       4.783  32.133  60.302  1.00  0.00     0.163 HD
HETATM   39  O   UNL     1       7.654  31.204  59.300  1.00  0.00    -0.268 OA
BRANCH  37  40
HETATM   40  C   UNL     1       6.368  32.056  61.698  1.00  0.00     0.084 C 
HETATM   41  C   UNL     1       7.097  33.380  61.953  1.00  0.00     0.025 C 
HETATM   42  C   UNL     1       6.143  34.561  62.131  1.00  0.00     0.002 C 
HETATM   43  C   UNL     1       5.094  34.282  63.201  1.00  0.00     0.000 C 
HETATM   44  C   UNL     1       4.335  32.987  62.925  1.00  0.00     0.002 C 
HETATM   45  C   UNL     1       5.285  31.800  62.754  1.00  0.00     0.025 C 
ENDBRANCH  37  40
ENDBRANCH  11  36
TORSDOF 8
ENDMDL
