MODEL 1
REMARK VINA RESULT:      -9.6      0.000      0.000
REMARK  8 active torsions:
REMARK  status: ('A' for Active; 'I' for Inactive)
REMARK    1  A    between atoms: C_6  and  O_7 
REMARK    2  A    between atoms: O_7  and  C_8 
REMARK    3  A    between atoms: C_8  and  C_9 
REMARK    4  A    between atoms: C_9  and  C_10 
REMARK    5  A    between atoms: C_10  and  C_11 
REMARK    6  A    between atoms: C_11  and  N_12 
REMARK       I    between atoms: N_12  and  C_13 
REMARK    7  A    between atoms: C_13  and  C_14 
REMARK    8  A    between atoms: C_18  and  C_19 
ROOT
HETATM    1  N   UNL     1       9.352  30.099  58.416  1.00  0.00    -0.345 N 
HETATM    2  C   UNL     1       9.487  31.313  59.043  1.00  0.00     0.270 C 
HETATM    3  O   UNL     1      10.081  32.260  58.541  1.00  0.00    -0.266 OA
HETATM    4  H   UNL     1       8.892  29.334  58.885  1.00  0.00     0.163 HD
ENDROOT
BRANCH   2   5
HETATM    5  C   UNL     1       8.862  31.413  60.335  1.00  0.00     0.120 A 
HETATM    6  N   UNL     1       9.039  30.447  61.285  1.00  0.00    -0.272 N 
HETATM    7  H   UNL     1       9.582  29.594  61.191  1.00  0.00     0.189 HD
HETATM    8  N   UNL     1       8.420  30.699  62.448  1.00  0.00    -0.174 NA
HETATM    9  C   UNL     1       7.832  31.892  62.268  1.00  0.00     0.089 A 
HETATM   10  C   UNL     1       8.064  32.361  60.943  1.00  0.00     0.071 A 
BRANCH   9  11
HETATM   11  C   UNL     1       7.090  32.549  63.350  1.00  0.00    -0.005 A 
HETATM   12  C   UNL     1       5.685  32.557  63.365  1.00  0.00     0.017 A 
HETATM   13  C   UNL     1       4.989  33.202  64.392  1.00  0.00     0.043 A 
HETATM   14  C   UNL     1       5.693  33.838  65.407  1.00  0.00     0.116 A 
HETATM   15  F   UNL     1       5.023  34.457  66.386  1.00  0.00    -0.206 F 
HETATM   16  C   UNL     1       7.082  33.845  65.414  1.00  0.00     0.043 A 
HETATM   17  C   UNL     1       7.778  33.203  64.387  1.00  0.00     0.017 A 
ENDBRANCH   9  11
ENDBRANCH   2   5
BRANCH   1  18
HETATM   18  C   UNL     1       9.798  29.892  57.065  1.00  0.00     0.217 C 
BRANCH  18  19
HETATM   19  C   UNL     1       8.869  28.930  56.343  1.00  0.00    -0.085 C 
BRANCH  19  20
HETATM   20  C   UNL     1       8.071  28.107  55.723  1.00  0.00    -0.078 C 
BRANCH  20  21
HETATM   21  C   UNL     1       7.182  27.177  55.014  1.00  0.00     0.269 C 
BRANCH  21  22
HETATM   22  O   UNL     1       7.290  25.885  55.609  1.00  0.00    -0.340 OA
BRANCH  22  23
HETATM   23  C   UNL     1       7.530  24.830  54.772  1.00  0.00     0.071 A 
HETATM   24  C   UNL     1       7.561  23.584  55.404  1.00  0.00     0.055 A 
HETATM   25  C   UNL     1       7.796  22.427  54.662  1.00  0.00     0.013 A 
HETATM   26  C   UNL     1       7.999  22.500  53.286  1.00  0.00     0.019 A 
HETATM   27 BR   UNL     1       7.838  20.747  55.528  1.00  0.00    -0.051 Br
HETATM   28  C   UNL     1       7.967  23.741  52.652  1.00  0.00     0.004 A 
HETATM   29  C   UNL     1       7.733  24.905  53.392  1.00  0.00     0.037 A 
ENDBRANCH  22  23
ENDBRANCH  21  22
ENDBRANCH  20  21
ENDBRANCH  19  20
ENDBRANCH  18  19
ENDBRANCH   1  18
TORSDOF 8
ENDMDL
MODEL 2
REMARK VINA RESULT:      -9.2      1.731      2.010
REMARK  8 active torsions:
REMARK  status: ('A' for Active; 'I' for Inactive)
REMARK    1  A    between atoms: C_6  and  O_7 
REMARK    2  A    between atoms: O_7  and  C_8 
REMARK    3  A    between atoms: C_8  and  C_9 
REMARK    4  A    between atoms: C_9  and  C_10 
REMARK    5  A    between atoms: C_10  and  C_11 
REMARK    6  A    between atoms: C_11  and  N_12 
REMARK       I    between atoms: N_12  and  C_13 
REMARK    7  A    between atoms: C_13  and  C_14 
REMARK    8  A    between atoms: C_18  and  C_19 
ROOT
HETATM    1  N   UNL     1       7.618  29.275  58.652  1.00  0.00    -0.345 N 
HETATM    2  C   UNL     1       8.462  30.259  59.104  1.00  0.00     0.270 C 
HETATM    3  O   UNL     1       9.408  30.679  58.446  1.00  0.00    -0.266 OA
HETATM    4  H   UNL     1       6.878  28.930  59.243  1.00  0.00     0.163 HD
ENDROOT
BRANCH   2   5
HETATM    5  C   UNL     1       8.153  30.787  60.405  1.00  0.00     0.120 A 
HETATM    6  N   UNL     1       8.747  30.292  61.531  1.00  0.00    -0.272 N 
HETATM    7  H   UNL     1       9.419  29.532  61.580  1.00  0.00     0.189 HD
HETATM    8  N   UNL     1       8.381  30.909  62.664  1.00  0.00    -0.174 NA
HETATM    9  C   UNL     1       7.531  31.870  62.268  1.00  0.00     0.089 A 
HETATM   10  C   UNL     1       7.341  31.808  60.857  1.00  0.00     0.071 A 
BRANCH   9  11
HETATM   11  C   UNL     1       6.944  32.814  63.225  1.00  0.00    -0.005 A 
HETATM   12  C   UNL     1       5.804  33.566  62.897  1.00  0.00     0.017 A 
HETATM   13  C   UNL     1       5.264  34.476  63.812  1.00  0.00     0.043 A 
HETATM   14  C   UNL     1       5.861  34.635  65.056  1.00  0.00     0.116 A 
HETATM   15  F   UNL     1       5.344  35.509  65.928  1.00  0.00    -0.206 F 
HETATM   16  C   UNL     1       6.990  33.905  65.405  1.00  0.00     0.043 A 
HETATM   17  C   UNL     1       7.531  32.998  64.490  1.00  0.00     0.017 A 
ENDBRANCH   9  11
ENDBRANCH   2   5
BRANCH   1  18
HETATM   18  C   UNL     1       7.714  28.751  57.316  1.00  0.00     0.217 C 
BRANCH  18  19
HETATM   19  C   UNL     1       8.068  27.274  57.352  1.00  0.00    -0.085 C 
BRANCH  19  20
HETATM   20  C   UNL     1       8.372  26.007  57.383  1.00  0.00    -0.078 C 
BRANCH  20  21
HETATM   21  C   UNL     1       8.702  24.575  57.414  1.00  0.00     0.269 C 
BRANCH  21  22
HETATM   22  O   UNL     1       7.616  23.837  56.857  1.00  0.00    -0.340 OA
BRANCH  22  23
HETATM   23  C   UNL     1       7.642  23.611  55.508  1.00  0.00     0.071 A 
HETATM   24  C   UNL     1       6.621  24.243  54.794  1.00  0.00     0.055 A 
HETATM   25  C   UNL     1       6.536  24.094  53.410  1.00  0.00     0.013 A 
HETATM   26  C   UNL     1       7.467  23.317  52.725  1.00  0.00     0.019 A 
HETATM   27 BR   UNL     1       5.147  24.951  52.455  1.00  0.00    -0.051 Br
HETATM   28  C   UNL     1       8.489  22.686  53.434  1.00  0.00     0.004 A 
HETATM   29  C   UNL     1       8.578  22.832  54.822  1.00  0.00     0.037 A 
ENDBRANCH  22  23
ENDBRANCH  21  22
ENDBRANCH  20  21
ENDBRANCH  19  20
ENDBRANCH  18  19
ENDBRANCH   1  18
TORSDOF 8
ENDMDL
MODEL 3
REMARK VINA RESULT:      -9.2      1.454      1.915
REMARK  8 active torsions:
REMARK  status: ('A' for Active; 'I' for Inactive)
REMARK    1  A    between atoms: C_6  and  O_7 
REMARK    2  A    between atoms: O_7  and  C_8 
REMARK    3  A    between atoms: C_8  and  C_9 
REMARK    4  A    between atoms: C_9  and  C_10 
REMARK    5  A    between atoms: C_10  and  C_11 
REMARK    6  A    between atoms: C_11  and  N_12 
REMARK       I    between atoms: N_12  and  C_13 
REMARK    7  A    between atoms: C_13  and  C_14 
REMARK    8  A    between atoms: C_18  and  C_19 
ROOT
HETATM    1  N   UNL     1       8.583  29.605  56.667  1.00  0.00    -0.345 N 
HETATM    2  C   UNL     1       9.641  29.934  57.478  1.00  0.00     0.270 C 
HETATM    3  O   UNL     1      10.798  29.613  57.227  1.00  0.00    -0.266 OA
HETATM    4  H   UNL     1       7.644  29.852  56.935  1.00  0.00     0.163 HD
ENDROOT
BRANCH   2   5
HETATM    5  C   UNL     1       9.308  30.705  58.645  1.00  0.00     0.120 A 
HETATM    6  N   UNL     1       9.968  31.864  58.941  1.00  0.00    -0.272 N 
HETATM    7  H   UNL     1      10.731  32.280  58.416  1.00  0.00     0.189 HD
HETATM    8  N   UNL     1       9.522  32.486  60.042  1.00  0.00    -0.174 NA
HETATM    9  C   UNL     1       8.507  31.722  60.476  1.00  0.00     0.089 A 
HETATM   10  C   UNL     1       8.360  30.578  59.640  1.00  0.00     0.071 A 
BRANCH   9  11
HETATM   11  C   UNL     1       7.711  32.102  61.648  1.00  0.00    -0.005 A 
HETATM   12  C   UNL     1       6.316  32.247  61.562  1.00  0.00     0.017 A 
HETATM   13  C   UNL     1       5.570  32.628  62.682  1.00  0.00     0.043 A 
HETATM   14  C   UNL     1       6.214  32.862  63.890  1.00  0.00     0.116 A 
HETATM   15  F   UNL     1       5.497  33.228  64.959  1.00  0.00    -0.206 F 
HETATM   16  C   UNL     1       7.592  32.726  64.002  1.00  0.00     0.043 A 
HETATM   17  C   UNL     1       8.338  32.348  62.882  1.00  0.00     0.017 A 
ENDBRANCH   9  11
ENDBRANCH   2   5
BRANCH   1  18
HETATM   18  C   UNL     1       8.776  28.961  55.396  1.00  0.00     0.217 C 
BRANCH  18  19
HETATM   19  C   UNL     1       7.710  27.901  55.173  1.00  0.00    -0.085 C 
BRANCH  19  20
HETATM   20  C   UNL     1       6.796  26.992  54.981  1.00  0.00    -0.078 C 
BRANCH  20  21
HETATM   21  C   UNL     1       5.763  25.972  54.750  1.00  0.00     0.269 C 
BRANCH  21  22
HETATM   22  O   UNL     1       6.118  24.785  55.456  1.00  0.00    -0.340 OA
BRANCH  22  23
HETATM   23  C   UNL     1       6.832  23.841  54.771  1.00  0.00     0.071 A 
HETATM   24  C   UNL     1       7.405  22.850  55.574  1.00  0.00     0.055 A 
HETATM   25  C   UNL     1       8.158  21.828  54.997  1.00  0.00     0.013 A 
HETATM   26  C   UNL     1       8.346  21.781  53.618  1.00  0.00     0.019 A 
HETATM   27 BR   UNL     1       8.930  20.496  56.094  1.00  0.00    -0.051 Br
HETATM   28  C   UNL     1       7.774  22.766  52.814  1.00  0.00     0.004 A 
HETATM   29  C   UNL     1       7.019  23.794  53.387  1.00  0.00     0.037 A 
ENDBRANCH  22  23
ENDBRANCH  21  22
ENDBRANCH  20  21
ENDBRANCH  19  20
ENDBRANCH  18  19
ENDBRANCH   1  18
TORSDOF 8
ENDMDL
MODEL 4
REMARK VINA RESULT:      -9.2      5.235     11.732
REMARK  8 active torsions:
REMARK  status: ('A' for Active; 'I' for Inactive)
REMARK    1  A    between atoms: C_6  and  O_7 
REMARK    2  A    between atoms: O_7  and  C_8 
REMARK    3  A    between atoms: C_8  and  C_9 
REMARK    4  A    between atoms: C_9  and  C_10 
REMARK    5  A    between atoms: C_10  and  C_11 
REMARK    6  A    between atoms: C_11  and  N_12 
REMARK       I    between atoms: N_12  and  C_13 
REMARK    7  A    between atoms: C_13  and  C_14 
REMARK    8  A    between atoms: C_18  and  C_19 
ROOT
HETATM    1  N   UNL     1       8.177  28.555  57.684  1.00  0.00    -0.345 N 
HETATM    2  C   UNL     1       7.111  27.754  57.358  1.00  0.00     0.270 C 
HETATM    3  O   UNL     1       5.949  28.145  57.384  1.00  0.00    -0.266 OA
HETATM    4  H   UNL     1       9.112  28.179  57.690  1.00  0.00     0.163 HD
ENDROOT
BRANCH   2   5
HETATM    5  C   UNL     1       7.447  26.413  56.960  1.00  0.00     0.120 A 
HETATM    6  N   UNL     1       7.880  25.490  57.871  1.00  0.00    -0.272 N 
HETATM    7  H   UNL     1       8.023  25.639  58.865  1.00  0.00     0.189 HD
HETATM    8  N   UNL     1       8.121  24.277  57.354  1.00  0.00    -0.174 NA
HETATM    9  C   UNL     1       7.808  24.394  56.053  1.00  0.00     0.089 A 
HETATM   10  C   UNL     1       7.407  25.729  55.762  1.00  0.00     0.071 A 
BRANCH   9  11
HETATM   11  C   UNL     1       7.886  23.247  55.142  1.00  0.00    -0.005 A 
HETATM   12  C   UNL     1       8.030  23.429  53.756  1.00  0.00     0.017 A 
HETATM   13  C   UNL     1       8.085  22.328  52.896  1.00  0.00     0.043 A 
HETATM   14  C   UNL     1       7.998  21.043  53.418  1.00  0.00     0.116 A 
HETATM   15  F   UNL     1       8.049  19.992  52.591  1.00  0.00    -0.206 F 
HETATM   16  C   UNL     1       7.855  20.836  54.783  1.00  0.00     0.043 A 
HETATM   17  C   UNL     1       7.797  21.936  55.643  1.00  0.00     0.017 A 
ENDBRANCH   9  11
ENDBRANCH   2   5
BRANCH   1  18
HETATM   18  C   UNL     1       8.012  29.956  57.963  1.00  0.00     0.217 C 
BRANCH  18  19
HETATM   19  C   UNL     1       8.322  30.245  59.422  1.00  0.00    -0.085 C 
BRANCH  19  20
HETATM   20  C   UNL     1       8.587  30.493  60.674  1.00  0.00    -0.078 C 
BRANCH  20  21
HETATM   21  C   UNL     1       8.880  30.787  62.084  1.00  0.00     0.269 C 
BRANCH  21  22
HETATM   22  O   UNL     1       8.772  32.193  62.297  1.00  0.00    -0.340 OA
BRANCH  22  23
HETATM   23  C   UNL     1       7.711  32.632  63.040  1.00  0.00     0.071 A 
HETATM   24  C   UNL     1       6.480  32.584  62.378  1.00  0.00     0.055 A 
HETATM   25  C   UNL     1       5.319  33.003  63.027  1.00  0.00     0.013 A 
HETATM   26  C   UNL     1       5.371  33.468  64.338  1.00  0.00     0.019 A 
HETATM   27 BR   UNL     1       3.661  32.937  62.120  1.00  0.00    -0.051 Br
HETATM   28  C   UNL     1       6.596  33.515  65.002  1.00  0.00     0.004 A 
HETATM   29  C   UNL     1       7.764  33.097  64.356  1.00  0.00     0.037 A 
ENDBRANCH  22  23
ENDBRANCH  21  22
ENDBRANCH  20  21
ENDBRANCH  19  20
ENDBRANCH  18  19
ENDBRANCH   1  18
TORSDOF 8
ENDMDL
MODEL 5
REMARK VINA RESULT:      -9.0      1.637      2.192
REMARK  8 active torsions:
REMARK  status: ('A' for Active; 'I' for Inactive)
REMARK    1  A    between atoms: C_6  and  O_7 
REMARK    2  A    between atoms: O_7  and  C_8 
REMARK    3  A    between atoms: C_8  and  C_9 
REMARK    4  A    between atoms: C_9  and  C_10 
REMARK    5  A    between atoms: C_10  and  C_11 
REMARK    6  A    between atoms: C_11  and  N_12 
REMARK       I    between atoms: N_12  and  C_13 
REMARK    7  A    between atoms: C_13  and  C_14 
REMARK    8  A    between atoms: C_18  and  C_19 
ROOT
HETATM    1  N   UNL     1       7.495  29.378  58.684  1.00  0.00    -0.345 N 
HETATM    2  C   UNL     1       8.416  30.264  59.185  1.00  0.00     0.270 C 
HETATM    3  O   UNL     1       9.417  30.607  58.566  1.00  0.00    -0.266 OA
HETATM    4  H   UNL     1       6.708  29.092  59.245  1.00  0.00     0.163 HD
ENDROOT
BRANCH   2   5
HETATM    5  C   UNL     1       8.120  30.788  60.492  1.00  0.00     0.120 A 
HETATM    6  N   UNL     1       8.776  30.336  61.602  1.00  0.00    -0.272 N 
HETATM    7  H   UNL     1       9.489  29.613  61.634  1.00  0.00     0.189 HD
HETATM    8  N   UNL     1       8.414  30.944  62.741  1.00  0.00    -0.174 NA
HETATM    9  C   UNL     1       7.501  31.853  62.365  1.00  0.00     0.089 A 
HETATM   10  C   UNL     1       7.270  31.768  60.962  1.00  0.00     0.071 A 
BRANCH   9  11
HETATM   11  C   UNL     1       6.896  32.774  63.334  1.00  0.00    -0.005 A 
HETATM   12  C   UNL     1       5.622  33.324  63.114  1.00  0.00     0.017 A 
HETATM   13  C   UNL     1       5.063  34.214  64.037  1.00  0.00     0.043 A 
HETATM   14  C   UNL     1       5.773  34.555  65.180  1.00  0.00     0.116 A 
HETATM   15  F   UNL     1       5.235  35.409  66.059  1.00  0.00    -0.206 F 
HETATM   16  C   UNL     1       7.034  34.027  65.421  1.00  0.00     0.043 A 
HETATM   17  C   UNL     1       7.594  33.139  64.498  1.00  0.00     0.017 A 
ENDBRANCH   9  11
ENDBRANCH   2   5
BRANCH   1  18
HETATM   18  C   UNL     1       7.579  28.881  57.337  1.00  0.00     0.217 C 
BRANCH  18  19
HETATM   19  C   UNL     1       7.999  27.420  57.339  1.00  0.00    -0.085 C 
BRANCH  19  20
HETATM   20  C   UNL     1       8.359  26.168  57.341  1.00  0.00    -0.078 C 
BRANCH  20  21
HETATM   21  C   UNL     1       8.766  24.755  57.329  1.00  0.00     0.269 C 
BRANCH  21  22
HETATM   22  O   UNL     1       8.554  24.223  56.023  1.00  0.00    -0.340 OA
BRANCH  22  23
HETATM   23  C   UNL     1       8.472  22.862  55.910  1.00  0.00     0.071 A 
HETATM   24  C   UNL     1       8.477  22.388  54.595  1.00  0.00     0.055 A 
HETATM   25  C   UNL     1       8.400  21.019  54.342  1.00  0.00     0.013 A 
HETATM   26  C   UNL     1       8.320  20.110  55.395  1.00  0.00     0.019 A 
HETATM   27 BR   UNL     1       8.403  20.390  52.559  1.00  0.00    -0.051 Br
HETATM   28  C   UNL     1       8.318  20.579  56.708  1.00  0.00     0.004 A 
HETATM   29  C   UNL     1       8.394  21.951  56.966  1.00  0.00     0.037 A 
ENDBRANCH  22  23
ENDBRANCH  21  22
ENDBRANCH  20  21
ENDBRANCH  19  20
ENDBRANCH  18  19
ENDBRANCH   1  18
TORSDOF 8
ENDMDL
MODEL 6
REMARK VINA RESULT:      -8.9      1.721      2.004
REMARK  8 active torsions:
REMARK  status: ('A' for Active; 'I' for Inactive)
REMARK    1  A    between atoms: C_6  and  O_7 
REMARK    2  A    between atoms: O_7  and  C_8 
REMARK    3  A    between atoms: C_8  and  C_9 
REMARK    4  A    between atoms: C_9  and  C_10 
REMARK    5  A    between atoms: C_10  and  C_11 
REMARK    6  A    between atoms: C_11  and  N_12 
REMARK       I    between atoms: N_12  and  C_13 
REMARK    7  A    between atoms: C_13  and  C_14 
REMARK    8  A    between atoms: C_18  and  C_19 
ROOT
HETATM    1  N   UNL     1       6.492  30.359  58.601  1.00  0.00    -0.345 N 
HETATM    2  C   UNL     1       6.524  31.659  59.042  1.00  0.00     0.270 C 
HETATM    3  O   UNL     1       6.482  32.622  58.284  1.00  0.00    -0.266 OA
HETATM    4  H   UNL     1       6.572  29.599  59.257  1.00  0.00     0.163 HD
ENDROOT
BRANCH   2   5
HETATM    5  C   UNL     1       6.590  31.824  60.469  1.00  0.00     0.120 A 
HETATM    6  N   UNL     1       7.447  31.080  61.230  1.00  0.00    -0.272 N 
HETATM    7  H   UNL     1       8.083  30.360  60.901  1.00  0.00     0.189 HD
HETATM    8  N   UNL     1       7.418  31.373  62.538  1.00  0.00    -0.174 NA
HETATM    9  C   UNL     1       6.524  32.369  62.643  1.00  0.00     0.089 A 
HETATM   10  C   UNL     1       5.962  32.663  61.368  1.00  0.00     0.071 A 
BRANCH   9  11
HETATM   11  C   UNL     1       6.245  33.013  63.932  1.00  0.00    -0.005 A 
HETATM   12  C   UNL     1       7.283  33.340  64.820  1.00  0.00     0.017 A 
HETATM   13  C   UNL     1       7.003  33.938  66.053  1.00  0.00     0.043 A 
HETATM   14  C   UNL     1       5.686  34.211  66.400  1.00  0.00     0.116 A 
HETATM   15  F   UNL     1       5.421  34.780  67.583  1.00  0.00    -0.206 F 
HETATM   16  C   UNL     1       4.641  33.897  65.541  1.00  0.00     0.043 A 
HETATM   17  C   UNL     1       4.921  33.298  64.310  1.00  0.00     0.017 A 
ENDBRANCH   9  11
ENDBRANCH   2   5
BRANCH   1  18
HETATM   18  C   UNL     1       6.284  30.036  57.215  1.00  0.00     0.217 C 
BRANCH  18  19
HETATM   19  C   UNL     1       6.485  28.548  56.983  1.00  0.00    -0.085 C 
BRANCH  19  20
HETATM   20  C   UNL     1       6.658  27.271  56.783  1.00  0.00    -0.078 C 
BRANCH  20  21
HETATM   21  C   UNL     1       6.862  25.831  56.569  1.00  0.00     0.269 C 
BRANCH  21  22
HETATM   22  O   UNL     1       6.356  25.477  55.284  1.00  0.00    -0.340 OA
BRANCH  22  23
HETATM   23  C   UNL     1       6.927  24.400  54.663  1.00  0.00     0.071 A 
HETATM   24  C   UNL     1       7.176  23.312  55.504  1.00  0.00     0.055 A 
HETATM   25  C   UNL     1       7.755  22.150  54.994  1.00  0.00     0.013 A 
HETATM   26  C   UNL     1       8.089  22.061  53.645  1.00  0.00     0.019 A 
HETATM   27 BR   UNL     1       8.091  20.686  56.142  1.00  0.00    -0.051 Br
HETATM   28  C   UNL     1       7.840  23.143  52.803  1.00  0.00     0.004 A 
HETATM   29  C   UNL     1       7.259  24.311  53.309  1.00  0.00     0.037 A 
ENDBRANCH  22  23
ENDBRANCH  21  22
ENDBRANCH  20  21
ENDBRANCH  19  20
ENDBRANCH  18  19
ENDBRANCH   1  18
TORSDOF 8
ENDMDL
MODEL 7
REMARK VINA RESULT:      -8.7      6.523     10.847
REMARK  8 active torsions:
REMARK  status: ('A' for Active; 'I' for Inactive)
REMARK    1  A    between atoms: C_6  and  O_7 
REMARK    2  A    between atoms: O_7  and  C_8 
REMARK    3  A    between atoms: C_8  and  C_9 
REMARK    4  A    between atoms: C_9  and  C_10 
REMARK    5  A    between atoms: C_10  and  C_11 
REMARK    6  A    between atoms: C_11  and  N_12 
REMARK       I    between atoms: N_12  and  C_13 
REMARK    7  A    between atoms: C_13  and  C_14 
REMARK    8  A    between atoms: C_18  and  C_19 
ROOT
HETATM    1  N   UNL     1       4.113  27.119  52.907  1.00  0.00    -0.345 N 
HETATM    2  C   UNL     1       5.106  26.863  51.995  1.00  0.00     0.270 C 
HETATM    3  O   UNL     1       5.297  27.560  51.003  1.00  0.00    -0.266 OA
HETATM    4  H   UNL     1       3.966  26.494  53.685  1.00  0.00     0.163 HD
ENDROOT
BRANCH   2   5
HETATM    5  C   UNL     1       5.934  25.723  52.286  1.00  0.00     0.120 A 
HETATM    6  N   UNL     1       7.130  25.535  51.654  1.00  0.00    -0.272 N 
HETATM    7  H   UNL     1       7.540  26.130  50.939  1.00  0.00     0.189 HD
HETATM    8  N   UNL     1       7.801  24.447  52.056  1.00  0.00    -0.174 NA
HETATM    9  C   UNL     1       7.030  23.907  53.014  1.00  0.00     0.089 A 
HETATM   10  C   UNL     1       5.834  24.666  53.168  1.00  0.00     0.071 A 
BRANCH   9  11
HETATM   11  C   UNL     1       7.452  22.712  53.752  1.00  0.00    -0.005 A 
HETATM   12  C   UNL     1       7.456  22.691  55.157  1.00  0.00     0.017 A 
HETATM   13  C   UNL     1       7.877  21.551  55.850  1.00  0.00     0.043 A 
HETATM   14  C   UNL     1       8.295  20.432  55.142  1.00  0.00     0.116 A 
HETATM   15  F   UNL     1       8.700  19.344  55.809  1.00  0.00    -0.206 F 
HETATM   16  C   UNL     1       8.302  20.427  53.754  1.00  0.00     0.043 A 
HETATM   17  C   UNL     1       7.883  21.566  53.061  1.00  0.00     0.017 A 
ENDBRANCH   9  11
ENDBRANCH   2   5
BRANCH   1  18
HETATM   18  C   UNL     1       3.299  28.301  52.827  1.00  0.00     0.217 C 
BRANCH  18  19
HETATM   19  C   UNL     1       3.606  29.234  53.987  1.00  0.00    -0.085 C 
BRANCH  19  20
HETATM   20  C   UNL     1       3.868  30.035  54.981  1.00  0.00    -0.078 C 
BRANCH  20  21
HETATM   21  C   UNL     1       4.161  30.949  56.094  1.00  0.00     0.269 C 
BRANCH  21  22
HETATM   22  O   UNL     1       4.411  30.182  57.271  1.00  0.00    -0.340 OA
BRANCH  22  23
HETATM   23  C   UNL     1       5.678  29.696  57.441  1.00  0.00     0.071 A 
HETATM   24  C   UNL     1       5.788  28.308  57.317  1.00  0.00     0.055 A 
HETATM   25  C   UNL     1       7.028  27.686  57.467  1.00  0.00     0.013 A 
HETATM   26  C   UNL     1       8.167  28.439  57.738  1.00  0.00     0.019 A 
HETATM   27 BR   UNL     1       7.163  25.808  57.301  1.00  0.00    -0.051 Br
HETATM   28  C   UNL     1       8.062  29.824  57.860  1.00  0.00     0.004 A 
HETATM   29  C   UNL     1       6.821  30.453  57.711  1.00  0.00     0.037 A 
ENDBRANCH  22  23
ENDBRANCH  21  22
ENDBRANCH  20  21
ENDBRANCH  19  20
ENDBRANCH  18  19
ENDBRANCH   1  18
TORSDOF 8
ENDMDL
MODEL 8
REMARK VINA RESULT:      -8.5      5.812     12.100
REMARK  8 active torsions:
REMARK  status: ('A' for Active; 'I' for Inactive)
REMARK    1  A    between atoms: C_6  and  O_7 
REMARK    2  A    between atoms: O_7  and  C_8 
REMARK    3  A    between atoms: C_8  and  C_9 
REMARK    4  A    between atoms: C_9  and  C_10 
REMARK    5  A    between atoms: C_10  and  C_11 
REMARK    6  A    between atoms: C_11  and  N_12 
REMARK       I    between atoms: N_12  and  C_13 
REMARK    7  A    between atoms: C_13  and  C_14 
REMARK    8  A    between atoms: C_18  and  C_19 
ROOT
HETATM    1  N   UNL     1       6.125  28.578  56.562  1.00  0.00    -0.345 N 
HETATM    2  C   UNL     1       5.500  27.680  55.733  1.00  0.00     0.270 C 
HETATM    3  O   UNL     1       4.543  27.979  55.027  1.00  0.00    -0.266 OA
HETATM    4  H   UNL     1       6.882  28.278  57.156  1.00  0.00     0.163 HD
ENDROOT
BRANCH   2   5
HETATM    5  C   UNL     1       6.058  26.354  55.726  1.00  0.00     0.120 A 
HETATM    6  N   UNL     1       6.233  25.653  56.886  1.00  0.00    -0.272 N 
HETATM    7  H   UNL     1       6.020  25.972  57.827  1.00  0.00     0.189 HD
HETATM    8  N   UNL     1       6.731  24.421  56.715  1.00  0.00    -0.174 NA
HETATM    9  C   UNL     1       6.866  24.291  55.385  1.00  0.00     0.089 A 
HETATM   10  C   UNL     1       6.479  25.495  54.731  1.00  0.00     0.071 A 
BRANCH   9  11
HETATM   11  C   UNL     1       7.339  23.039  54.783  1.00  0.00    -0.005 A 
HETATM   12  C   UNL     1       7.564  21.896  55.568  1.00  0.00     0.017 A 
HETATM   13  C   UNL     1       8.032  20.714  54.985  1.00  0.00     0.043 A 
HETATM   14  C   UNL     1       8.274  20.670  53.618  1.00  0.00     0.116 A 
HETATM   15  F   UNL     1       8.725  19.538  53.065  1.00  0.00    -0.206 F 
HETATM   16  C   UNL     1       8.061  21.786  52.820  1.00  0.00     0.043 A 
HETATM   17  C   UNL     1       7.596  22.969  53.403  1.00  0.00     0.017 A 
ENDBRANCH   9  11
ENDBRANCH   2   5
BRANCH   1  18
HETATM   18  C   UNL     1       5.773  29.972  56.570  1.00  0.00     0.217 C 
BRANCH  18  19
HETATM   19  C   UNL     1       6.448  30.681  57.732  1.00  0.00    -0.085 C 
BRANCH  19  20
HETATM   20  C   UNL     1       7.026  31.291  58.729  1.00  0.00    -0.078 C 
BRANCH  20  21
HETATM   21  C   UNL     1       7.671  31.970  59.862  1.00  0.00     0.269 C 
BRANCH  21  22
HETATM   22  O   UNL     1       6.728  32.848  60.473  1.00  0.00    -0.340 OA
BRANCH  22  23
HETATM   23  C   UNL     1       6.900  33.120  61.803  1.00  0.00     0.071 A 
HETATM   24  C   UNL     1       6.106  34.162  62.290  1.00  0.00     0.055 A 
HETATM   25  C   UNL     1       6.186  34.537  63.630  1.00  0.00     0.013 A 
HETATM   26  C   UNL     1       7.053  33.878  64.498  1.00  0.00     0.019 A 
HETATM   27 BR   UNL     1       5.109  35.950  64.276  1.00  0.00    -0.051 Br
HETATM   28  C   UNL     1       7.846  32.837  64.017  1.00  0.00     0.004 A 
HETATM   29  C   UNL     1       7.770  32.457  62.672  1.00  0.00     0.037 A 
ENDBRANCH  22  23
ENDBRANCH  21  22
ENDBRANCH  20  21
ENDBRANCH  19  20
ENDBRANCH  18  19
ENDBRANCH   1  18
TORSDOF 8
ENDMDL
MODEL 9
REMARK VINA RESULT:      -8.5      5.656     11.102
REMARK  8 active torsions:
REMARK  status: ('A' for Active; 'I' for Inactive)
REMARK    1  A    between atoms: C_6  and  O_7 
REMARK    2  A    between atoms: O_7  and  C_8 
REMARK    3  A    between atoms: C_8  and  C_9 
REMARK    4  A    between atoms: C_9  and  C_10 
REMARK    5  A    between atoms: C_10  and  C_11 
REMARK    6  A    between atoms: C_11  and  N_12 
REMARK       I    between atoms: N_12  and  C_13 
REMARK    7  A    between atoms: C_13  and  C_14 
REMARK    8  A    between atoms: C_18  and  C_19 
ROOT
HETATM    1  N   UNL     1       4.199  28.463  56.267  1.00  0.00    -0.345 N 
HETATM    2  C   UNL     1       4.961  28.204  55.156  1.00  0.00     0.270 C 
HETATM    3  O   UNL     1       4.982  28.939  54.174  1.00  0.00    -0.266 OA
HETATM    4  H   UNL     1       4.180  27.809  57.034  1.00  0.00     0.163 HD
ENDROOT
BRANCH   2   5
HETATM    5  C   UNL     1       5.763  27.011  55.222  1.00  0.00     0.120 A 
HETATM    6  N   UNL     1       6.561  26.751  56.300  1.00  0.00    -0.272 N 
HETATM    7  H   UNL     1       6.686  27.339  57.119  1.00  0.00     0.189 HD
HETATM    8  N   UNL     1       7.219  25.586  56.230  1.00  0.00    -0.174 NA
HETATM    9  C   UNL     1       6.820  25.039  55.071  1.00  0.00     0.089 A 
HETATM   10  C   UNL     1       5.925  25.918  54.395  1.00  0.00     0.071 A 
BRANCH   9  11
HETATM   11  C   UNL     1       7.284  23.712  54.652  1.00  0.00    -0.005 A 
HETATM   12  C   UNL     1       7.558  23.431  53.303  1.00  0.00     0.017 A 
HETATM   13  C   UNL     1       7.982  22.157  52.913  1.00  0.00     0.043 A 
HETATM   14  C   UNL     1       8.134  21.161  53.869  1.00  0.00     0.116 A 
HETATM   15  F   UNL     1       8.537  19.942  53.492  1.00  0.00    -0.206 F 
HETATM   16  C   UNL     1       7.869  21.412  55.209  1.00  0.00     0.043 A 
HETATM   17  C   UNL     1       7.443  22.685  55.598  1.00  0.00     0.017 A 
ENDBRANCH   9  11
ENDBRANCH   2   5
BRANCH   1  18
HETATM   18  C   UNL     1       3.457  29.687  56.407  1.00  0.00     0.217 C 
BRANCH  18  19
HETATM   19  C   UNL     1       4.219  30.671  57.279  1.00  0.00    -0.085 C 
BRANCH  19  20
HETATM   20  C   UNL     1       4.872  31.515  58.027  1.00  0.00    -0.078 C 
BRANCH  20  21
HETATM   21  C   UNL     1       5.613  32.456  58.879  1.00  0.00     0.269 C 
BRANCH  21  22
HETATM   22  O   UNL     1       7.010  32.208  58.739  1.00  0.00    -0.340 OA
BRANCH  22  23
HETATM   23  C   UNL     1       7.684  31.789  59.854  1.00  0.00     0.071 A 
HETATM   24  C   UNL     1       7.335  32.461  61.029  1.00  0.00     0.055 A 
HETATM   25  C   UNL     1       7.949  32.128  62.236  1.00  0.00     0.013 A 
HETATM   26  C   UNL     1       8.912  31.124  62.284  1.00  0.00     0.019 A 
HETATM   27 BR   UNL     1       7.470  33.045  63.818  1.00  0.00    -0.051 Br
HETATM   28  C   UNL     1       9.262  30.450  61.115  1.00  0.00     0.004 A 
HETATM   29  C   UNL     1       8.650  30.781  59.901  1.00  0.00     0.037 A 
ENDBRANCH  22  23
ENDBRANCH  21  22
ENDBRANCH  20  21
ENDBRANCH  19  20
ENDBRANCH  18  19
ENDBRANCH   1  18
TORSDOF 8
ENDMDL
MODEL 10
REMARK VINA RESULT:      -8.5      5.307     11.655
REMARK  8 active torsions:
REMARK  status: ('A' for Active; 'I' for Inactive)
REMARK    1  A    between atoms: C_6  and  O_7 
REMARK    2  A    between atoms: O_7  and  C_8 
REMARK    3  A    between atoms: C_8  and  C_9 
REMARK    4  A    between atoms: C_9  and  C_10 
REMARK    5  A    between atoms: C_10  and  C_11 
REMARK    6  A    between atoms: C_11  and  N_12 
REMARK       I    between atoms: N_12  and  C_13 
REMARK    7  A    between atoms: C_13  and  C_14 
REMARK    8  A    between atoms: C_18  and  C_19 
ROOT
HETATM    1  N   UNL     1       8.698  30.670  60.825  1.00  0.00    -0.345 N 
HETATM    2  C   UNL     1       8.829  31.072  59.520  1.00  0.00     0.270 C 
HETATM    3  O   UNL     1       8.967  32.246  59.193  1.00  0.00    -0.266 OA
HETATM    4  H   UNL     1       8.543  29.699  61.044  1.00  0.00     0.163 HD
ENDROOT
BRANCH   2   5
HETATM    5  C   UNL     1       8.814  30.015  58.544  1.00  0.00     0.120 A 
HETATM    6  N   UNL     1       9.857  29.831  57.681  1.00  0.00    -0.272 N 
HETATM    7  H   UNL     1      10.701  30.392  57.620  1.00  0.00     0.189 HD
HETATM    8  N   UNL     1       9.711  28.785  56.855  1.00  0.00    -0.174 NA
HETATM    9  C   UNL     1       8.535  28.238  57.204  1.00  0.00     0.089 A 
HETATM   10  C   UNL     1       7.928  28.999  58.244  1.00  0.00     0.071 A 
BRANCH   9  11
HETATM   11  C   UNL     1       8.037  27.019  56.558  1.00  0.00    -0.005 A 
HETATM   12  C   UNL     1       7.434  27.064  55.291  1.00  0.00     0.017 A 
HETATM   13  C   UNL     1       6.947  25.897  54.693  1.00  0.00     0.043 A 
HETATM   14  C   UNL     1       7.063  24.683  55.359  1.00  0.00     0.116 A 
HETATM   15  F   UNL     1       6.593  23.569  54.785  1.00  0.00    -0.206 F 
HETATM   16  C   UNL     1       7.654  24.612  56.613  1.00  0.00     0.043 A 
HETATM   17  C   UNL     1       8.139  25.778  57.212  1.00  0.00     0.017 A 
ENDBRANCH   9  11
ENDBRANCH   2   5
BRANCH   1  18
HETATM   18  C   UNL     1       8.837  31.595  61.918  1.00  0.00     0.217 C 
BRANCH  18  19
HETATM   19  C   UNL     1       7.474  32.108  62.352  1.00  0.00    -0.085 C 
BRANCH  19  20
HETATM   20  C   UNL     1       6.305  32.548  62.724  1.00  0.00    -0.078 C 
BRANCH  20  21
HETATM   21  C   UNL     1       4.981  33.030  63.144  1.00  0.00     0.269 C 
BRANCH  21  22
HETATM   22  O   UNL     1       4.792  32.723  64.524  1.00  0.00    -0.340 OA
BRANCH  22  23
HETATM   23  C   UNL     1       4.620  33.776  65.379  1.00  0.00     0.071 A 
HETATM   24  C   UNL     1       5.542  33.829  66.428  1.00  0.00     0.055 A 
HETATM   25  C   UNL     1       5.477  34.856  67.370  1.00  0.00     0.013 A 
HETATM   26  C   UNL     1       4.495  35.839  67.275  1.00  0.00     0.019 A 
HETATM   27 BR   UNL     1       6.728  34.914  68.786  1.00  0.00    -0.051 Br
HETATM   28  C   UNL     1       3.575  35.791  66.229  1.00  0.00     0.004 A 
HETATM   29  C   UNL     1       3.636  34.763  65.282  1.00  0.00     0.037 A 
ENDBRANCH  22  23
ENDBRANCH  21  22
ENDBRANCH  20  21
ENDBRANCH  19  20
ENDBRANCH  18  19
ENDBRANCH   1  18
TORSDOF 8
ENDMDL
