MODEL 1
REMARK VINA RESULT:      -9.4      0.000      0.000
REMARK  3 active torsions:
REMARK  status: ('A' for Active; 'I' for Inactive)
REMARK    1  A    between atoms: C_4  and  C_5 
REMARK    2  A    between atoms: C_11  and  C_12 
REMARK    3  A    between atoms: C_21  and  N_22 
ROOT
HETATM    1  C   UNL     1       8.284  24.101  56.036  1.00  0.00     0.071 A 
HETATM    2  N   UNL     1       9.154  24.120  57.107  1.00  0.00    -0.274 N 
HETATM    3  H   UNL     1       9.761  23.370  57.419  1.00  0.00     0.189 HD
HETATM    4  N   UNL     1       9.119  25.256  57.830  1.00  0.00    -0.148 NA
HETATM    5  C   UNL     1       8.214  25.973  57.177  1.00  0.00     0.199 A 
HETATM    6  C   UNL     1       7.693  25.353  56.038  1.00  0.00     0.036 A 
HETATM    7  C   UNL     1       6.675  26.045  55.191  1.00  0.00     0.081 C 
HETATM    8  C   UNL     1       6.087  27.231  55.979  1.00  0.00     0.077 C 
HETATM    9  C   UNL     1       4.877  27.798  55.478  1.00  0.00     0.100 C 
HETATM   10  N   UNL     1       3.882  28.236  55.074  1.00  0.00    -0.192 NA
HETATM   11  C   UNL     1       6.662  27.728  57.105  1.00  0.00     0.140 C 
HETATM   12  O   UNL     1       7.815  27.162  57.664  1.00  0.00    -0.277 OA
ENDROOT
BRANCH   7  13
HETATM   13  C   UNL     1       7.198  26.510  53.785  1.00  0.00     0.022 C 
HETATM   14  C   UNL     1       6.959  27.981  53.525  1.00  0.00    -0.025 C 
HETATM   15  C   UNL     1       6.243  28.455  52.494  1.00  0.00    -0.030 C 
HETATM   16  C   UNL     1       5.558  27.580  51.488  1.00  0.00     0.027 C 
HETATM   17  C   UNL     1       5.461  26.120  51.924  1.00  0.00     0.004 C 
HETATM   18  C   UNL     1       6.749  25.637  52.586  1.00  0.00     0.010 C 
ENDBRANCH   7  13
BRANCH  11  19
HETATM   19  N   UNL     1       6.198  28.807  57.829  1.00  0.00    -0.282 NA
HETATM   20  H   UNL     1       5.867  29.598  57.282  1.00  0.00     0.126 HD
HETATM   21  H   UNL     1       5.542  28.519  58.552  1.00  0.00     0.126 HD
ENDBRANCH  11  19
BRANCH   1  22
HETATM   22  C   UNL     1       8.106  22.920  55.202  1.00  0.00    -0.007 A 
HETATM   23  C   UNL     1       7.831  21.675  55.784  1.00  0.00     0.014 A 
HETATM   24  C   UNL     1       7.671  20.539  54.988  1.00  0.00     0.001 A 
HETATM   25  C   UNL     1       7.788  20.635  53.603  1.00  0.00     0.000 A 
HETATM   26  C   UNL     1       8.065  21.866  53.013  1.00  0.00     0.001 A 
HETATM   27  C   UNL     1       8.224  23.004  53.808  1.00  0.00     0.014 A 
ENDBRANCH   1  22
TORSDOF 3
ENDMDL
MODEL 2
REMARK VINA RESULT:      -9.3      2.577      4.749
REMARK  3 active torsions:
REMARK  status: ('A' for Active; 'I' for Inactive)
REMARK    1  A    between atoms: C_4  and  C_5 
REMARK    2  A    between atoms: C_11  and  C_12 
REMARK    3  A    between atoms: C_21  and  N_22 
ROOT
HETATM    1  C   UNL     1       5.369  27.374  54.612  1.00  0.00     0.071 A 
HETATM    2  N   UNL     1       4.096  27.846  54.369  1.00  0.00    -0.274 N 
HETATM    3  H   UNL     1       3.497  27.623  53.581  1.00  0.00     0.189 HD
HETATM    4  N   UNL     1       3.658  28.750  55.267  1.00  0.00    -0.148 NA
HETATM    5  C   UNL     1       4.683  28.827  56.106  1.00  0.00     0.199 A 
HETATM    6  C   UNL     1       5.750  27.976  55.799  1.00  0.00     0.036 A 
HETATM    7  C   UNL     1       6.968  27.940  56.662  1.00  0.00     0.081 C 
HETATM    8  C   UNL     1       6.976  29.181  57.575  1.00  0.00     0.077 C 
HETATM    9  C   UNL     1       8.210  29.498  58.219  1.00  0.00     0.100 C 
HETATM   10  N   UNL     1       9.224  29.756  58.718  1.00  0.00    -0.192 NA
HETATM   11  C   UNL     1       5.882  29.964  57.768  1.00  0.00     0.140 C 
HETATM   12  O   UNL     1       4.670  29.724  57.108  1.00  0.00    -0.277 OA
ENDROOT
BRANCH   7  13
HETATM   13  C   UNL     1       7.138  26.625  57.503  1.00  0.00     0.022 C 
HETATM   14  C   UNL     1       8.482  25.961  57.295  1.00  0.00    -0.025 C 
HETATM   15  C   UNL     1       8.638  24.708  56.844  1.00  0.00    -0.030 C 
HETATM   16  C   UNL     1       7.498  23.817  56.454  1.00  0.00     0.027 C 
HETATM   17  C   UNL     1       6.176  24.566  56.294  1.00  0.00     0.004 C 
HETATM   18  C   UNL     1       5.975  25.608  57.391  1.00  0.00     0.010 C 
ENDBRANCH   7  13
BRANCH  11  19
HETATM   19  N   UNL     1       5.824  31.063  58.598  1.00  0.00    -0.282 NA
HETATM   20  H   UNL     1       5.589  30.874  59.569  1.00  0.00     0.126 HD
HETATM   21  H   UNL     1       6.646  31.655  58.495  1.00  0.00     0.126 HD
ENDBRANCH  11  19
BRANCH   1  22
HETATM   22  C   UNL     1       6.050  26.471  53.693  1.00  0.00    -0.007 A 
HETATM   23  C   UNL     1       5.324  25.511  52.974  1.00  0.00     0.014 A 
HETATM   24  C   UNL     1       5.975  24.637  52.101  1.00  0.00     0.001 A 
HETATM   25  C   UNL     1       7.358  24.711  51.941  1.00  0.00     0.000 A 
HETATM   26  C   UNL     1       8.090  25.658  52.653  1.00  0.00     0.001 A 
HETATM   27  C   UNL     1       7.440  26.534  53.526  1.00  0.00     0.014 A 
ENDBRANCH   1  22
TORSDOF 3
ENDMDL
MODEL 3
REMARK VINA RESULT:      -8.9      9.648     11.751
REMARK  3 active torsions:
REMARK  status: ('A' for Active; 'I' for Inactive)
REMARK    1  A    between atoms: C_4  and  C_5 
REMARK    2  A    between atoms: C_11  and  C_12 
REMARK    3  A    between atoms: C_21  and  N_22 
ROOT
HETATM    1  C   UNL     1       5.046  32.564  60.886  1.00  0.00     0.071 A 
HETATM    2  N   UNL     1       4.180  31.562  60.499  1.00  0.00    -0.274 N 
HETATM    3  H   UNL     1       4.387  30.574  60.402  1.00  0.00     0.189 HD
HETATM    4  N   UNL     1       2.948  31.993  60.161  1.00  0.00    -0.148 NA
HETATM    5  C   UNL     1       3.046  33.301  60.363  1.00  0.00     0.199 A 
HETATM    6  C   UNL     1       4.286  33.721  60.855  1.00  0.00     0.036 A 
HETATM    7  C   UNL     1       4.541  35.164  61.147  1.00  0.00     0.081 C 
HETATM    8  C   UNL     1       3.451  36.015  60.468  1.00  0.00     0.077 C 
HETATM    9  C   UNL     1       3.709  37.413  60.347  1.00  0.00     0.100 C 
HETATM   10  N   UNL     1       3.941  38.544  60.235  1.00  0.00    -0.192 NA
HETATM   11  C   UNL     1       2.293  35.488  59.988  1.00  0.00     0.140 C 
HETATM   12  O   UNL     1       2.028  34.113  60.032  1.00  0.00    -0.277 OA
ENDROOT
BRANCH   7  13
HETATM   13  C   UNL     1       4.657  35.515  62.673  1.00  0.00     0.022 C 
HETATM   14  C   UNL     1       6.063  35.360  63.208  1.00  0.00    -0.025 C 
HETATM   15  C   UNL     1       6.396  34.544  64.219  1.00  0.00    -0.030 C 
HETATM   16  C   UNL     1       5.418  33.653  64.924  1.00  0.00     0.027 C 
HETATM   17  C   UNL     1       4.093  33.503  64.179  1.00  0.00     0.004 C 
HETATM   18  C   UNL     1       3.616  34.830  63.594  1.00  0.00     0.010 C 
ENDBRANCH   7  13
BRANCH  11  19
HETATM   19  N   UNL     1       1.272  36.206  59.404  1.00  0.00    -0.282 NA
HETATM   20  H   UNL     1       1.555  36.910  58.727  1.00  0.00     0.126 HD
HETATM   21  H   UNL     1       0.533  35.597  59.060  1.00  0.00     0.126 HD
ENDBRANCH  11  19
BRANCH   1  22
HETATM   22  C   UNL     1       6.448  32.304  61.187  1.00  0.00    -0.007 A 
HETATM   23  C   UNL     1       7.452  32.724  60.305  1.00  0.00     0.014 A 
HETATM   24  C   UNL     1       8.796  32.467  60.585  1.00  0.00     0.001 A 
HETATM   25  C   UNL     1       9.148  31.784  61.748  1.00  0.00     0.000 A 
HETATM   26  C   UNL     1       8.158  31.358  62.630  1.00  0.00     0.001 A 
HETATM   27  C   UNL     1       6.813  31.616  62.352  1.00  0.00     0.014 A 
ENDBRANCH   1  22
TORSDOF 3
ENDMDL
MODEL 4
REMARK VINA RESULT:      -8.9      2.580      5.355
REMARK  3 active torsions:
REMARK  status: ('A' for Active; 'I' for Inactive)
REMARK    1  A    between atoms: C_4  and  C_5 
REMARK    2  A    between atoms: C_11  and  C_12 
REMARK    3  A    between atoms: C_21  and  N_22 
ROOT
HETATM    1  C   UNL     1       4.840  28.046  53.207  1.00  0.00     0.071 A 
HETATM    2  N   UNL     1       3.616  28.173  53.833  1.00  0.00    -0.274 N 
HETATM    3  H   UNL     1       2.699  28.114  53.406  1.00  0.00     0.189 HD
HETATM    4  N   UNL     1       3.692  28.468  55.146  1.00  0.00    -0.148 NA
HETATM    5  C   UNL     1       5.003  28.506  55.346  1.00  0.00     0.199 A 
HETATM    6  C   UNL     1       5.773  28.209  54.218  1.00  0.00     0.036 A 
HETATM    7  C   UNL     1       7.264  28.198  54.293  1.00  0.00     0.081 C 
HETATM    8  C   UNL     1       7.708  28.913  55.583  1.00  0.00     0.077 C 
HETATM    9  C   UNL     1       9.080  29.300  55.665  1.00  0.00     0.100 C 
HETATM   10  N   UNL     1      10.191  29.628  55.709  1.00  0.00    -0.192 NA
HETATM   11  C   UNL     1       6.857  29.188  56.607  1.00  0.00     0.140 C 
HETATM   12  O   UNL     1       5.492  28.882  56.541  1.00  0.00    -0.277 OA
ENDROOT
BRANCH   7  13
HETATM   13  C   UNL     1       7.916  26.773  54.190  1.00  0.00     0.022 C 
HETATM   14  C   UNL     1       7.987  26.259  52.769  1.00  0.00    -0.025 C 
HETATM   15  C   UNL     1       7.416  25.119  52.354  1.00  0.00    -0.030 C 
HETATM   16  C   UNL     1       6.603  24.226  53.242  1.00  0.00     0.027 C 
HETATM   17  C   UNL     1       6.199  24.889  54.558  1.00  0.00     0.004 C 
HETATM   18  C   UNL     1       7.342  25.707  55.156  1.00  0.00     0.010 C 
ENDBRANCH   7  13
BRANCH  11  19
HETATM   19  N   UNL     1       7.207  29.794  57.795  1.00  0.00    -0.282 NA
HETATM   20  H   UNL     1       7.305  29.176  58.596  1.00  0.00     0.126 HD
HETATM   21  H   UNL     1       8.000  30.423  57.677  1.00  0.00     0.126 HD
ENDBRANCH  11  19
BRANCH   1  22
HETATM   22  C   UNL     1       4.958  27.831  51.771  1.00  0.00    -0.007 A 
HETATM   23  C   UNL     1       5.430  28.855  50.938  1.00  0.00     0.014 A 
HETATM   24  C   UNL     1       5.535  28.656  49.559  1.00  0.00     0.001 A 
HETATM   25  C   UNL     1       5.164  27.435  49.000  1.00  0.00     0.000 A 
HETATM   26  C   UNL     1       4.690  26.412  49.818  1.00  0.00     0.001 A 
HETATM   27  C   UNL     1       4.586  26.608  51.197  1.00  0.00     0.014 A 
ENDBRANCH   1  22
TORSDOF 3
ENDMDL
MODEL 5
REMARK VINA RESULT:      -8.6      9.166     11.535
REMARK  3 active torsions:
REMARK  status: ('A' for Active; 'I' for Inactive)
REMARK    1  A    between atoms: C_4  and  C_5 
REMARK    2  A    between atoms: C_11  and  C_12 
REMARK    3  A    between atoms: C_21  and  N_22 
ROOT
HETATM    1  C   UNL     1       4.534  32.249  62.077  1.00  0.00     0.071 A 
HETATM    2  N   UNL     1       3.761  31.124  62.283  1.00  0.00    -0.274 N 
HETATM    3  H   UNL     1       3.747  30.530  63.105  1.00  0.00     0.189 HD
HETATM    4  N   UNL     1       2.999  30.774  61.229  1.00  0.00    -0.148 NA
HETATM    5  C   UNL     1       3.292  31.721  60.347  1.00  0.00     0.199 A 
HETATM    6  C   UNL     1       4.188  32.689  60.811  1.00  0.00     0.036 A 
HETATM    7  C   UNL     1       4.601  33.827  59.936  1.00  0.00     0.081 C 
HETATM    8  C   UNL     1       4.224  33.503  58.478  1.00  0.00     0.077 C 
HETATM    9  C   UNL     1       4.833  34.302  57.464  1.00  0.00     0.100 C 
HETATM   10  N   UNL     1       5.351  34.944  56.649  1.00  0.00    -0.192 NA
HETATM   11  C   UNL     1       3.366  32.504  58.140  1.00  0.00     0.140 C 
HETATM   12  O   UNL     1       2.796  31.658  59.099  1.00  0.00    -0.277 OA
ENDROOT
BRANCH   7  13
HETATM   13  C   UNL     1       4.030  35.226  60.365  1.00  0.00     0.022 C 
HETATM   14  C   UNL     1       4.932  35.959  61.333  1.00  0.00    -0.025 C 
HETATM   15  C   UNL     1       4.555  36.356  62.557  1.00  0.00    -0.030 C 
HETATM   16  C   UNL     1       3.198  36.090  63.134  1.00  0.00     0.027 C 
HETATM   17  C   UNL     1       2.404  35.044  62.353  1.00  0.00     0.004 C 
HETATM   18  C   UNL     1       2.557  35.225  60.845  1.00  0.00     0.010 C 
ENDBRANCH   7  13
BRANCH  11  19
HETATM   19  N   UNL     1       2.969  32.194  56.856  1.00  0.00    -0.282 NA
HETATM   20  H   UNL     1       2.585  32.963  56.313  1.00  0.00     0.126 HD
HETATM   21  H   UNL     1       3.687  31.672  56.357  1.00  0.00     0.126 HD
ENDBRANCH  11  19
BRANCH   1  22
HETATM   22  C   UNL     1       5.498  32.719  63.064  1.00  0.00    -0.007 A 
HETATM   23  C   UNL     1       6.873  32.640  62.805  1.00  0.00     0.014 A 
HETATM   24  C   UNL     1       7.800  33.081  63.753  1.00  0.00     0.001 A 
HETATM   25  C   UNL     1       7.361  33.600  64.969  1.00  0.00     0.000 A 
HETATM   26  C   UNL     1       5.997  33.679  65.239  1.00  0.00     0.001 A 
HETATM   27  C   UNL     1       5.068  33.240  64.291  1.00  0.00     0.014 A 
ENDBRANCH   1  22
TORSDOF 3
ENDMDL
MODEL 6
REMARK VINA RESULT:      -8.6      2.956      5.714
REMARK  3 active torsions:
REMARK  status: ('A' for Active; 'I' for Inactive)
REMARK    1  A    between atoms: C_4  and  C_5 
REMARK    2  A    between atoms: C_11  and  C_12 
REMARK    3  A    between atoms: C_21  and  N_22 
ROOT
HETATM    1  C   UNL     1       7.625  27.456  57.013  1.00  0.00     0.071 A 
HETATM    2  N   UNL     1       7.597  26.301  57.768  1.00  0.00    -0.274 N 
HETATM    3  H   UNL     1       8.102  26.116  58.627  1.00  0.00     0.189 HD
HETATM    4  N   UNL     1       6.852  25.310  57.239  1.00  0.00    -0.148 NA
HETATM    5  C   UNL     1       6.388  25.873  56.131  1.00  0.00     0.199 A 
HETATM    6  C   UNL     1       6.776  27.204  55.948  1.00  0.00     0.036 A 
HETATM    7  C   UNL     1       6.318  27.974  54.754  1.00  0.00     0.081 C 
HETATM    8  C   UNL     1       5.769  26.992  53.701  1.00  0.00     0.077 C 
HETATM    9  C   UNL     1       5.602  27.497  52.377  1.00  0.00     0.100 C 
HETATM   10  N   UNL     1       5.491  27.913  51.300  1.00  0.00    -0.192 NA
HETATM   11  C   UNL     1       5.461  25.699  53.985  1.00  0.00     0.140 C 
HETATM   12  O   UNL     1       5.668  25.148  55.256  1.00  0.00    -0.277 OA
ENDROOT
BRANCH   7  13
HETATM   13  C   UNL     1       5.273  29.105  55.063  1.00  0.00     0.022 C 
HETATM   14  C   UNL     1       5.921  30.409  55.477  1.00  0.00    -0.025 C 
HETATM   15  C   UNL     1       5.692  31.022  56.647  1.00  0.00    -0.030 C 
HETATM   16  C   UNL     1       4.790  30.472  57.711  1.00  0.00     0.027 C 
HETATM   17  C   UNL     1       4.424  29.006  57.492  1.00  0.00     0.004 C 
HETATM   18  C   UNL     1       4.126  28.706  56.025  1.00  0.00     0.010 C 
ENDBRANCH   7  13
BRANCH  11  19
HETATM   19  N   UNL     1       4.936  24.789  53.092  1.00  0.00    -0.282 NA
HETATM   20  H   UNL     1       4.472  25.184  52.278  1.00  0.00     0.126 HD
HETATM   21  H   UNL     1       5.611  24.065  52.855  1.00  0.00     0.126 HD
ENDBRANCH  11  19
BRANCH   1  22
HETATM   22  C   UNL     1       8.458  28.596  57.371  1.00  0.00    -0.007 A 
HETATM   23  C   UNL     1       8.180  29.343  58.524  1.00  0.00     0.014 A 
HETATM   24  C   UNL     1       8.971  30.444  58.864  1.00  0.00     0.001 A 
HETATM   25  C   UNL     1      10.043  30.810  58.053  1.00  0.00     0.000 A 
HETATM   26  C   UNL     1      10.326  30.078  56.902  1.00  0.00     0.001 A 
HETATM   27  C   UNL     1       9.537  28.976  56.561  1.00  0.00     0.014 A 
ENDBRANCH   1  22
TORSDOF 3
ENDMDL
MODEL 7
REMARK VINA RESULT:      -8.4      2.428      5.404
REMARK  3 active torsions:
REMARK  status: ('A' for Active; 'I' for Inactive)
REMARK    1  A    between atoms: C_4  and  C_5 
REMARK    2  A    between atoms: C_11  and  C_12 
REMARK    3  A    between atoms: C_21  and  N_22 
ROOT
HETATM    1  C   UNL     1       8.210  26.177  57.130  1.00  0.00     0.071 A 
HETATM    2  N   UNL     1       8.370  25.231  58.122  1.00  0.00    -0.274 N 
HETATM    3  H   UNL     1       8.647  25.391  59.085  1.00  0.00     0.189 HD
HETATM    4  N   UNL     1       8.190  23.960  57.712  1.00  0.00    -0.148 NA
HETATM    5  C   UNL     1       7.890  24.122  56.430  1.00  0.00     0.199 A 
HETATM    6  C   UNL     1       7.834  25.454  56.010  1.00  0.00     0.036 A 
HETATM    7  C   UNL     1       7.492  25.794  54.597  1.00  0.00     0.081 C 
HETATM    8  C   UNL     1       7.631  24.530  53.727  1.00  0.00     0.077 C 
HETATM    9  C   UNL     1       7.678  24.723  52.314  1.00  0.00     0.100 C 
HETATM   10  N   UNL     1       7.737  24.896  51.169  1.00  0.00    -0.192 NA
HETATM   11  C   UNL     1       7.718  23.278  54.251  1.00  0.00     0.140 C 
HETATM   12  O   UNL     1       7.738  23.050  55.632  1.00  0.00    -0.277 OA
ENDROOT
BRANCH   7  13
HETATM   13  C   UNL     1       6.081  26.455  54.403  1.00  0.00     0.022 C 
HETATM   14  C   UNL     1       6.139  27.967  54.362  1.00  0.00    -0.025 C 
HETATM   15  C   UNL     1       5.479  28.766  55.213  1.00  0.00    -0.030 C 
HETATM   16  C   UNL     1       4.627  28.259  56.337  1.00  0.00     0.027 C 
HETATM   17  C   UNL     1       4.843  26.778  56.638  1.00  0.00     0.004 C 
HETATM   18  C   UNL     1       4.973  25.951  55.361  1.00  0.00     0.010 C 
ENDBRANCH   7  13
BRANCH  11  19
HETATM   19  N   UNL     1       7.809  22.113  53.520  1.00  0.00    -0.282 NA
HETATM   20  H   UNL     1       8.588  21.502  53.754  1.00  0.00     0.126 HD
HETATM   21  H   UNL     1       6.917  21.624  53.479  1.00  0.00     0.126 HD
ENDBRANCH  11  19
BRANCH   1  22
HETATM   22  C   UNL     1       8.466  27.592  57.359  1.00  0.00    -0.007 A 
HETATM   23  C   UNL     1       9.542  28.230  56.727  1.00  0.00     0.014 A 
HETATM   24  C   UNL     1       9.797  29.585  56.952  1.00  0.00     0.001 A 
HETATM   25  C   UNL     1       8.981  30.313  57.816  1.00  0.00     0.000 A 
HETATM   26  C   UNL     1       7.911  29.689  58.453  1.00  0.00     0.001 A 
HETATM   27  C   UNL     1       7.655  28.335  58.227  1.00  0.00     0.014 A 
ENDBRANCH   1  22
TORSDOF 3
ENDMDL
MODEL 8
REMARK VINA RESULT:      -8.3      1.719      2.366
REMARK  3 active torsions:
REMARK  status: ('A' for Active; 'I' for Inactive)
REMARK    1  A    between atoms: C_4  and  C_5 
REMARK    2  A    between atoms: C_11  and  C_12 
REMARK    3  A    between atoms: C_21  and  N_22 
ROOT
HETATM    1  C   UNL     1       7.228  25.741  55.163  1.00  0.00     0.071 A 
HETATM    2  N   UNL     1       7.837  26.221  56.304  1.00  0.00    -0.274 N 
HETATM    3  H   UNL     1       8.489  25.729  56.906  1.00  0.00     0.189 HD
HETATM    4  N   UNL     1       7.451  27.462  56.660  1.00  0.00    -0.148 NA
HETATM    5  C   UNL     1       6.589  27.770  55.700  1.00  0.00     0.199 A 
HETATM    6  C   UNL     1       6.436  26.787  54.718  1.00  0.00     0.036 A 
HETATM    7  C   UNL     1       5.511  26.998  53.564  1.00  0.00     0.081 C 
HETATM    8  C   UNL     1       4.571  28.176  53.883  1.00  0.00     0.077 C 
HETATM    9  C   UNL     1       3.411  28.312  53.063  1.00  0.00     0.100 C 
HETATM   10  N   UNL     1       2.461  28.398  52.403  1.00  0.00    -0.192 NA
HETATM   11  C   UNL     1       4.800  29.053  54.895  1.00  0.00     0.140 C 
HETATM   12  O   UNL     1       5.893  28.919  55.761  1.00  0.00    -0.277 OA
ENDROOT
BRANCH   7  13
HETATM   13  C   UNL     1       6.225  27.209  52.181  1.00  0.00     0.022 C 
HETATM   14  C   UNL     1       6.019  28.598  51.618  1.00  0.00    -0.025 C 
HETATM   15  C   UNL     1       5.454  28.848  50.428  1.00  0.00    -0.030 C 
HETATM   16  C   UNL     1       4.920  27.782  49.520  1.00  0.00     0.027 C 
HETATM   17  C   UNL     1       4.768  26.426  50.207  1.00  0.00     0.004 C 
HETATM   18  C   UNL     1       5.953  26.114  51.119  1.00  0.00     0.010 C 
ENDBRANCH   7  13
BRANCH  11  19
HETATM   19  N   UNL     1       4.012  30.142  55.202  1.00  0.00    -0.282 NA
HETATM   20  H   UNL     1       3.823  30.783  54.435  1.00  0.00     0.126 HD
HETATM   21  H   UNL     1       3.172  29.866  55.708  1.00  0.00     0.126 HD
ENDBRANCH  11  19
BRANCH   1  22
HETATM   22  C   UNL     1       7.441  24.382  54.683  1.00  0.00    -0.007 A 
HETATM   23  C   UNL     1       7.322  23.294  55.557  1.00  0.00     0.014 A 
HETATM   24  C   UNL     1       7.536  21.991  55.102  1.00  0.00     0.001 A 
HETATM   25  C   UNL     1       7.875  21.764  53.770  1.00  0.00     0.000 A 
HETATM   26  C   UNL     1       7.999  22.838  52.892  1.00  0.00     0.001 A 
HETATM   27  C   UNL     1       7.784  24.142  53.345  1.00  0.00     0.014 A 
ENDBRANCH   1  22
TORSDOF 3
ENDMDL
MODEL 9
REMARK VINA RESULT:      -8.3      4.611      6.566
REMARK  3 active torsions:
REMARK  status: ('A' for Active; 'I' for Inactive)
REMARK    1  A    between atoms: C_4  and  C_5 
REMARK    2  A    between atoms: C_11  and  C_12 
REMARK    3  A    between atoms: C_21  and  N_22 
ROOT
HETATM    1  C   UNL     1       4.972  26.188  50.655  1.00  0.00     0.071 A 
HETATM    2  N   UNL     1       4.076  25.470  49.888  1.00  0.00    -0.274 N 
HETATM    3  H   UNL     1       3.882  24.476  49.940  1.00  0.00     0.189 HD
HETATM    4  N   UNL     1       3.455  26.194  48.937  1.00  0.00    -0.148 NA
HETATM    5  C   UNL     1       3.965  27.403  49.130  1.00  0.00     0.199 A 
HETATM    6  C   UNL     1       4.865  27.491  50.197  1.00  0.00     0.036 A 
HETATM    7  C   UNL     1       5.510  28.792  50.546  1.00  0.00     0.081 C 
HETATM    8  C   UNL     1       5.332  29.773  49.371  1.00  0.00     0.077 C 
HETATM    9  C   UNL     1       6.159  30.935  49.373  1.00  0.00     0.100 C 
HETATM   10  N   UNL     1       6.853  31.865  49.376  1.00  0.00    -0.192 NA
HETATM   11  C   UNL     1       4.447  29.563  48.360  1.00  0.00     0.140 C 
HETATM   12  O   UNL     1       3.662  28.406  48.288  1.00  0.00    -0.277 OA
ENDROOT
BRANCH   7  13
HETATM   13  C   UNL     1       5.011  29.432  51.890  1.00  0.00     0.022 C 
HETATM   14  C   UNL     1       5.859  29.038  53.080  1.00  0.00    -0.025 C 
HETATM   15  C   UNL     1       5.383  28.410  54.165  1.00  0.00    -0.030 C 
HETATM   16  C   UNL     1       3.954  27.987  54.320  1.00  0.00     0.027 C 
HETATM   17  C   UNL     1       3.168  28.026  53.011  1.00  0.00     0.004 C 
HETATM   18  C   UNL     1       3.500  29.267  52.185  1.00  0.00     0.010 C 
ENDBRANCH   7  13
BRANCH  11  19
HETATM   19  N   UNL     1       4.224  30.423  47.305  1.00  0.00    -0.282 NA
HETATM   20  H   UNL     1       4.636  31.348  47.392  1.00  0.00     0.126 HD
HETATM   21  H   UNL     1       4.424  29.979  46.411  1.00  0.00     0.126 HD
ENDBRANCH  11  19
BRANCH   1  22
HETATM   22  C   UNL     1       5.813  25.555  51.662  1.00  0.00    -0.007 A 
HETATM   23  C   UNL     1       5.238  24.956  52.791  1.00  0.00     0.014 A 
HETATM   24  C   UNL     1       6.042  24.357  53.764  1.00  0.00     0.001 A 
HETATM   25  C   UNL     1       7.428  24.356  53.619  1.00  0.00     0.000 A 
HETATM   26  C   UNL     1       8.011  24.952  52.503  1.00  0.00     0.001 A 
HETATM   27  C   UNL     1       7.208  25.549  51.528  1.00  0.00     0.014 A 
ENDBRANCH   1  22
TORSDOF 3
ENDMDL
MODEL 10
REMARK VINA RESULT:      -8.1     10.781     12.590
REMARK  3 active torsions:
REMARK  status: ('A' for Active; 'I' for Inactive)
REMARK    1  A    between atoms: C_4  and  C_5 
REMARK    2  A    between atoms: C_11  and  C_12 
REMARK    3  A    between atoms: C_21  and  N_22 
ROOT
HETATM    1  C   UNL     1       4.310  33.590  61.581  1.00  0.00     0.071 A 
HETATM    2  N   UNL     1       3.255  32.702  61.585  1.00  0.00    -0.274 N 
HETATM    3  H   UNL     1       3.186  31.832  62.103  1.00  0.00     0.189 HD
HETATM    4  N   UNL     1       2.250  33.029  60.749  1.00  0.00    -0.148 NA
HETATM    5  C   UNL     1       2.686  34.167  60.224  1.00  0.00     0.199 A 
HETATM    6  C   UNL     1       3.918  34.602  60.721  1.00  0.00     0.036 A 
HETATM    7  C   UNL     1       4.529  35.875  60.235  1.00  0.00     0.081 C 
HETATM    8  C   UNL     1       3.821  36.311  58.938  1.00  0.00     0.077 C 
HETATM    9  C   UNL     1       4.477  37.303  58.149  1.00  0.00     0.100 C 
HETATM   10  N   UNL     1       5.032  38.094  57.508  1.00  0.00    -0.192 NA
HETATM   11  C   UNL     1       2.636  35.786  58.530  1.00  0.00     0.140 C 
HETATM   12  O   UNL     1       1.990  34.767  59.242  1.00  0.00    -0.277 OA
ENDROOT
BRANCH   7  13
HETATM   13  C   UNL     1       4.539  37.042  61.287  1.00  0.00     0.022 C 
HETATM   14  C   UNL     1       5.816  37.095  62.096  1.00  0.00    -0.025 C 
HETATM   15  C   UNL     1       5.861  36.999  63.433  1.00  0.00    -0.030 C 
HETATM   16  C   UNL     1       4.651  36.792  64.292  1.00  0.00     0.027 C 
HETATM   17  C   UNL     1       3.416  36.363  63.502  1.00  0.00     0.004 C 
HETATM   18  C   UNL     1       3.284  37.133  62.191  1.00  0.00     0.010 C 
ENDBRANCH   7  13
BRANCH  11  19
HETATM   19  N   UNL     1       1.943  36.162  57.399  1.00  0.00    -0.282 NA
HETATM   20  H   UNL     1       1.183  35.548  57.119  1.00  0.00     0.126 HD
HETATM   21  H   UNL     1       1.672  37.143  57.433  1.00  0.00     0.126 HD
ENDBRANCH  11  19
BRANCH   1  22
HETATM   22  C   UNL     1       5.530  33.350  62.341  1.00  0.00    -0.007 A 
HETATM   23  C   UNL     1       6.734  33.073  61.680  1.00  0.00     0.014 A 
HETATM   24  C   UNL     1       7.903  32.832  62.406  1.00  0.00     0.001 A 
HETATM   25  C   UNL     1       7.878  32.861  63.799  1.00  0.00     0.000 A 
HETATM   26  C   UNL     1       6.686  33.131  64.467  1.00  0.00     0.001 A 
HETATM   27  C   UNL     1       5.516  33.374  63.742  1.00  0.00     0.014 A 
ENDBRANCH   1  22
TORSDOF 3
ENDMDL
