MODEL 1
REMARK VINA RESULT:     -10.5      0.000      0.000
REMARK  7 active torsions:
REMARK  status: ('A' for Active; 'I' for Inactive)
REMARK    1  A    between atoms: C_4  and  N_5 
REMARK    2  A    between atoms: N_5  and  C_6 
REMARK    3  A    between atoms: C_6  and  C_7 
REMARK    4  A    between atoms: C_7  and  N_8 
REMARK       I    between atoms: N_8  and  C_9 
REMARK    5  A    between atoms: C_9  and  C_10 
REMARK       I    between atoms: C_10  and  N_11 
REMARK    6  A    between atoms: N_11  and  C_12 
REMARK    7  A    between atoms: N_15  and  C_16 
ROOT
HETATM    1  C   UNL     1       7.240  28.291  57.236  1.00  0.00     0.314 C 
HETATM    2  N   UNL     1       7.928  27.491  56.359  1.00  0.00    -0.313 N 
HETATM    3  O   UNL     1       6.040  28.334  57.467  1.00  0.00    -0.262 OA
HETATM    4  H   UNL     1       8.942  27.636  56.347  1.00  0.00     0.169 HD
ENDROOT
BRANCH   1   5
HETATM    5  C   UNL     1       8.178  29.226  58.033  1.00  0.00     0.309 C 
HETATM    6  N   UNL     1       7.565  29.854  59.093  1.00  0.00    -0.351 N 
HETATM    7  H   UNL     1       6.571  29.675  59.216  1.00  0.00     0.162 HD
HETATM    8  O   UNL     1       9.352  29.333  57.712  1.00  0.00    -0.262 OA
BRANCH   6   9
HETATM    9  C   UNL     1       8.280  30.706  60.019  1.00  0.00     0.142 C 
BRANCH   9  10
HETATM   10  C   UNL     1       7.386  31.757  60.698  1.00  0.00     0.139 C 
BRANCH  10  11
HETATM   11  N   UNL     1       6.907  31.252  61.984  1.00  0.00    -0.388 N 
HETATM   12  H   UNL     1       6.153  30.573  61.906  1.00  0.00     0.159 HD
BRANCH  11  13
HETATM   13  C   UNL     1       6.684  32.129  63.050  1.00  0.00     0.028 A 
HETATM   14  C   UNL     1       5.421  32.601  63.426  1.00  0.00     0.035 A 
HETATM   15  C   UNL     1       5.263  33.535  64.465  1.00  0.00    -0.060 A 
HETATM   16  C   UNL     1       3.900  34.000  64.883  1.00  0.00     0.048 C 
HETATM   17  C   UNL     1       6.395  34.024  65.123  1.00  0.00     0.007 A 
HETATM   18  C   UNL     1       7.663  33.603  64.735  1.00  0.00     0.003 A 
HETATM   19  C   UNL     1       7.802  32.676  63.700  1.00  0.00     0.029 A 
ENDBRANCH  11  13
ENDBRANCH  10  11
ENDBRANCH   9  10
ENDBRANCH   6   9
ENDBRANCH   1   5
BRANCH   2  20
HETATM   20  C   UNL     1       7.481  26.526  55.500  1.00  0.00     0.124 A 
HETATM   21  C   UNL     1       7.649  25.085  55.881  1.00  0.00     0.291 A 
HETATM   22  O   UNL     1       8.201  24.748  56.918  1.00  0.00    -0.264 OA
HETATM   23  N   UNL     1       7.139  24.329  54.824  1.00  0.00    -0.234 N 
HETATM   24  N   UNL     1       6.610  25.209  53.837  1.00  0.00    -0.193 NA
HETATM   25  C   UNL     1       5.224  24.888  53.450  1.00  0.00     0.143 C 
HETATM   26  C   UNL     1       6.884  26.516  54.295  1.00  0.00     0.037 A 
HETATM   27  C   UNL     1       6.493  27.689  53.456  1.00  0.00     0.066 C 
BRANCH  23  28
HETATM   28  C   UNL     1       7.501  22.992  54.519  1.00  0.00     0.055 A 
HETATM   29  C   UNL     1       7.495  22.002  55.511  1.00  0.00     0.031 A 
HETATM   30  C   UNL     1       7.849  20.681  55.215  1.00  0.00     0.002 A 
HETATM   31  C   UNL     1       8.223  20.331  53.921  1.00  0.00     0.000 A 
HETATM   32  C   UNL     1       8.244  21.301  52.923  1.00  0.00     0.002 A 
HETATM   33  C   UNL     1       7.885  22.620  53.221  1.00  0.00     0.031 A 
ENDBRANCH  23  28
ENDBRANCH   2  20
TORSDOF 7
ENDMDL
MODEL 2
REMARK VINA RESULT:      -9.7      1.793      2.834
REMARK  7 active torsions:
REMARK  status: ('A' for Active; 'I' for Inactive)
REMARK    1  A    between atoms: C_4  and  N_5 
REMARK    2  A    between atoms: N_5  and  C_6 
REMARK    3  A    between atoms: C_6  and  C_7 
REMARK    4  A    between atoms: C_7  and  N_8 
REMARK       I    between atoms: N_8  and  C_9 
REMARK    5  A    between atoms: C_9  and  C_10 
REMARK       I    between atoms: C_10  and  N_11 
REMARK    6  A    between atoms: N_11  and  C_12 
REMARK    7  A    between atoms: N_15  and  C_16 
ROOT
HETATM    1  C   UNL     1       9.193  30.238  57.795  1.00  0.00     0.314 C 
HETATM    2  N   UNL     1       7.932  29.698  57.763  1.00  0.00    -0.313 N 
HETATM    3  O   UNL     1      10.077  30.191  56.952  1.00  0.00    -0.262 OA
HETATM    4  H   UNL     1       7.364  29.878  58.596  1.00  0.00     0.169 HD
ENDROOT
BRANCH   1   5
HETATM    5  C   UNL     1       9.457  31.028  59.098  1.00  0.00     0.309 C 
HETATM    6  N   UNL     1       8.926  30.439  60.221  1.00  0.00    -0.351 N 
HETATM    7  H   UNL     1       8.390  29.585  60.078  1.00  0.00     0.162 HD
HETATM    8  O   UNL     1      10.108  32.062  59.064  1.00  0.00    -0.262 OA
BRANCH   6   9
HETATM    9  C   UNL     1       9.128  30.967  61.553  1.00  0.00     0.142 C 
BRANCH   9  10
HETATM   10  C   UNL     1       7.825  31.405  62.242  1.00  0.00     0.139 C 
BRANCH  10  11
HETATM   11  N   UNL     1       8.117  32.370  63.301  1.00  0.00    -0.388 N 
HETATM   12  H   UNL     1       8.888  32.097  63.907  1.00  0.00     0.159 HD
BRANCH  11  13
HETATM   13  C   UNL     1       7.079  32.948  64.039  1.00  0.00     0.028 A 
HETATM   14  C   UNL     1       7.223  33.442  65.341  1.00  0.00     0.035 A 
HETATM   15  C   UNL     1       6.128  33.952  66.060  1.00  0.00    -0.060 A 
HETATM   16  C   UNL     1       6.306  34.516  67.438  1.00  0.00     0.048 C 
HETATM   17  C   UNL     1       4.859  33.942  65.472  1.00  0.00     0.007 A 
HETATM   18  C   UNL     1       4.686  33.412  64.198  1.00  0.00     0.003 A 
HETATM   19  C   UNL     1       5.785  32.910  63.498  1.00  0.00     0.029 A 
ENDBRANCH  11  13
ENDBRANCH  10  11
ENDBRANCH   9  10
ENDBRANCH   6   9
ENDBRANCH   1   5
BRANCH   2  20
HETATM   20  C   UNL     1       7.307  28.960  56.796  1.00  0.00     0.124 A 
HETATM   21  C   UNL     1       7.721  27.533  56.595  1.00  0.00     0.291 A 
HETATM   22  O   UNL     1       8.621  27.020  57.246  1.00  0.00    -0.264 OA
HETATM   23  N   UNL     1       6.952  27.036  55.542  1.00  0.00    -0.234 N 
HETATM   24  N   UNL     1       6.043  28.046  55.115  1.00  0.00    -0.193 NA
HETATM   25  C   UNL     1       4.642  27.589  55.064  1.00  0.00     0.143 C 
HETATM   26  C   UNL     1       6.340  29.188  55.891  1.00  0.00     0.037 A 
HETATM   27  C   UNL     1       5.584  30.456  55.655  1.00  0.00     0.066 C 
BRANCH  23  28
HETATM   28  C   UNL     1       7.305  25.945  54.707  1.00  0.00     0.055 A 
HETATM   29  C   UNL     1       7.355  24.639  55.215  1.00  0.00     0.031 A 
HETATM   30  C   UNL     1       7.701  23.560  54.395  1.00  0.00     0.002 A 
HETATM   31  C   UNL     1       8.011  23.771  53.055  1.00  0.00     0.000 A 
HETATM   32  C   UNL     1       7.976  25.061  52.534  1.00  0.00     0.002 A 
HETATM   33  C   UNL     1       7.626  26.138  53.355  1.00  0.00     0.031 A 
ENDBRANCH  23  28
ENDBRANCH   2  20
TORSDOF 7
ENDMDL
MODEL 3
REMARK VINA RESULT:      -9.6      1.939     11.487
REMARK  7 active torsions:
REMARK  status: ('A' for Active; 'I' for Inactive)
REMARK    1  A    between atoms: C_4  and  N_5 
REMARK    2  A    between atoms: N_5  and  C_6 
REMARK    3  A    between atoms: C_6  and  C_7 
REMARK    4  A    between atoms: C_7  and  N_8 
REMARK       I    between atoms: N_8  and  C_9 
REMARK    5  A    between atoms: C_9  and  C_10 
REMARK       I    between atoms: C_10  and  N_11 
REMARK    6  A    between atoms: N_11  and  C_12 
REMARK    7  A    between atoms: N_15  and  C_16 
ROOT
HETATM    1  C   UNL     1       8.656  31.281  58.941  1.00  0.00     0.314 C 
HETATM    2  N   UNL     1       7.481  31.072  59.617  1.00  0.00    -0.313 N 
HETATM    3  O   UNL     1       9.329  32.298  58.854  1.00  0.00    -0.262 OA
HETATM    4  H   UNL     1       7.105  30.122  59.545  1.00  0.00     0.169 HD
ENDROOT
BRANCH   1   5
HETATM    5  C   UNL     1       9.160  30.001  58.234  1.00  0.00     0.309 C 
HETATM    6  N   UNL     1       8.166  29.088  57.967  1.00  0.00    -0.351 N 
HETATM    7  H   UNL     1       7.231  29.324  58.292  1.00  0.00     0.162 HD
HETATM    8  O   UNL     1      10.341  29.888  57.944  1.00  0.00    -0.262 OA
BRANCH   6   9
HETATM    9  C   UNL     1       8.405  27.861  57.237  1.00  0.00     0.142 C 
BRANCH   9  10
HETATM   10  C   UNL     1       7.624  27.774  55.915  1.00  0.00     0.139 C 
BRANCH  10  11
HETATM   11  N   UNL     1       6.926  26.492  55.828  1.00  0.00    -0.388 N 
HETATM   12  H   UNL     1       6.844  26.006  56.719  1.00  0.00     0.159 HD
BRANCH  11  13
HETATM   13  C   UNL     1       7.215  25.598  54.793  1.00  0.00     0.028 A 
HETATM   14  C   UNL     1       7.346  24.215  54.966  1.00  0.00     0.035 A 
HETATM   15  C   UNL     1       7.703  23.371  53.900  1.00  0.00    -0.060 A 
HETATM   16  C   UNL     1       7.800  21.886  54.090  1.00  0.00     0.048 C 
HETATM   17  C   UNL     1       7.958  23.927  52.642  1.00  0.00     0.007 A 
HETATM   18  C   UNL     1       7.879  25.303  52.461  1.00  0.00     0.003 A 
HETATM   19  C   UNL     1       7.523  26.127  53.530  1.00  0.00     0.029 A 
ENDBRANCH  11  13
ENDBRANCH  10  11
ENDBRANCH   9  10
ENDBRANCH   6   9
ENDBRANCH   1   5
BRANCH   2  20
HETATM   20  C   UNL     1       6.730  31.925  60.377  1.00  0.00     0.124 A 
HETATM   21  C   UNL     1       7.262  32.366  61.708  1.00  0.00     0.291 A 
HETATM   22  O   UNL     1       8.329  31.961  62.147  1.00  0.00    -0.264 OA
HETATM   23  N   UNL     1       6.293  33.197  62.272  1.00  0.00    -0.234 N 
HETATM   24  N   UNL     1       5.218  33.348  61.351  1.00  0.00    -0.193 NA
HETATM   25  C   UNL     1       4.869  34.756  61.086  1.00  0.00     0.143 C 
HETATM   26  C   UNL     1       5.534  32.525  60.248  1.00  0.00     0.037 A 
HETATM   27  C   UNL     1       4.574  32.421  59.107  1.00  0.00     0.066 C 
BRANCH  23  28
HETATM   28  C   UNL     1       6.132  33.450  63.659  1.00  0.00     0.055 A 
HETATM   29  C   UNL     1       4.859  33.467  64.243  1.00  0.00     0.031 A 
HETATM   30  C   UNL     1       4.695  33.715  65.610  1.00  0.00     0.002 A 
HETATM   31  C   UNL     1       5.804  33.957  66.414  1.00  0.00     0.000 A 
HETATM   32  C   UNL     1       7.077  33.954  65.852  1.00  0.00     0.002 A 
HETATM   33  C   UNL     1       7.238  33.702  64.486  1.00  0.00     0.031 A 
ENDBRANCH  23  28
ENDBRANCH   2  20
TORSDOF 7
ENDMDL
MODEL 4
REMARK VINA RESULT:      -9.4      2.378      4.235
REMARK  7 active torsions:
REMARK  status: ('A' for Active; 'I' for Inactive)
REMARK    1  A    between atoms: C_4  and  N_5 
REMARK    2  A    between atoms: N_5  and  C_6 
REMARK    3  A    between atoms: C_6  and  C_7 
REMARK    4  A    between atoms: C_7  and  N_8 
REMARK       I    between atoms: N_8  and  C_9 
REMARK    5  A    between atoms: C_9  and  C_10 
REMARK       I    between atoms: C_10  and  N_11 
REMARK    6  A    between atoms: N_11  and  C_12 
REMARK    7  A    between atoms: N_15  and  C_16 
ROOT
HETATM    1  C   UNL     1       5.133  31.510  57.581  1.00  0.00     0.314 C 
HETATM    2  N   UNL     1       5.635  30.417  58.242  1.00  0.00    -0.313 N 
HETATM    3  O   UNL     1       5.500  32.014  56.529  1.00  0.00    -0.262 OA
HETATM    4  H   UNL     1       5.151  30.181  59.114  1.00  0.00     0.169 HD
ENDROOT
BRANCH   1   5
HETATM    5  C   UNL     1       3.917  32.127  58.310  1.00  0.00     0.309 C 
HETATM    6  N   UNL     1       3.858  31.820  59.649  1.00  0.00    -0.351 N 
HETATM    7  H   UNL     1       4.581  31.198  60.006  1.00  0.00     0.162 HD
HETATM    8  O   UNL     1       3.132  32.835  57.696  1.00  0.00    -0.262 OA
BRANCH   6   9
HETATM    9  C   UNL     1       2.850  32.362  60.534  1.00  0.00     0.142 C 
BRANCH   9  10
HETATM   10  C   UNL     1       3.435  33.093  61.754  1.00  0.00     0.139 C 
BRANCH  10  11
HETATM   11  N   UNL     1       4.060  32.131  62.662  1.00  0.00    -0.388 N 
HETATM   12  H   UNL     1       3.424  31.751  63.361  1.00  0.00     0.159 HD
BRANCH  11  13
HETATM   13  C   UNL     1       5.316  32.394  63.216  1.00  0.00     0.028 A 
HETATM   14  C   UNL     1       5.514  33.083  64.419  1.00  0.00     0.035 A 
HETATM   15  C   UNL     1       6.803  33.378  64.895  1.00  0.00    -0.060 A 
HETATM   16  C   UNL     1       7.000  34.080  66.206  1.00  0.00     0.048 C 
HETATM   17  C   UNL     1       7.916  32.997  64.139  1.00  0.00     0.007 A 
HETATM   18  C   UNL     1       7.740  32.354  62.918  1.00  0.00     0.003 A 
HETATM   19  C   UNL     1       6.452  32.069  62.460  1.00  0.00     0.029 A 
ENDBRANCH  11  13
ENDBRANCH  10  11
ENDBRANCH   9  10
ENDBRANCH   6   9
ENDBRANCH   1   5
BRANCH   2  20
HETATM   20  C   UNL     1       6.673  29.587  57.925  1.00  0.00     0.124 A 
HETATM   21  C   UNL     1       6.414  28.418  57.021  1.00  0.00     0.291 A 
HETATM   22  O   UNL     1       5.299  28.168  56.587  1.00  0.00    -0.264 OA
HETATM   23  N   UNL     1       7.625  27.736  56.892  1.00  0.00    -0.234 N 
HETATM   24  N   UNL     1       8.633  28.439  57.610  1.00  0.00    -0.193 NA
HETATM   25  C   UNL     1       9.832  28.729  56.802  1.00  0.00     0.143 C 
HETATM   26  C   UNL     1       7.980  29.523  58.236  1.00  0.00     0.037 A 
HETATM   27  C   UNL     1       8.759  30.445  59.116  1.00  0.00     0.066 C 
BRANCH  23  28
HETATM   28  C   UNL     1       7.765  26.365  56.552  1.00  0.00     0.055 A 
HETATM   29  C   UNL     1       8.218  25.434  57.497  1.00  0.00     0.031 A 
HETATM   30  C   UNL     1       8.355  24.081  57.167  1.00  0.00     0.002 A 
HETATM   31  C   UNL     1       8.049  23.640  55.884  1.00  0.00     0.000 A 
HETATM   32  C   UNL     1       7.606  24.550  54.929  1.00  0.00     0.002 A 
HETATM   33  C   UNL     1       7.465  25.901  55.262  1.00  0.00     0.031 A 
ENDBRANCH  23  28
ENDBRANCH   2  20
TORSDOF 7
ENDMDL
MODEL 5
REMARK VINA RESULT:      -9.3      2.094     10.710
REMARK  7 active torsions:
REMARK  status: ('A' for Active; 'I' for Inactive)
REMARK    1  A    between atoms: C_4  and  N_5 
REMARK    2  A    between atoms: N_5  and  C_6 
REMARK    3  A    between atoms: C_6  and  C_7 
REMARK    4  A    between atoms: C_7  and  N_8 
REMARK       I    between atoms: N_8  and  C_9 
REMARK    5  A    between atoms: C_9  and  C_10 
REMARK       I    between atoms: C_10  and  N_11 
REMARK    6  A    between atoms: N_11  and  C_12 
REMARK    7  A    between atoms: N_15  and  C_16 
ROOT
HETATM    1  C   UNL     1       5.310  28.510  55.809  1.00  0.00     0.314 C 
HETATM    2  N   UNL     1       6.040  29.625  56.136  1.00  0.00    -0.313 N 
HETATM    3  O   UNL     1       4.343  28.023  56.377  1.00  0.00    -0.262 OA
HETATM    4  H   UNL     1       6.811  29.837  55.496  1.00  0.00     0.169 HD
ENDROOT
BRANCH   1   5
HETATM    5  C   UNL     1       5.820  27.836  54.514  1.00  0.00     0.309 C 
HETATM    6  N   UNL     1       5.001  26.831  54.053  1.00  0.00    -0.351 N 
HETATM    7  H   UNL     1       4.185  26.611  54.621  1.00  0.00     0.162 HD
HETATM    8  O   UNL     1       6.850  28.226  53.987  1.00  0.00    -0.262 OA
BRANCH   6   9
HETATM    9  C   UNL     1       5.247  26.126  52.813  1.00  0.00     0.142 C 
BRANCH   9  10
HETATM   10  C   UNL     1       5.537  24.629  53.007  1.00  0.00     0.139 C 
BRANCH  10  11
HETATM   11  N   UNL     1       6.711  24.452  53.861  1.00  0.00    -0.388 N 
HETATM   12  H   UNL     1       7.448  25.134  53.696  1.00  0.00     0.159 HD
BRANCH  11  13
HETATM   13  C   UNL     1       7.245  23.177  54.073  1.00  0.00     0.028 A 
HETATM   14  C   UNL     1       7.520  22.643  55.338  1.00  0.00     0.035 A 
HETATM   15  C   UNL     1       8.120  21.381  55.489  1.00  0.00    -0.060 A 
HETATM   16  C   UNL     1       8.370  20.804  56.851  1.00  0.00     0.048 C 
HETATM   17  C   UNL     1       8.475  20.650  54.351  1.00  0.00     0.007 A 
HETATM   18  C   UNL     1       8.254  21.183  53.086  1.00  0.00     0.003 A 
HETATM   19  C   UNL     1       7.657  22.439  52.953  1.00  0.00     0.029 A 
ENDBRANCH  11  13
ENDBRANCH  10  11
ENDBRANCH   9  10
ENDBRANCH   6   9
ENDBRANCH   1   5
BRANCH   2  20
HETATM   20  C   UNL     1       5.902  30.503  57.174  1.00  0.00     0.124 A 
HETATM   21  C   UNL     1       7.087  30.774  58.053  1.00  0.00     0.291 A 
HETATM   22  O   UNL     1       8.159  30.211  57.889  1.00  0.00    -0.264 OA
HETATM   23  N   UNL     1       6.661  31.672  59.034  1.00  0.00    -0.234 N 
HETATM   24  N   UNL     1       5.303  32.021  58.785  1.00  0.00    -0.193 NA
HETATM   25  C   UNL     1       5.073  33.477  58.739  1.00  0.00     0.143 C 
HETATM   26  C   UNL     1       4.902  31.252  57.672  1.00  0.00     0.037 A 
HETATM   27  C   UNL     1       3.496  31.351  57.174  1.00  0.00     0.066 C 
BRANCH  23  28
HETATM   28  C   UNL     1       7.255  31.837  60.311  1.00  0.00     0.055 A 
HETATM   29  C   UNL     1       6.469  31.869  61.471  1.00  0.00     0.031 A 
HETATM   30  C   UNL     1       7.051  32.030  62.733  1.00  0.00     0.002 A 
HETATM   31  C   UNL     1       8.429  32.171  62.854  1.00  0.00     0.000 A 
HETATM   32  C   UNL     1       9.228  32.152  61.715  1.00  0.00     0.002 A 
HETATM   33  C   UNL     1       8.644  31.986  60.454  1.00  0.00     0.031 A 
ENDBRANCH  23  28
ENDBRANCH   2  20
TORSDOF 7
ENDMDL
MODEL 6
REMARK VINA RESULT:      -9.2      2.132     10.716
REMARK  7 active torsions:
REMARK  status: ('A' for Active; 'I' for Inactive)
REMARK    1  A    between atoms: C_4  and  N_5 
REMARK    2  A    between atoms: N_5  and  C_6 
REMARK    3  A    between atoms: C_6  and  C_7 
REMARK    4  A    between atoms: C_7  and  N_8 
REMARK       I    between atoms: N_8  and  C_9 
REMARK    5  A    between atoms: C_9  and  C_10 
REMARK       I    between atoms: C_10  and  N_11 
REMARK    6  A    between atoms: N_11  and  C_12 
REMARK    7  A    between atoms: N_15  and  C_16 
ROOT
HETATM    1  C   UNL     1       6.591  28.635  56.051  1.00  0.00     0.314 C 
HETATM    2  N   UNL     1       6.490  29.999  56.167  1.00  0.00    -0.313 N 
HETATM    3  O   UNL     1       6.411  27.771  56.897  1.00  0.00    -0.262 OA
HETATM    4  H   UNL     1       6.686  30.520  55.307  1.00  0.00     0.169 HD
ENDROOT
BRANCH   1   5
HETATM    5  C   UNL     1       6.961  28.196  54.616  1.00  0.00     0.309 C 
HETATM    6  N   UNL     1       5.882  27.792  53.864  1.00  0.00    -0.351 N 
HETATM    7  H   UNL     1       4.978  27.784  54.332  1.00  0.00     0.162 HD
HETATM    8  O   UNL     1       8.123  28.251  54.240  1.00  0.00    -0.262 OA
BRANCH   6   9
HETATM    9  C   UNL     1       5.994  27.421  52.470  1.00  0.00     0.142 C 
BRANCH   9  10
HETATM   10  C   UNL     1       5.933  25.902  52.234  1.00  0.00     0.139 C 
BRANCH  10  11
HETATM   11  N   UNL     1       7.270  25.322  52.353  1.00  0.00    -0.388 N 
HETATM   12  H   UNL     1       7.761  25.232  51.466  1.00  0.00     0.159 HD
BRANCH  11  13
HETATM   13  C   UNL     1       7.486  24.203  53.163  1.00  0.00     0.028 A 
HETATM   14  C   UNL     1       7.845  22.940  52.676  1.00  0.00     0.035 A 
HETATM   15  C   UNL     1       7.984  21.834  53.531  1.00  0.00    -0.060 A 
HETATM   16  C   UNL     1       8.409  20.497  53.000  1.00  0.00     0.048 C 
HETATM   17  C   UNL     1       7.734  21.989  54.898  1.00  0.00     0.007 A 
HETATM   18  C   UNL     1       7.331  23.224  55.395  1.00  0.00     0.003 A 
HETATM   19  C   UNL     1       7.197  24.313  54.532  1.00  0.00     0.029 A 
ENDBRANCH  11  13
ENDBRANCH  10  11
ENDBRANCH   9  10
ENDBRANCH   6   9
ENDBRANCH   1   5
BRANCH   2  20
HETATM   20  C   UNL     1       6.165  30.777  57.243  1.00  0.00     0.124 A 
HETATM   21  C   UNL     1       7.233  31.109  58.243  1.00  0.00     0.291 A 
HETATM   22  O   UNL     1       8.373  30.679  58.142  1.00  0.00    -0.264 OA
HETATM   23  N   UNL     1       6.626  31.879  59.236  1.00  0.00    -0.234 N 
HETATM   24  N   UNL     1       5.263  32.097  58.886  1.00  0.00    -0.193 NA
HETATM   25  C   UNL     1       4.873  33.518  58.913  1.00  0.00     0.143 C 
HETATM   26  C   UNL     1       5.048  31.374  57.693  1.00  0.00     0.037 A 
HETATM   27  C   UNL     1       3.687  31.356  57.076  1.00  0.00     0.066 C 
BRANCH  23  28
HETATM   28  C   UNL     1       7.088  32.012  60.571  1.00  0.00     0.055 A 
HETATM   29  C   UNL     1       8.457  32.120  60.850  1.00  0.00     0.031 A 
HETATM   30  C   UNL     1       8.917  32.255  62.165  1.00  0.00     0.002 A 
HETATM   31  C   UNL     1       8.013  32.274  63.222  1.00  0.00     0.000 A 
HETATM   32  C   UNL     1       6.650  32.159  62.968  1.00  0.00     0.002 A 
HETATM   33  C   UNL     1       6.193  32.030  61.652  1.00  0.00     0.031 A 
ENDBRANCH  23  28
ENDBRANCH   2  20
TORSDOF 7
ENDMDL
MODEL 7
REMARK VINA RESULT:      -9.0      2.089     11.437
REMARK  7 active torsions:
REMARK  status: ('A' for Active; 'I' for Inactive)
REMARK    1  A    between atoms: C_4  and  N_5 
REMARK    2  A    between atoms: N_5  and  C_6 
REMARK    3  A    between atoms: C_6  and  C_7 
REMARK    4  A    between atoms: C_7  and  N_8 
REMARK       I    between atoms: N_8  and  C_9 
REMARK    5  A    between atoms: C_9  and  C_10 
REMARK       I    between atoms: C_10  and  N_11 
REMARK    6  A    between atoms: N_11  and  C_12 
REMARK    7  A    between atoms: N_15  and  C_16 
ROOT
HETATM    1  C   UNL     1       8.307  30.918  58.658  1.00  0.00     0.314 C 
HETATM    2  N   UNL     1       7.383  30.933  59.673  1.00  0.00    -0.313 N 
HETATM    3  O   UNL     1       9.245  31.676  58.453  1.00  0.00    -0.262 OA
HETATM    4  H   UNL     1       6.688  30.182  59.633  1.00  0.00     0.169 HD
ENDROOT
BRANCH   1   5
HETATM    5  C   UNL     1       8.092  29.733  57.688  1.00  0.00     0.309 C 
HETATM    6  N   UNL     1       6.769  29.482  57.406  1.00  0.00    -0.351 N 
HETATM    7  H   UNL     1       6.083  30.061  57.885  1.00  0.00     0.162 HD
HETATM    8  O   UNL     1       9.054  29.134  57.232  1.00  0.00    -0.262 OA
BRANCH   6   9
HETATM    9  C   UNL     1       6.349  28.473  56.457  1.00  0.00     0.142 C 
BRANCH   9  10
HETATM   10  C   UNL     1       6.236  27.066  57.070  1.00  0.00     0.139 C 
BRANCH  10  11
HETATM   11  N   UNL     1       7.552  26.432  57.115  1.00  0.00    -0.388 N 
HETATM   12  H   UNL     1       8.327  27.091  57.141  1.00  0.00     0.159 HD
BRANCH  11  13
HETATM   13  C   UNL     1       7.844  25.347  56.283  1.00  0.00     0.028 A 
HETATM   14  C   UNL     1       7.561  25.313  54.912  1.00  0.00     0.035 A 
HETATM   15  C   UNL     1       7.816  24.168  54.136  1.00  0.00    -0.060 A 
HETATM   16  C   UNL     1       7.546  24.160  52.661  1.00  0.00     0.048 C 
HETATM   17  C   UNL     1       8.339  23.027  54.752  1.00  0.00     0.007 A 
HETATM   18  C   UNL     1       8.583  23.024  56.121  1.00  0.00     0.003 A 
HETATM   19  C   UNL     1       8.324  24.170  56.877  1.00  0.00     0.029 A 
ENDBRANCH  11  13
ENDBRANCH  10  11
ENDBRANCH   9  10
ENDBRANCH   6   9
ENDBRANCH   1   5
BRANCH   2  20
HETATM   20  C   UNL     1       7.242  31.786  60.731  1.00  0.00     0.124 A 
HETATM   21  C   UNL     1       5.908  32.430  60.968  1.00  0.00     0.291 A 
HETATM   22  O   UNL     1       4.955  32.239  60.225  1.00  0.00    -0.264 OA
HETATM   23  N   UNL     1       6.054  33.260  62.080  1.00  0.00    -0.234 N 
HETATM   24  N   UNL     1       7.379  33.129  62.585  1.00  0.00    -0.193 NA
HETATM   25  C   UNL     1       7.427  32.826  64.027  1.00  0.00     0.143 C 
HETATM   26  C   UNL     1       8.046  32.253  61.702  1.00  0.00     0.037 A 
HETATM   27  C   UNL     1       9.490  31.937  61.927  1.00  0.00     0.066 C 
BRANCH  23  28
HETATM   28  C   UNL     1       5.248  34.389  62.375  1.00  0.00     0.055 A 
HETATM   29  C   UNL     1       3.930  34.233  62.825  1.00  0.00     0.031 A 
HETATM   30  C   UNL     1       3.132  35.343  63.121  1.00  0.00     0.002 A 
HETATM   31  C   UNL     1       3.638  36.630  62.962  1.00  0.00     0.000 A 
HETATM   32  C   UNL     1       4.941  36.807  62.507  1.00  0.00     0.002 A 
HETATM   33  C   UNL     1       5.738  35.695  62.217  1.00  0.00     0.031 A 
ENDBRANCH  23  28
ENDBRANCH   2  20
TORSDOF 7
ENDMDL
MODEL 8
REMARK VINA RESULT:      -8.9      2.662      4.593
REMARK  7 active torsions:
REMARK  status: ('A' for Active; 'I' for Inactive)
REMARK    1  A    between atoms: C_4  and  N_5 
REMARK    2  A    between atoms: N_5  and  C_6 
REMARK    3  A    between atoms: C_6  and  C_7 
REMARK    4  A    between atoms: C_7  and  N_8 
REMARK       I    between atoms: N_8  and  C_9 
REMARK    5  A    between atoms: C_9  and  C_10 
REMARK       I    between atoms: C_10  and  N_11 
REMARK    6  A    between atoms: N_11  and  C_12 
REMARK    7  A    between atoms: N_15  and  C_16 
ROOT
HETATM    1  C   UNL     1       6.484  32.009  59.127  1.00  0.00     0.314 C 
HETATM    2  N   UNL     1       7.193  30.836  59.202  1.00  0.00    -0.313 N 
HETATM    3  O   UNL     1       6.111  32.627  58.140  1.00  0.00    -0.262 OA
HETATM    4  H   UNL     1       7.384  30.509  60.154  1.00  0.00     0.169 HD
ENDROOT
BRANCH   1   5
HETATM    5  C   UNL     1       6.115  32.560  60.524  1.00  0.00     0.309 C 
HETATM    6  N   UNL     1       5.256  33.634  60.487  1.00  0.00    -0.351 N 
HETATM    7  H   UNL     1       4.991  33.974  59.565  1.00  0.00     0.162 HD
HETATM    8  O   UNL     1       6.561  32.027  61.529  1.00  0.00    -0.262 OA
BRANCH   6   9
HETATM    9  C   UNL     1       4.718  34.249  61.682  1.00  0.00     0.142 C 
BRANCH   9  10
HETATM   10  C   UNL     1       3.787  33.322  62.481  1.00  0.00     0.139 C 
BRANCH  10  11
HETATM   11  N   UNL     1       4.453  32.874  63.703  1.00  0.00    -0.388 N 
HETATM   12  H   UNL     1       4.194  31.934  63.993  1.00  0.00     0.159 HD
BRANCH  11  13
HETATM   13  C   UNL     1       4.559  33.729  64.805  1.00  0.00     0.028 A 
HETATM   14  C   UNL     1       5.590  33.665  65.750  1.00  0.00     0.035 A 
HETATM   15  C   UNL     1       5.610  34.507  66.875  1.00  0.00    -0.060 A 
HETATM   16  C   UNL     1       6.743  34.456  67.857  1.00  0.00     0.048 C 
HETATM   17  C   UNL     1       4.564  35.414  67.070  1.00  0.00     0.007 A 
HETATM   18  C   UNL     1       3.506  35.461  66.168  1.00  0.00     0.003 A 
HETATM   19  C   UNL     1       3.502  34.616  65.056  1.00  0.00     0.029 A 
ENDBRANCH  11  13
ENDBRANCH  10  11
ENDBRANCH   9  10
ENDBRANCH   6   9
ENDBRANCH   1   5
BRANCH   2  20
HETATM   20  C   UNL     1       7.681  30.030  58.213  1.00  0.00     0.124 A 
HETATM   21  C   UNL     1       6.732  29.126  57.483  1.00  0.00     0.291 A 
HETATM   22  O   UNL     1       5.545  29.066  57.768  1.00  0.00    -0.264 OA
HETATM   23  N   UNL     1       7.494  28.406  56.562  1.00  0.00    -0.234 N 
HETATM   24  N   UNL     1       8.846  28.847  56.631  1.00  0.00    -0.193 NA
HETATM   25  C   UNL     1       9.404  29.228  55.321  1.00  0.00     0.143 C 
HETATM   26  C   UNL     1       8.890  29.800  57.672  1.00  0.00     0.037 A 
HETATM   27  C   UNL     1      10.194  30.433  58.038  1.00  0.00     0.066 C 
BRANCH  23  28
HETATM   28  C   UNL     1       7.144  27.146  56.011  1.00  0.00     0.055 A 
HETATM   29  C   UNL     1       7.648  25.958  56.559  1.00  0.00     0.031 A 
HETATM   30  C   UNL     1       7.304  24.713  56.022  1.00  0.00     0.002 A 
HETATM   31  C   UNL     1       6.457  24.637  54.921  1.00  0.00     0.000 A 
HETATM   32  C   UNL     1       5.953  25.805  54.356  1.00  0.00     0.002 A 
HETATM   33  C   UNL     1       6.295  27.048  54.898  1.00  0.00     0.031 A 
ENDBRANCH  23  28
ENDBRANCH   2  20
TORSDOF 7
ENDMDL
MODEL 9
REMARK VINA RESULT:      -8.7      5.594     10.031
REMARK  7 active torsions:
REMARK  status: ('A' for Active; 'I' for Inactive)
REMARK    1  A    between atoms: C_4  and  N_5 
REMARK    2  A    between atoms: N_5  and  C_6 
REMARK    3  A    between atoms: C_6  and  C_7 
REMARK    4  A    between atoms: C_7  and  N_8 
REMARK       I    between atoms: N_8  and  C_9 
REMARK    5  A    between atoms: C_9  and  C_10 
REMARK       I    between atoms: C_10  and  N_11 
REMARK    6  A    between atoms: N_11  and  C_12 
REMARK    7  A    between atoms: N_15  and  C_16 
ROOT
HETATM    1  C   UNL     1       4.870  28.074  53.466  1.00  0.00     0.314 C 
HETATM    2  N   UNL     1       6.148  27.587  53.578  1.00  0.00    -0.313 N 
HETATM    3  O   UNL     1       3.854  27.723  54.049  1.00  0.00    -0.262 OA
HETATM    4  H   UNL     1       6.840  28.052  52.982  1.00  0.00     0.169 HD
ENDROOT
BRANCH   1   5
HETATM    5  C   UNL     1       4.777  29.248  52.464  1.00  0.00     0.309 C 
HETATM    6  N   UNL     1       5.766  29.241  51.508  1.00  0.00    -0.351 N 
HETATM    7  H   UNL     1       6.466  28.505  51.582  1.00  0.00     0.162 HD
HETATM    8  O   UNL     1       3.867  30.058  52.555  1.00  0.00    -0.262 OA
BRANCH   6   9
HETATM    9  C   UNL     1       5.817  30.200  50.426  1.00  0.00     0.142 C 
BRANCH   9  10
HETATM   10  C   UNL     1       5.132  29.708  49.140  1.00  0.00     0.139 C 
BRANCH  10  11
HETATM   11  N   UNL     1       3.907  28.982  49.470  1.00  0.00    -0.388 N 
HETATM   12  H   UNL     1       3.873  28.645  50.430  1.00  0.00     0.159 HD
BRANCH  11  13
HETATM   13  C   UNL     1       3.386  28.034  48.585  1.00  0.00     0.028 A 
HETATM   14  C   UNL     1       2.186  28.194  47.881  1.00  0.00     0.035 A 
HETATM   15  C   UNL     1       1.676  27.177  47.055  1.00  0.00    -0.060 A 
HETATM   16  C   UNL     1       0.411  27.379  46.275  1.00  0.00     0.048 C 
HETATM   17  C   UNL     1       2.369  25.967  46.951  1.00  0.00     0.007 A 
HETATM   18  C   UNL     1       3.538  25.770  47.679  1.00  0.00     0.003 A 
HETATM   19  C   UNL     1       4.031  26.790  48.495  1.00  0.00     0.029 A 
ENDBRANCH  11  13
ENDBRANCH  10  11
ENDBRANCH   9  10
ENDBRANCH   6   9
ENDBRANCH   1   5
BRANCH   2  20
HETATM   20  C   UNL     1       6.651  26.585  54.360  1.00  0.00     0.124 A 
HETATM   21  C   UNL     1       7.280  25.396  53.695  1.00  0.00     0.291 A 
HETATM   22  O   UNL     1       7.327  25.282  52.479  1.00  0.00    -0.264 OA
HETATM   23  N   UNL     1       7.675  24.529  54.715  1.00  0.00    -0.234 N 
HETATM   24  N   UNL     1       7.385  25.130  55.973  1.00  0.00    -0.193 NA
HETATM   25  C   UNL     1       8.543  25.164  56.885  1.00  0.00     0.143 C 
HETATM   26  C   UNL     1       6.737  26.349  55.680  1.00  0.00     0.037 A 
HETATM   27  C   UNL     1       6.253  27.215  56.799  1.00  0.00     0.066 C 
BRANCH  23  28
HETATM   28  C   UNL     1       7.862  23.129  54.579  1.00  0.00     0.055 A 
HETATM   29  C   UNL     1       7.564  22.258  55.635  1.00  0.00     0.031 A 
HETATM   30  C   UNL     1       7.745  20.877  55.505  1.00  0.00     0.002 A 
HETATM   31  C   UNL     1       8.236  20.346  54.316  1.00  0.00     0.000 A 
HETATM   32  C   UNL     1       8.547  21.194  53.258  1.00  0.00     0.002 A 
HETATM   33  C   UNL     1       8.361  22.575  53.390  1.00  0.00     0.031 A 
ENDBRANCH  23  28
ENDBRANCH   2  20
TORSDOF 7
ENDMDL
MODEL 10
REMARK VINA RESULT:      -8.6      2.136      3.188
REMARK  7 active torsions:
REMARK  status: ('A' for Active; 'I' for Inactive)
REMARK    1  A    between atoms: C_4  and  N_5 
REMARK    2  A    between atoms: N_5  and  C_6 
REMARK    3  A    between atoms: C_6  and  C_7 
REMARK    4  A    between atoms: C_7  and  N_8 
REMARK       I    between atoms: N_8  and  C_9 
REMARK    5  A    between atoms: C_9  and  C_10 
REMARK       I    between atoms: C_10  and  N_11 
REMARK    6  A    between atoms: N_11  and  C_12 
REMARK    7  A    between atoms: N_15  and  C_16 
ROOT
HETATM    1  C   UNL     1       5.942  29.516  56.160  1.00  0.00     0.314 C 
HETATM    2  N   UNL     1       5.221  28.680  55.345  1.00  0.00    -0.313 N 
HETATM    3  O   UNL     1       7.154  29.607  56.298  1.00  0.00    -0.262 OA
HETATM    4  H   UNL     1       4.205  28.796  55.401  1.00  0.00     0.169 HD
ENDROOT
BRANCH   1   5
HETATM    5  C   UNL     1       5.034  30.471  56.969  1.00  0.00     0.309 C 
HETATM    6  N   UNL     1       5.240  31.802  56.690  1.00  0.00    -0.351 N 
HETATM    7  H   UNL     1       5.980  32.019  56.025  1.00  0.00     0.162 HD
HETATM    8  O   UNL     1       4.213  30.016  57.751  1.00  0.00    -0.262 OA
BRANCH   6   9
HETATM    9  C   UNL     1       4.441  32.858  57.273  1.00  0.00     0.142 C 
BRANCH   9  10
HETATM   10  C   UNL     1       5.074  33.483  58.527  1.00  0.00     0.139 C 
BRANCH  10  11
HETATM   11  N   UNL     1       5.185  32.480  59.585  1.00  0.00    -0.388 N 
HETATM   12  H   UNL     1       4.388  32.456  60.217  1.00  0.00     0.159 HD
BRANCH  11  13
HETATM   13  C   UNL     1       6.385  32.320  60.285  1.00  0.00     0.028 A 
HETATM   14  C   UNL     1       6.541  32.600  61.649  1.00  0.00     0.035 A 
HETATM   15  C   UNL     1       7.788  32.485  62.286  1.00  0.00    -0.060 A 
HETATM   16  C   UNL     1       7.931  32.748  63.755  1.00  0.00     0.048 C 
HETATM   17  C   UNL     1       8.907  32.106  61.537  1.00  0.00     0.007 A 
HETATM   18  C   UNL     1       8.784  31.870  60.172  1.00  0.00     0.003 A 
HETATM   19  C   UNL     1       7.537  31.989  59.555  1.00  0.00     0.029 A 
ENDBRANCH  11  13
ENDBRANCH  10  11
ENDBRANCH   9  10
ENDBRANCH   6   9
ENDBRANCH   1   5
BRANCH   2  20
HETATM   20  C   UNL     1       5.638  27.720  54.466  1.00  0.00     0.124 A 
HETATM   21  C   UNL     1       5.935  26.345  54.985  1.00  0.00     0.291 A 
HETATM   22  O   UNL     1       5.847  26.067  56.173  1.00  0.00    -0.264 OA
HETATM   23  N   UNL     1       6.362  25.588  53.893  1.00  0.00    -0.234 N 
HETATM   24  N   UNL     1       6.292  26.388  52.718  1.00  0.00    -0.193 NA
HETATM   25  C   UNL     1       5.539  25.752  51.621  1.00  0.00     0.143 C 
HETATM   26  C   UNL     1       5.882  27.670  53.145  1.00  0.00     0.037 A 
HETATM   27  C   UNL     1       5.753  28.774  52.146  1.00  0.00     0.066 C 
BRANCH  23  28
HETATM   28  C   UNL     1       7.179  24.430  53.964  1.00  0.00     0.055 A 
HETATM   29  C   UNL     1       7.142  23.462  52.950  1.00  0.00     0.031 A 
HETATM   30  C   UNL     1       7.947  22.320  53.014  1.00  0.00     0.002 A 
HETATM   31  C   UNL     1       8.797  22.123  54.098  1.00  0.00     0.000 A 
HETATM   32  C   UNL     1       8.841  23.067  55.119  1.00  0.00     0.002 A 
HETATM   33  C   UNL     1       8.039  24.211  55.051  1.00  0.00     0.031 A 
ENDBRANCH  23  28
ENDBRANCH   2  20
TORSDOF 7
ENDMDL
