MODEL 1
REMARK VINA RESULT:      -9.5      0.000      0.000
REMARK  6 active torsions:
REMARK  status: ('A' for Active; 'I' for Inactive)
REMARK    1  A    between atoms: C_7  and  C_8 
REMARK    2  A    between atoms: C_8  and  O_9 
REMARK    3  A    between atoms: N_12  and  C_13 
REMARK    4  A    between atoms: C_13  and  C_14 
REMARK    5  A    between atoms: C_14  and  C_15 
REMARK    6  A    between atoms: C_15  and  C_16 
ROOT
HETATM    1  C   UNL     1       5.470  27.549  56.288  1.00  0.00     0.199 A 
HETATM    2  C   UNL     1       5.841  26.081  56.654  1.00  0.00     0.269 A 
HETATM    3  O   UNL     1       5.065  25.136  56.718  1.00  0.00    -0.269 OA
HETATM    4  N   UNL     1       7.200  26.069  57.016  1.00  0.00    -0.314 N 
HETATM    5  C   UNL     1       7.760  27.351  56.893  1.00  0.00     0.047 A 
HETATM    6  C   UNL     1       6.789  28.259  56.450  1.00  0.00     0.017 A 
HETATM    7  C   UNL     1       9.055  27.758  57.162  1.00  0.00     0.030 A 
HETATM    8  C   UNL     1       9.373  29.107  56.987  1.00  0.00     0.002 A 
HETATM    9  C   UNL     1       8.401  30.024  56.556  1.00  0.00     0.001 A 
HETATM   10  C   UNL     1       7.098  29.604  56.290  1.00  0.00     0.013 A 
ENDROOT
BRANCH   1  11
HETATM   11  C   UNL     1       4.997  27.767  54.869  1.00  0.00     0.025 A 
HETATM   12  C   UNL     1       4.185  28.811  54.418  1.00  0.00     0.016 A 
HETATM   13  C   UNL     1       3.574  29.964  55.136  1.00  0.00     0.069 C 
HETATM   14  N   UNL     1       3.989  28.650  53.072  1.00  0.00    -0.359 N 
HETATM   15  H   UNL     1       3.438  29.263  52.487  1.00  0.00     0.166 HD
HETATM   16  C   UNL     1       4.666  27.553  52.609  1.00  0.00     0.043 A 
HETATM   17  C   UNL     1       5.306  26.971  53.703  1.00  0.00     0.003 A 
HETATM   18  C   UNL     1       4.756  27.046  51.307  1.00  0.00     0.030 A 
HETATM   19  C   UNL     1       6.082  25.815  53.465  1.00  0.00     0.014 A 
HETATM   20  C   UNL     1       6.186  25.293  52.169  1.00  0.00     0.001 A 
HETATM   21  C   UNL     1       5.531  25.903  51.105  1.00  0.00     0.002 A 
ENDBRANCH   1  11
BRANCH   1  22
HETATM   22  O   UNL     1       4.546  28.029  57.266  1.00  0.00    -0.371 OA
HETATM   23  H   UNL     1       3.893  27.311  57.346  1.00  0.00     0.212 HD
ENDBRANCH   1  22
BRANCH   4  24
HETATM   24  C   UNL     1       7.830  24.943  57.667  1.00  0.00     0.133 C 
BRANCH  24  25
HETATM   25  C   UNL     1       8.682  24.076  56.743  1.00  0.00     0.025 C 
BRANCH  25  26
HETATM   26  C   UNL     1       8.334  22.588  56.827  1.00  0.00     0.040 C 
BRANCH  26  27
HETATM   27  C   UNL     1       8.289  21.943  55.461  1.00  0.00    -0.058 A 
HETATM   28  C   UNL     1       8.652  20.601  55.285  1.00  0.00     0.007 A 
HETATM   29  C   UNL     1       8.639  20.022  54.015  1.00  0.00     0.001 A 
HETATM   30  C   UNL     1       8.254  20.776  52.907  1.00  0.00     0.000 A 
HETATM   31  C   UNL     1       7.878  22.108  53.070  1.00  0.00     0.001 A 
HETATM   32  C   UNL     1       7.894  22.688  54.340  1.00  0.00     0.007 A 
ENDBRANCH  26  27
ENDBRANCH  25  26
ENDBRANCH  24  25
ENDBRANCH   4  24
TORSDOF 6
ENDMDL
MODEL 2
REMARK VINA RESULT:      -9.4      2.638      7.189
REMARK  6 active torsions:
REMARK  status: ('A' for Active; 'I' for Inactive)
REMARK    1  A    between atoms: C_7  and  C_8 
REMARK    2  A    between atoms: C_8  and  O_9 
REMARK    3  A    between atoms: N_12  and  C_13 
REMARK    4  A    between atoms: C_13  and  C_14 
REMARK    5  A    between atoms: C_14  and  C_15 
REMARK    6  A    between atoms: C_15  and  C_16 
ROOT
HETATM    1  C   UNL     1       6.946  25.112  55.751  1.00  0.00     0.199 A 
HETATM    2  C   UNL     1       8.014  25.946  56.520  1.00  0.00     0.269 A 
HETATM    3  O   UNL     1       8.829  25.508  57.323  1.00  0.00    -0.269 OA
HETATM    4  N   UNL     1       7.786  27.301  56.218  1.00  0.00    -0.314 N 
HETATM    5  C   UNL     1       6.719  27.438  55.316  1.00  0.00     0.047 A 
HETATM    6  C   UNL     1       6.197  26.178  54.993  1.00  0.00     0.017 A 
HETATM    7  C   UNL     1       6.179  28.597  54.786  1.00  0.00     0.030 A 
HETATM    8  C   UNL     1       5.090  28.481  53.919  1.00  0.00     0.002 A 
HETATM    9  C   UNL     1       4.555  27.222  53.601  1.00  0.00     0.001 A 
HETATM   10  C   UNL     1       5.105  26.061  54.143  1.00  0.00     0.013 A 
ENDROOT
BRANCH   1  11
HETATM   11  C   UNL     1       7.491  24.125  54.745  1.00  0.00     0.025 A 
HETATM   12  C   UNL     1       7.887  24.409  53.436  1.00  0.00     0.016 A 
HETATM   13  C   UNL     1       7.904  25.686  52.668  1.00  0.00     0.069 C 
HETATM   14  N   UNL     1       8.322  23.247  52.857  1.00  0.00    -0.359 N 
HETATM   15  H   UNL     1       8.666  23.161  51.910  1.00  0.00     0.166 HD
HETATM   16  C   UNL     1       8.256  22.206  53.746  1.00  0.00     0.043 A 
HETATM   17  C   UNL     1       7.738  22.714  54.937  1.00  0.00     0.003 A 
HETATM   18  C   UNL     1       8.621  20.865  53.576  1.00  0.00     0.030 A 
HETATM   19  C   UNL     1       7.584  21.814  56.016  1.00  0.00     0.014 A 
HETATM   20  C   UNL     1       7.945  20.469  55.866  1.00  0.00     0.001 A 
HETATM   21  C   UNL     1       8.457  20.003  54.661  1.00  0.00     0.002 A 
ENDBRANCH   1  11
BRANCH   1  22
HETATM   22  O   UNL     1       6.077  24.511  56.712  1.00  0.00    -0.371 OA
HETATM   23  H   UNL     1       5.847  25.242  57.313  1.00  0.00     0.212 HD
ENDBRANCH   1  22
BRANCH   4  24
HETATM   24  C   UNL     1       8.405  28.383  56.949  1.00  0.00     0.133 C 
BRANCH  24  25
HETATM   25  C   UNL     1       7.583  28.899  58.128  1.00  0.00     0.025 C 
BRANCH  25  26
HETATM   26  C   UNL     1       7.470  30.425  58.158  1.00  0.00     0.040 C 
BRANCH  26  27
HETATM   27  C   UNL     1       7.874  30.993  59.499  1.00  0.00    -0.058 A 
HETATM   28  C   UNL     1       8.995  30.500  60.182  1.00  0.00     0.007 A 
HETATM   29  C   UNL     1       9.341  31.007  61.436  1.00  0.00     0.001 A 
HETATM   30  C   UNL     1       8.578  32.019  62.017  1.00  0.00     0.000 A 
HETATM   31  C   UNL     1       7.469  32.526  61.342  1.00  0.00     0.001 A 
HETATM   32  C   UNL     1       7.119  32.017  60.090  1.00  0.00     0.007 A 
ENDBRANCH  26  27
ENDBRANCH  25  26
ENDBRANCH  24  25
ENDBRANCH   4  24
TORSDOF 6
ENDMDL
MODEL 3
REMARK VINA RESULT:      -9.2     10.514     13.921
REMARK  6 active torsions:
REMARK  status: ('A' for Active; 'I' for Inactive)
REMARK    1  A    between atoms: C_7  and  C_8 
REMARK    2  A    between atoms: C_8  and  O_9 
REMARK    3  A    between atoms: N_12  and  C_13 
REMARK    4  A    between atoms: C_13  and  C_14 
REMARK    5  A    between atoms: C_14  and  C_15 
REMARK    6  A    between atoms: C_15  and  C_16 
ROOT
HETATM    1  C   UNL     1       4.051  35.167  62.610  1.00  0.00     0.199 A 
HETATM    2  C   UNL     1       3.678  34.752  64.065  1.00  0.00     0.269 A 
HETATM    3  O   UNL     1       2.992  33.790  64.387  1.00  0.00    -0.269 OA
HETATM    4  N   UNL     1       4.170  35.750  64.925  1.00  0.00    -0.314 N 
HETATM    5  C   UNL     1       4.847  36.744  64.200  1.00  0.00     0.047 A 
HETATM    6  C   UNL     1       4.822  36.442  62.832  1.00  0.00     0.017 A 
HETATM    7  C   UNL     1       5.458  37.893  64.672  1.00  0.00     0.030 A 
HETATM    8  C   UNL     1       6.051  38.754  63.744  1.00  0.00     0.002 A 
HETATM    9  C   UNL     1       6.019  38.462  62.371  1.00  0.00     0.001 A 
HETATM   10  C   UNL     1       5.397  37.304  61.906  1.00  0.00     0.013 A 
ENDROOT
BRANCH   1  11
HETATM   11  C   UNL     1       4.950  34.205  61.868  1.00  0.00     0.025 A 
HETATM   12  C   UNL     1       4.805  33.794  60.540  1.00  0.00     0.016 A 
HETATM   13  C   UNL     1       3.797  34.150  59.503  1.00  0.00     0.069 C 
HETATM   14  N   UNL     1       5.821  32.923  60.249  1.00  0.00    -0.359 N 
HETATM   15  H   UNL     1       5.960  32.469  59.356  1.00  0.00     0.166 HD
HETATM   16  C   UNL     1       6.651  32.763  61.327  1.00  0.00     0.043 A 
HETATM   17  C   UNL     1       6.137  33.546  62.361  1.00  0.00     0.003 A 
HETATM   18  C   UNL     1       7.811  31.989  61.452  1.00  0.00     0.030 A 
HETATM   19  C   UNL     1       6.840  33.548  63.587  1.00  0.00     0.014 A 
HETATM   20  C   UNL     1       8.003  32.782  63.731  1.00  0.00     0.001 A 
HETATM   21  C   UNL     1       8.481  32.014  62.676  1.00  0.00     0.002 A 
ENDBRANCH   1  11
BRANCH   1  22
HETATM   22  O   UNL     1       2.841  35.457  61.909  1.00  0.00    -0.371 OA
HETATM   23  H   UNL     1       2.929  34.964  61.073  1.00  0.00     0.212 HD
ENDBRANCH   1  22
BRANCH   4  24
HETATM   24  C   UNL     1       3.788  35.846  66.316  1.00  0.00     0.133 C 
BRANCH  24  25
HETATM   25  C   UNL     1       4.948  35.703  67.299  1.00  0.00     0.025 C 
BRANCH  25  26
HETATM   26  C   UNL     1       5.036  34.308  67.923  1.00  0.00     0.040 C 
BRANCH  26  27
HETATM   27  C   UNL     1       6.139  34.221  68.953  1.00  0.00    -0.058 A 
HETATM   28  C   UNL     1       7.308  34.985  68.823  1.00  0.00     0.007 A 
HETATM   29  C   UNL     1       8.336  34.874  69.761  1.00  0.00     0.001 A 
HETATM   30  C   UNL     1       8.204  34.006  70.844  1.00  0.00     0.000 A 
HETATM   31  C   UNL     1       7.041  33.251  70.991  1.00  0.00     0.001 A 
HETATM   32  C   UNL     1       6.015  33.358  70.051  1.00  0.00     0.007 A 
ENDBRANCH  26  27
ENDBRANCH  25  26
ENDBRANCH  24  25
ENDBRANCH   4  24
TORSDOF 6
ENDMDL
MODEL 4
REMARK VINA RESULT:      -9.1      1.943      4.919
REMARK  6 active torsions:
REMARK  status: ('A' for Active; 'I' for Inactive)
REMARK    1  A    between atoms: C_7  and  C_8 
REMARK    2  A    between atoms: C_8  and  O_9 
REMARK    3  A    between atoms: N_12  and  C_13 
REMARK    4  A    between atoms: C_13  and  C_14 
REMARK    5  A    between atoms: C_14  and  C_15 
REMARK    6  A    between atoms: C_15  and  C_16 
ROOT
HETATM    1  C   UNL     1       7.212  28.232  54.982  1.00  0.00     0.199 A 
HETATM    2  C   UNL     1       7.185  26.682  55.141  1.00  0.00     0.269 A 
HETATM    3  O   UNL     1       8.079  25.990  55.612  1.00  0.00    -0.269 OA
HETATM    4  N   UNL     1       6.004  26.219  54.533  1.00  0.00    -0.314 N 
HETATM    5  C   UNL     1       5.247  27.290  54.032  1.00  0.00     0.047 A 
HETATM    6  C   UNL     1       5.904  28.502  54.284  1.00  0.00     0.017 A 
HETATM    7  C   UNL     1       4.038  27.254  53.359  1.00  0.00     0.030 A 
HETATM    8  C   UNL     1       3.486  28.463  52.929  1.00  0.00     0.002 A 
HETATM    9  C   UNL     1       4.146  29.680  53.168  1.00  0.00     0.001 A 
HETATM   10  C   UNL     1       5.365  29.704  53.844  1.00  0.00     0.013 A 
ENDROOT
BRANCH   1  11
HETATM   11  C   UNL     1       7.220  29.019  56.272  1.00  0.00     0.025 A 
HETATM   12  C   UNL     1       6.139  29.201  57.137  1.00  0.00     0.016 A 
HETATM   13  C   UNL     1       4.734  28.709  57.075  1.00  0.00     0.069 C 
HETATM   14  N   UNL     1       6.557  29.971  58.190  1.00  0.00    -0.359 N 
HETATM   15  H   UNL     1       5.977  30.260  58.966  1.00  0.00     0.166 HD
HETATM   16  C   UNL     1       7.886  30.283  58.068  1.00  0.00     0.043 A 
HETATM   17  C   UNL     1       8.335  29.709  56.879  1.00  0.00     0.003 A 
HETATM   18  C   UNL     1       8.709  31.023  58.925  1.00  0.00     0.030 A 
HETATM   19  C   UNL     1       9.696  29.891  56.541  1.00  0.00     0.014 A 
HETATM   20  C   UNL     1      10.536  30.627  57.386  1.00  0.00     0.001 A 
HETATM   21  C   UNL     1      10.047  31.184  58.562  1.00  0.00     0.002 A 
ENDBRANCH   1  11
BRANCH   1  22
HETATM   22  O   UNL     1       8.295  28.569  54.114  1.00  0.00    -0.371 OA
HETATM   23  H   UNL     1       8.848  29.169  54.648  1.00  0.00     0.212 HD
ENDBRANCH   1  22
BRANCH   4  24
HETATM   24  C   UNL     1       5.763  24.822  54.250  1.00  0.00     0.133 C 
BRANCH  24  25
HETATM   25  C   UNL     1       6.231  24.369  52.869  1.00  0.00     0.025 C 
BRANCH  25  26
HETATM   26  C   UNL     1       7.739  24.116  52.800  1.00  0.00     0.040 C 
BRANCH  26  27
HETATM   27  C   UNL     1       8.121  22.806  53.449  1.00  0.00    -0.058 A 
HETATM   28  C   UNL     1       7.830  21.583  52.829  1.00  0.00     0.007 A 
HETATM   29  C   UNL     1       8.156  20.377  53.451  1.00  0.00     0.001 A 
HETATM   30  C   UNL     1       8.785  20.379  54.695  1.00  0.00     0.000 A 
HETATM   31  C   UNL     1       9.092  21.588  55.316  1.00  0.00     0.001 A 
HETATM   32  C   UNL     1       8.762  22.795  54.697  1.00  0.00     0.007 A 
ENDBRANCH  26  27
ENDBRANCH  25  26
ENDBRANCH  24  25
ENDBRANCH   4  24
TORSDOF 6
ENDMDL
MODEL 5
REMARK VINA RESULT:      -9.1      3.472      7.461
REMARK  6 active torsions:
REMARK  status: ('A' for Active; 'I' for Inactive)
REMARK    1  A    between atoms: C_7  and  C_8 
REMARK    2  A    between atoms: C_8  and  O_9 
REMARK    3  A    between atoms: N_12  and  C_13 
REMARK    4  A    between atoms: C_13  and  C_14 
REMARK    5  A    between atoms: C_14  and  C_15 
REMARK    6  A    between atoms: C_15  and  C_16 
ROOT
HETATM    1  C   UNL     1       7.280  28.337  55.509  1.00  0.00     0.199 A 
HETATM    2  C   UNL     1       6.101  28.841  56.395  1.00  0.00     0.269 A 
HETATM    3  O   UNL     1       4.910  28.635  56.196  1.00  0.00    -0.269 OA
HETATM    4  N   UNL     1       6.649  29.673  57.388  1.00  0.00    -0.314 N 
HETATM    5  C   UNL     1       8.046  29.738  57.270  1.00  0.00     0.047 A 
HETATM    6  C   UNL     1       8.474  28.955  56.189  1.00  0.00     0.017 A 
HETATM    7  C   UNL     1       8.947  30.453  58.040  1.00  0.00     0.030 A 
HETATM    8  C   UNL     1      10.302  30.380  57.709  1.00  0.00     0.002 A 
HETATM    9  C   UNL     1      10.736  29.607  56.620  1.00  0.00     0.001 A 
HETATM   10  C   UNL     1       9.819  28.892  55.848  1.00  0.00     0.013 A 
ENDROOT
BRANCH   1  11
HETATM   11  C   UNL     1       7.483  26.839  55.486  1.00  0.00     0.025 A 
HETATM   12  C   UNL     1       7.584  26.000  56.599  1.00  0.00     0.016 A 
HETATM   13  C   UNL     1       7.521  26.289  58.059  1.00  0.00     0.069 C 
HETATM   14  N   UNL     1       7.760  24.717  56.153  1.00  0.00    -0.359 N 
HETATM   15  H   UNL     1       7.864  23.905  56.746  1.00  0.00     0.166 HD
HETATM   16  C   UNL     1       7.751  24.671  54.784  1.00  0.00     0.043 A 
HETATM   17  C   UNL     1       7.585  25.979  54.329  1.00  0.00     0.003 A 
HETATM   18  C   UNL     1       7.876  23.570  53.929  1.00  0.00     0.030 A 
HETATM   19  C   UNL     1       7.537  26.182  52.931  1.00  0.00     0.014 A 
HETATM   20  C   UNL     1       7.657  25.092  52.059  1.00  0.00     0.001 A 
HETATM   21  C   UNL     1       7.824  23.804  52.554  1.00  0.00     0.002 A 
ENDBRANCH   1  11
BRANCH   1  22
HETATM   22  O   UNL     1       7.127  28.901  54.206  1.00  0.00    -0.371 OA
HETATM   23  H   UNL     1       7.949  29.406  54.070  1.00  0.00     0.212 HD
ENDBRANCH   1  22
BRANCH   4  24
HETATM   24  C   UNL     1       5.842  30.530  58.226  1.00  0.00     0.133 C 
BRANCH  24  25
HETATM   25  C   UNL     1       6.515  31.843  58.620  1.00  0.00     0.025 C 
BRANCH  25  26
HETATM   26  C   UNL     1       5.782  32.580  59.744  1.00  0.00     0.040 C 
BRANCH  26  27
HETATM   27  C   UNL     1       6.590  32.603  61.021  1.00  0.00    -0.058 A 
HETATM   28  C   UNL     1       7.725  31.794  61.171  1.00  0.00     0.007 A 
HETATM   29  C   UNL     1       8.446  31.797  62.366  1.00  0.00     0.001 A 
HETATM   30  C   UNL     1       8.047  32.615  63.422  1.00  0.00     0.000 A 
HETATM   31  C   UNL     1       6.928  33.435  63.280  1.00  0.00     0.001 A 
HETATM   32  C   UNL     1       6.204  33.429  62.087  1.00  0.00     0.007 A 
ENDBRANCH  26  27
ENDBRANCH  25  26
ENDBRANCH  24  25
ENDBRANCH   4  24
TORSDOF 6
ENDMDL
MODEL 6
REMARK VINA RESULT:      -9.1      3.432      7.399
REMARK  6 active torsions:
REMARK  status: ('A' for Active; 'I' for Inactive)
REMARK    1  A    between atoms: C_7  and  C_8 
REMARK    2  A    between atoms: C_8  and  O_9 
REMARK    3  A    between atoms: N_12  and  C_13 
REMARK    4  A    between atoms: C_13  and  C_14 
REMARK    5  A    between atoms: C_14  and  C_15 
REMARK    6  A    between atoms: C_15  and  C_16 
ROOT
HETATM    1  C   UNL     1       7.173  26.794  56.598  1.00  0.00     0.199 A 
HETATM    2  C   UNL     1       8.368  27.694  57.035  1.00  0.00     0.269 A 
HETATM    3  O   UNL     1       9.491  27.308  57.331  1.00  0.00    -0.269 OA
HETATM    4  N   UNL     1       7.882  29.010  57.145  1.00  0.00    -0.314 N 
HETATM    5  C   UNL     1       6.523  29.072  56.797  1.00  0.00     0.047 A 
HETATM    6  C   UNL     1       6.058  27.796  56.449  1.00  0.00     0.017 A 
HETATM    7  C   UNL     1       5.682  30.171  56.787  1.00  0.00     0.030 A 
HETATM    8  C   UNL     1       4.347  29.977  56.424  1.00  0.00     0.002 A 
HETATM    9  C   UNL     1       3.872  28.699  56.087  1.00  0.00     0.001 A 
HETATM   10  C   UNL     1       4.728  27.597  56.103  1.00  0.00     0.013 A 
ENDROOT
BRANCH   1  11
HETATM   11  C   UNL     1       7.342  26.086  55.273  1.00  0.00     0.025 A 
HETATM   12  C   UNL     1       7.437  26.692  54.018  1.00  0.00     0.016 A 
HETATM   13  C   UNL     1       7.413  28.125  53.611  1.00  0.00     0.069 C 
HETATM   14  N   UNL     1       7.583  25.707  53.077  1.00  0.00    -0.359 N 
HETATM   15  H   UNL     1       7.674  25.862  52.083  1.00  0.00     0.166 HD
HETATM   16  C   UNL     1       7.617  24.471  53.667  1.00  0.00     0.043 A 
HETATM   17  C   UNL     1       7.464  24.666  55.040  1.00  0.00     0.003 A 
HETATM   18  C   UNL     1       7.774  23.208  53.082  1.00  0.00     0.030 A 
HETATM   19  C   UNL     1       7.476  23.519  55.866  1.00  0.00     0.014 A 
HETATM   20  C   UNL     1       7.633  22.247  55.300  1.00  0.00     0.001 A 
HETATM   21  C   UNL     1       7.781  22.097  53.926  1.00  0.00     0.002 A 
ENDBRANCH   1  11
BRANCH   1  22
HETATM   22  O   UNL     1       6.874  25.903  57.674  1.00  0.00    -0.371 OA
HETATM   23  H   UNL     1       5.954  25.629  57.505  1.00  0.00     0.212 HD
ENDBRANCH   1  22
BRANCH   4  24
HETATM   24  C   UNL     1       8.629  30.072  57.780  1.00  0.00     0.133 C 
BRANCH  24  25
HETATM   25  C   UNL     1       8.340  30.244  59.269  1.00  0.00     0.025 C 
BRANCH  25  26
HETATM   26  C   UNL     1       9.050  31.454  59.882  1.00  0.00     0.040 C 
BRANCH  26  27
HETATM   27  C   UNL     1       8.268  32.039  61.036  1.00  0.00    -0.058 A 
HETATM   28  C   UNL     1       8.760  31.972  62.347  1.00  0.00     0.007 A 
HETATM   29  C   UNL     1       8.017  32.486  63.411  1.00  0.00     0.001 A 
HETATM   30  C   UNL     1       6.778  33.080  63.177  1.00  0.00     0.000 A 
HETATM   31  C   UNL     1       6.284  33.164  61.876  1.00  0.00     0.001 A 
HETATM   32  C   UNL     1       7.024  32.647  60.812  1.00  0.00     0.007 A 
ENDBRANCH  26  27
ENDBRANCH  25  26
ENDBRANCH  24  25
ENDBRANCH   4  24
TORSDOF 6
ENDMDL
MODEL 7
REMARK VINA RESULT:      -8.9      1.867      6.640
REMARK  6 active torsions:
REMARK  status: ('A' for Active; 'I' for Inactive)
REMARK    1  A    between atoms: C_7  and  C_8 
REMARK    2  A    between atoms: C_8  and  O_9 
REMARK    3  A    between atoms: N_12  and  C_13 
REMARK    4  A    between atoms: C_13  and  C_14 
REMARK    5  A    between atoms: C_14  and  C_15 
REMARK    6  A    between atoms: C_15  and  C_16 
ROOT
HETATM    1  C   UNL     1       6.820  25.141  55.514  1.00  0.00     0.199 A 
HETATM    2  C   UNL     1       7.833  26.072  56.245  1.00  0.00     0.269 A 
HETATM    3  O   UNL     1       8.634  25.731  57.106  1.00  0.00    -0.269 OA
HETATM    4  N   UNL     1       7.572  27.388  55.823  1.00  0.00    -0.314 N 
HETATM    5  C   UNL     1       6.533  27.413  54.879  1.00  0.00     0.047 A 
HETATM    6  C   UNL     1       6.064  26.113  54.646  1.00  0.00     0.017 A 
HETATM    7  C   UNL     1       5.974  28.505  54.238  1.00  0.00     0.030 A 
HETATM    8  C   UNL     1       4.920  28.279  53.349  1.00  0.00     0.002 A 
HETATM    9  C   UNL     1       4.438  26.980  53.120  1.00  0.00     0.001 A 
HETATM   10  C   UNL     1       5.006  25.888  53.775  1.00  0.00     0.013 A 
ENDROOT
BRANCH   1  11
HETATM   11  C   UNL     1       7.432  24.093  54.612  1.00  0.00     0.025 A 
HETATM   12  C   UNL     1       7.894  24.291  53.308  1.00  0.00     0.016 A 
HETATM   13  C   UNL     1       7.935  25.510  52.452  1.00  0.00     0.069 C 
HETATM   14  N   UNL     1       8.374  23.098  52.839  1.00  0.00    -0.359 N 
HETATM   15  H   UNL     1       8.770  22.951  51.920  1.00  0.00     0.166 HD
HETATM   16  C   UNL     1       8.275  22.122  53.795  1.00  0.00     0.043 A 
HETATM   17  C   UNL     1       7.686  22.704  54.918  1.00  0.00     0.003 A 
HETATM   18  C   UNL     1       8.666  20.778  53.741  1.00  0.00     0.030 A 
HETATM   19  C   UNL     1       7.487  21.881  56.049  1.00  0.00     0.014 A 
HETATM   20  C   UNL     1       7.873  20.535  56.016  1.00  0.00     0.001 A 
HETATM   21  C   UNL     1       8.455  19.993  54.876  1.00  0.00     0.002 A 
ENDBRANCH   1  11
BRANCH   1  22
HETATM   22  O   UNL     1       5.939  24.590  56.494  1.00  0.00    -0.371 OA
HETATM   23  H   UNL     1       5.050  24.744  56.125  1.00  0.00     0.212 HD
ENDBRANCH   1  22
BRANCH   4  24
HETATM   24  C   UNL     1       8.130  28.548  56.481  1.00  0.00     0.133 C 
BRANCH  24  25
HETATM   25  C   UNL     1       7.541  28.835  57.860  1.00  0.00     0.025 C 
BRANCH  25  26
HETATM   26  C   UNL     1       7.028  30.270  58.007  1.00  0.00     0.040 C 
BRANCH  26  27
HETATM   27  C   UNL     1       5.742  30.488  57.243  1.00  0.00    -0.058 A 
HETATM   28  C   UNL     1       4.657  29.613  57.394  1.00  0.00     0.007 A 
HETATM   29  C   UNL     1       3.485  29.803  56.660  1.00  0.00     0.001 A 
HETATM   30  C   UNL     1       3.380  30.874  55.774  1.00  0.00     0.000 A 
HETATM   31  C   UNL     1       4.447  31.759  55.625  1.00  0.00     0.001 A 
HETATM   32  C   UNL     1       5.621  31.567  56.355  1.00  0.00     0.007 A 
ENDBRANCH  26  27
ENDBRANCH  25  26
ENDBRANCH  24  25
ENDBRANCH   4  24
TORSDOF 6
ENDMDL
MODEL 8
REMARK VINA RESULT:      -8.9      2.484      5.442
REMARK  6 active torsions:
REMARK  status: ('A' for Active; 'I' for Inactive)
REMARK    1  A    between atoms: C_7  and  C_8 
REMARK    2  A    between atoms: C_8  and  O_9 
REMARK    3  A    between atoms: N_12  and  C_13 
REMARK    4  A    between atoms: C_13  and  C_14 
REMARK    5  A    between atoms: C_14  and  C_15 
REMARK    6  A    between atoms: C_15  and  C_16 
ROOT
HETATM    1  C   UNL     1       8.015  28.937  56.585  1.00  0.00     0.199 A 
HETATM    2  C   UNL     1       7.912  27.475  57.112  1.00  0.00     0.269 A 
HETATM    3  O   UNL     1       8.851  26.745  57.404  1.00  0.00    -0.269 OA
HETATM    4  N   UNL     1       6.554  27.110  57.073  1.00  0.00    -0.314 N 
HETATM    5  C   UNL     1       5.764  28.176  56.616  1.00  0.00     0.047 A 
HETATM    6  C   UNL     1       6.572  29.285  56.330  1.00  0.00     0.017 A 
HETATM    7  C   UNL     1       4.394  28.217  56.423  1.00  0.00     0.030 A 
HETATM    8  C   UNL     1       3.831  29.396  55.929  1.00  0.00     0.002 A 
HETATM    9  C   UNL     1       4.638  30.507  55.629  1.00  0.00     0.001 A 
HETATM   10  C   UNL     1       6.018  30.454  55.823  1.00  0.00     0.013 A 
ENDROOT
BRANCH   1  11
HETATM   11  C   UNL     1       8.569  29.945  57.566  1.00  0.00     0.025 A 
HETATM   12  C   UNL     1       9.915  30.278  57.740  1.00  0.00     0.016 A 
HETATM   13  C   UNL     1      11.146  29.787  57.061  1.00  0.00     0.069 C 
HETATM   14  N   UNL     1       9.997  31.231  58.720  1.00  0.00    -0.359 N 
HETATM   15  H   UNL     1      10.854  31.652  59.051  1.00  0.00     0.166 HD
HETATM   16  C   UNL     1       8.751  31.564  59.182  1.00  0.00     0.043 A 
HETATM   17  C   UNL     1       7.831  30.778  58.488  1.00  0.00     0.003 A 
HETATM   18  C   UNL     1       8.382  32.500  60.156  1.00  0.00     0.030 A 
HETATM   19  C   UNL     1       6.463  30.954  58.794  1.00  0.00     0.014 A 
HETATM   20  C   UNL     1       6.074  31.887  59.763  1.00  0.00     0.001 A 
HETATM   21  C   UNL     1       7.023  32.649  60.434  1.00  0.00     0.002 A 
ENDBRANCH   1  11
BRANCH   1  22
HETATM   22  O   UNL     1       8.727  28.912  55.347  1.00  0.00    -0.371 OA
HETATM   23  H   UNL     1       8.530  29.777  54.944  1.00  0.00     0.212 HD
ENDBRANCH   1  22
BRANCH   4  24
HETATM   24  C   UNL     1       6.102  25.746  57.234  1.00  0.00     0.133 C 
BRANCH  24  25
HETATM   25  C   UNL     1       6.415  24.834  56.050  1.00  0.00     0.025 C 
BRANCH  25  26
HETATM   26  C   UNL     1       7.549  23.846  56.337  1.00  0.00     0.040 C 
BRANCH  26  27
HETATM   27  C   UNL     1       7.673  22.802  55.252  1.00  0.00    -0.058 A 
HETATM   28  C   UNL     1       7.785  21.441  55.571  1.00  0.00     0.007 A 
HETATM   29  C   UNL     1       7.933  20.486  54.565  1.00  0.00     0.001 A 
HETATM   30  C   UNL     1       7.961  20.877  53.227  1.00  0.00     0.000 A 
HETATM   31  C   UNL     1       7.837  22.226  52.896  1.00  0.00     0.001 A 
HETATM   32  C   UNL     1       7.693  23.182  53.902  1.00  0.00     0.007 A 
ENDBRANCH  26  27
ENDBRANCH  25  26
ENDBRANCH  24  25
ENDBRANCH   4  24
TORSDOF 6
ENDMDL
MODEL 9
REMARK VINA RESULT:      -8.9      9.791     13.169
REMARK  6 active torsions:
REMARK  status: ('A' for Active; 'I' for Inactive)
REMARK    1  A    between atoms: C_7  and  C_8 
REMARK    2  A    between atoms: C_8  and  O_9 
REMARK    3  A    between atoms: N_12  and  C_13 
REMARK    4  A    between atoms: C_13  and  C_14 
REMARK    5  A    between atoms: C_14  and  C_15 
REMARK    6  A    between atoms: C_15  and  C_16 
ROOT
HETATM    1  C   UNL     1       4.738  33.916  64.244  1.00  0.00     0.199 A 
HETATM    2  C   UNL     1       3.676  33.608  63.147  1.00  0.00     0.269 A 
HETATM    3  O   UNL     1       2.472  33.819  63.230  1.00  0.00    -0.269 OA
HETATM    4  N   UNL     1       4.335  32.935  62.103  1.00  0.00    -0.314 N 
HETATM    5  C   UNL     1       5.705  32.803  62.380  1.00  0.00     0.047 A 
HETATM    6  C   UNL     1       6.001  33.380  63.623  1.00  0.00     0.017 A 
HETATM    7  C   UNL     1       6.687  32.196  61.617  1.00  0.00     0.030 A 
HETATM    8  C   UNL     1       7.990  32.166  62.120  1.00  0.00     0.002 A 
HETATM    9  C   UNL     1       8.291  32.731  63.370  1.00  0.00     0.001 A 
HETATM   10  C   UNL     1       7.293  33.338  64.133  1.00  0.00     0.013 A 
ENDROOT
BRANCH   1  11
HETATM   11  C   UNL     1       4.957  35.381  64.547  1.00  0.00     0.025 A 
HETATM   12  C   UNL     1       4.803  36.002  65.789  1.00  0.00     0.016 A 
HETATM   13  C   UNL     1       4.409  35.459  67.119  1.00  0.00     0.069 C 
HETATM   14  N   UNL     1       5.096  37.331  65.643  1.00  0.00    -0.359 N 
HETATM   15  H   UNL     1       5.065  38.019  66.383  1.00  0.00     0.166 HD
HETATM   16  C   UNL     1       5.467  37.610  64.354  1.00  0.00     0.043 A 
HETATM   17  C   UNL     1       5.389  36.416  63.636  1.00  0.00     0.003 A 
HETATM   18  C   UNL     1       5.866  38.825  63.784  1.00  0.00     0.030 A 
HETATM   19  C   UNL     1       5.738  36.455  62.267  1.00  0.00     0.014 A 
HETATM   20  C   UNL     1       6.141  37.661  61.679  1.00  0.00     0.001 A 
HETATM   21  C   UNL     1       6.204  38.829  62.430  1.00  0.00     0.002 A 
ENDBRANCH   1  11
BRANCH   1  22
HETATM   22  O   UNL     1       4.413  33.148  65.404  1.00  0.00    -0.371 OA
HETATM   23  H   UNL     1       3.444  33.050  65.357  1.00  0.00     0.212 HD
ENDBRANCH   1  22
BRANCH   4  24
HETATM   24  C   UNL     1       3.631  32.258  61.037  1.00  0.00     0.133 C 
BRANCH  24  25
HETATM   25  C   UNL     1       3.096  33.184  59.946  1.00  0.00     0.025 C 
BRANCH  25  26
HETATM   26  C   UNL     1       4.180  34.073  59.331  1.00  0.00     0.040 C 
BRANCH  26  27
HETATM   27  C   UNL     1       3.792  35.534  59.361  1.00  0.00    -0.058 A 
HETATM   28  C   UNL     1       4.308  36.435  58.419  1.00  0.00     0.007 A 
HETATM   29  C   UNL     1       3.971  37.789  58.475  1.00  0.00     0.001 A 
HETATM   30  C   UNL     1       3.108  38.255  59.465  1.00  0.00     0.000 A 
HETATM   31  C   UNL     1       2.578  37.366  60.399  1.00  0.00     0.001 A 
HETATM   32  C   UNL     1       2.917  36.013  60.347  1.00  0.00     0.007 A 
ENDBRANCH  26  27
ENDBRANCH  25  26
ENDBRANCH  24  25
ENDBRANCH   4  24
TORSDOF 6
ENDMDL
MODEL 10
REMARK VINA RESULT:      -8.8      3.812      7.814
REMARK  6 active torsions:
REMARK  status: ('A' for Active; 'I' for Inactive)
REMARK    1  A    between atoms: C_7  and  C_8 
REMARK    2  A    between atoms: C_8  and  O_9 
REMARK    3  A    between atoms: N_12  and  C_13 
REMARK    4  A    between atoms: C_13  and  C_14 
REMARK    5  A    between atoms: C_14  and  C_15 
REMARK    6  A    between atoms: C_15  and  C_16 
ROOT
HETATM    1  C   UNL     1       6.611  29.026  55.995  1.00  0.00     0.199 A 
HETATM    2  C   UNL     1       6.037  29.445  57.382  1.00  0.00     0.269 A 
HETATM    3  O   UNL     1       4.854  29.469  57.696  1.00  0.00    -0.269 OA
HETATM    4  N   UNL     1       7.115  29.905  58.160  1.00  0.00    -0.314 N 
HETATM    5  C   UNL     1       8.323  29.800  57.452  1.00  0.00     0.047 A 
HETATM    6  C   UNL     1       8.086  29.271  56.175  1.00  0.00     0.017 A 
HETATM    7  C   UNL     1       9.597  30.156  57.858  1.00  0.00     0.030 A 
HETATM    8  C   UNL     1      10.650  29.980  56.956  1.00  0.00     0.002 A 
HETATM    9  C   UNL     1      10.418  29.462  55.671  1.00  0.00     0.001 A 
HETATM   10  C   UNL     1       9.129  29.110  55.271  1.00  0.00     0.013 A 
ENDROOT
BRANCH   1  11
HETATM   11  C   UNL     1       6.424  27.573  55.625  1.00  0.00     0.025 A 
HETATM   12  C   UNL     1       5.591  27.076  54.620  1.00  0.00     0.016 A 
HETATM   13  C   UNL     1       4.690  27.767  53.655  1.00  0.00     0.069 C 
HETATM   14  N   UNL     1       5.708  25.711  54.603  1.00  0.00    -0.359 N 
HETATM   15  H   UNL     1       5.214  25.093  53.973  1.00  0.00     0.166 HD
HETATM   16  C   UNL     1       6.611  25.287  55.542  1.00  0.00     0.043 A 
HETATM   17  C   UNL     1       7.077  26.422  56.205  1.00  0.00     0.003 A 
HETATM   18  C   UNL     1       7.042  23.990  55.842  1.00  0.00     0.030 A 
HETATM   19  C   UNL     1       8.037  26.232  57.226  1.00  0.00     0.014 A 
HETATM   20  C   UNL     1       8.482  24.941  57.539  1.00  0.00     0.001 A 
HETATM   21  C   UNL     1       7.990  23.836  56.855  1.00  0.00     0.002 A 
ENDBRANCH   1  11
BRANCH   1  22
HETATM   22  O   UNL     1       6.094  29.925  55.013  1.00  0.00    -0.371 OA
HETATM   23  H   UNL     1       5.251  29.518  54.741  1.00  0.00     0.212 HD
ENDBRANCH   1  22
BRANCH   4  24
HETATM   24  C   UNL     1       6.938  30.620  59.403  1.00  0.00     0.133 C 
BRANCH  24  25
HETATM   25  C   UNL     1       7.282  32.106  59.331  1.00  0.00     0.025 C 
BRANCH  25  26
HETATM   26  C   UNL     1       8.337  32.528  60.356  1.00  0.00     0.040 C 
BRANCH  26  27
HETATM   27  C   UNL     1       7.717  32.882  61.689  1.00  0.00    -0.058 A 
HETATM   28  C   UNL     1       8.336  32.514  62.892  1.00  0.00     0.007 A 
HETATM   29  C   UNL     1       7.740  32.816  64.118  1.00  0.00     0.001 A 
HETATM   30  C   UNL     1       6.524  33.496  64.156  1.00  0.00     0.000 A 
HETATM   31  C   UNL     1       5.905  33.878  62.967  1.00  0.00     0.001 A 
HETATM   32  C   UNL     1       6.498  33.574  61.740  1.00  0.00     0.007 A 
ENDBRANCH  26  27
ENDBRANCH  25  26
ENDBRANCH  24  25
ENDBRANCH   4  24
TORSDOF 6
ENDMDL
