MODEL 1
REMARK VINA RESULT:      -9.7      0.000      0.000
REMARK  5 active torsions:
REMARK  status: ('A' for Active; 'I' for Inactive)
REMARK    1  A    between atoms: C_8  and  N_9 
REMARK    2  A    between atoms: N_9  and  C_10 
REMARK    3  A    between atoms: C_10  and  C_11 
REMARK       I    between atoms: C_11  and  N_12 
REMARK    4  A    between atoms: N_12  and  N_13 
REMARK    5  A    between atoms: C_14  and  C_15 
ROOT
HETATM    1  C   UNL     1       8.334  28.242  57.251  1.00  0.00     0.250 C 
HETATM    2  N   UNL     1       7.553  27.153  56.862  1.00  0.00    -0.246 N 
HETATM    3  O   UNL     1       9.500  28.433  56.913  1.00  0.00    -0.270 OA
HETATM    4  H   UNL     1       6.543  27.227  56.948  1.00  0.00     0.192 HD
ENDROOT
BRANCH   2   5
HETATM    5  N   UNL     1       7.938  26.163  55.989  1.00  0.00    -0.184 NA
HETATM    6  C   UNL     1       7.027  25.410  55.459  1.00  0.00     0.153 C 
BRANCH   6   7
HETATM    7  C   UNL     1       7.407  24.336  54.555  1.00  0.00     0.018 A 
HETATM    8  C   UNL     1       7.675  22.954  54.843  1.00  0.00     0.004 A 
HETATM    9  C   UNL     1       8.007  22.333  53.638  1.00  0.00     0.043 A 
HETATM   10  C   UNL     1       7.671  22.164  56.014  1.00  0.00     0.014 A 
HETATM   11  C   UNL     1       8.332  20.973  53.544  1.00  0.00     0.030 A 
HETATM   12  N   UNL     1       7.938  23.290  52.656  1.00  0.00    -0.358 N 
HETATM   13  C   UNL     1       8.321  20.220  54.719  1.00  0.00     0.002 A 
HETATM   14  C   UNL     1       7.994  20.805  55.939  1.00  0.00     0.001 A 
HETATM   15  H   UNL     1       8.125  23.115  51.679  1.00  0.00     0.166 HD
HETATM   16  C   UNL     1       7.579  24.503  53.186  1.00  0.00     0.018 A 
HETATM   17  C   UNL     1       7.431  25.708  52.327  1.00  0.00     0.069 C 
ENDBRANCH   6   7
ENDBRANCH   2   5
BRANCH   1  18
HETATM   18  C   UNL     1       7.577  29.214  58.171  1.00  0.00     0.197 C 
BRANCH  18  19
HETATM   19  N   UNL     1       8.432  29.648  59.291  1.00  0.00    -0.284 NA
HETATM   20  H   UNL     1       9.393  29.794  58.985  1.00  0.00     0.128 HD
BRANCH  19  21
HETATM   21  C   UNL     1       7.923  30.787  59.954  1.00  0.00     0.016 A 
HETATM   22  C   UNL     1       8.335  31.125  61.262  1.00  0.00    -0.019 A 
HETATM   23  C   UNL     1       9.439  30.364  61.951  1.00  0.00     0.052 C 
HETATM   24  C   UNL     1       7.694  32.198  61.914  1.00  0.00     0.041 A 
HETATM   25 CL   UNL     1       8.102  32.653  63.533  1.00  0.00    -0.084 Cl
HETATM   26  C   UNL     1       6.692  32.934  61.277  1.00  0.00     0.024 A 
HETATM   27  C   UNL     1       6.304  32.607  59.983  1.00  0.00     0.003 A 
HETATM   28  C   UNL     1       6.910  31.535  59.330  1.00  0.00     0.024 A 
ENDBRANCH  19  21
ENDBRANCH  18  19
ENDBRANCH   1  18
TORSDOF 5
ENDMDL
MODEL 2
REMARK VINA RESULT:      -9.5      3.640     10.121
REMARK  5 active torsions:
REMARK  status: ('A' for Active; 'I' for Inactive)
REMARK    1  A    between atoms: C_8  and  N_9 
REMARK    2  A    between atoms: N_9  and  C_10 
REMARK    3  A    between atoms: C_10  and  C_11 
REMARK       I    between atoms: C_11  and  N_12 
REMARK    4  A    between atoms: N_12  and  N_13 
REMARK    5  A    between atoms: C_14  and  C_15 
ROOT
HETATM    1  C   UNL     1       7.849  26.072  57.291  1.00  0.00     0.250 C 
HETATM    2  N   UNL     1       7.546  27.380  56.912  1.00  0.00    -0.246 N 
HETATM    3  O   UNL     1       7.883  25.660  58.449  1.00  0.00    -0.270 OA
HETATM    4  H   UNL     1       7.264  27.552  55.952  1.00  0.00     0.192 HD
ENDROOT
BRANCH   2   5
HETATM    5  N   UNL     1       7.172  28.394  57.763  1.00  0.00    -0.184 NA
HETATM    6  C   UNL     1       7.705  29.564  57.611  1.00  0.00     0.153 C 
BRANCH   6   7
HETATM    7  C   UNL     1       7.351  30.647  58.515  1.00  0.00     0.018 A 
HETATM    8  C   UNL     1       7.933  31.010  59.777  1.00  0.00     0.004 A 
HETATM    9  C   UNL     1       7.234  32.118  60.256  1.00  0.00     0.043 A 
HETATM   10  C   UNL     1       8.989  30.503  60.565  1.00  0.00     0.014 A 
HETATM   11  C   UNL     1       7.534  32.741  61.475  1.00  0.00     0.030 A 
HETATM   12  N   UNL     1       6.271  32.425  59.326  1.00  0.00    -0.358 N 
HETATM   13  C   UNL     1       8.583  32.216  62.233  1.00  0.00     0.002 A 
HETATM   14  C   UNL     1       9.303  31.112  61.786  1.00  0.00     0.001 A 
HETATM   15  H   UNL     1       5.620  33.191  59.416  1.00  0.00     0.166 HD
HETATM   16  C   UNL     1       6.323  31.551  58.270  1.00  0.00     0.018 A 
HETATM   17  C   UNL     1       5.385  31.671  57.123  1.00  0.00     0.069 C 
ENDBRANCH   6   7
ENDBRANCH   2   5
BRANCH   1  18
HETATM   18  C   UNL     1       8.147  25.161  56.089  1.00  0.00     0.197 C 
BRANCH  18  19
HETATM   19  N   UNL     1       7.156  24.073  55.996  1.00  0.00    -0.284 NA
HETATM   20  H   UNL     1       6.418  24.304  55.334  1.00  0.00     0.128 HD
BRANCH  19  21
HETATM   21  C   UNL     1       7.746  22.825  55.699  1.00  0.00     0.016 A 
HETATM   22  C   UNL     1       7.795  22.328  54.378  1.00  0.00    -0.019 A 
HETATM   23  C   UNL     1       7.346  23.172  53.212  1.00  0.00     0.052 C 
HETATM   24  C   UNL     1       8.280  21.022  54.167  1.00  0.00     0.041 A 
HETATM   25 CL   UNL     1       8.334  20.314  52.588  1.00  0.00    -0.084 Cl
HETATM   26  C   UNL     1       8.731  20.239  55.232  1.00  0.00     0.024 A 
HETATM   27  C   UNL     1       8.697  20.741  56.528  1.00  0.00     0.003 A 
HETATM   28  C   UNL     1       8.199  22.022  56.760  1.00  0.00     0.024 A 
ENDBRANCH  19  21
ENDBRANCH  18  19
ENDBRANCH   1  18
TORSDOF 5
ENDMDL
MODEL 3
REMARK VINA RESULT:      -9.5      6.341      9.544
REMARK  5 active torsions:
REMARK  status: ('A' for Active; 'I' for Inactive)
REMARK    1  A    between atoms: C_8  and  N_9 
REMARK    2  A    between atoms: N_9  and  C_10 
REMARK    3  A    between atoms: C_10  and  C_11 
REMARK       I    between atoms: C_11  and  N_12 
REMARK    4  A    between atoms: N_12  and  N_13 
REMARK    5  A    between atoms: C_14  and  C_15 
ROOT
HETATM    1  C   UNL     1       5.847  27.224  51.519  1.00  0.00     0.250 C 
HETATM    2  N   UNL     1       6.297  25.921  51.294  1.00  0.00    -0.246 N 
HETATM    3  O   UNL     1       5.904  27.816  52.594  1.00  0.00    -0.270 OA
HETATM    4  H   UNL     1       6.472  25.629  50.337  1.00  0.00     0.192 HD
ENDROOT
BRANCH   2   5
HETATM    5  N   UNL     1       6.933  25.124  52.216  1.00  0.00    -0.184 NA
HETATM    6  C   UNL     1       6.226  24.543  53.132  1.00  0.00     0.153 C 
BRANCH   6   7
HETATM    7  C   UNL     1       6.876  23.718  54.137  1.00  0.00     0.018 A 
HETATM    8  C   UNL     1       7.544  22.454  53.987  1.00  0.00     0.004 A 
HETATM    9  C   UNL     1       7.993  22.068  55.251  1.00  0.00     0.043 A 
HETATM   10  C   UNL     1       7.811  21.595  52.900  1.00  0.00     0.014 A 
HETATM   11  C   UNL     1       8.691  20.874  55.481  1.00  0.00     0.030 A 
HETATM   12  N   UNL     1       7.624  23.053  56.133  1.00  0.00    -0.358 N 
HETATM   13  C   UNL     1       8.938  20.045  54.385  1.00  0.00     0.002 A 
HETATM   14  C   UNL     1       8.505  20.398  53.109  1.00  0.00     0.001 A 
HETATM   15  H   UNL     1       7.828  23.034  57.122  1.00  0.00     0.166 HD
HETATM   16  C   UNL     1       6.950  24.056  55.483  1.00  0.00     0.018 A 
HETATM   17  C   UNL     1       6.444  25.246  56.217  1.00  0.00     0.069 C 
ENDBRANCH   6   7
ENDBRANCH   2   5
BRANCH   1  18
HETATM   18  C   UNL     1       5.255  27.871  50.257  1.00  0.00     0.197 C 
BRANCH  18  19
HETATM   19  N   UNL     1       3.783  27.772  50.258  1.00  0.00    -0.284 NA
HETATM   20  H   UNL     1       3.354  28.677  50.446  1.00  0.00     0.128 HD
BRANCH  19  21
HETATM   21  C   UNL     1       3.276  27.197  49.072  1.00  0.00     0.016 A 
HETATM   22  C   UNL     1       2.130  27.717  48.431  1.00  0.00    -0.019 A 
HETATM   23  C   UNL     1       1.483  28.993  48.909  1.00  0.00     0.052 C 
HETATM   24  C   UNL     1       1.601  27.021  47.326  1.00  0.00     0.041 A 
HETATM   25 CL   UNL     1       0.174  27.560  46.508  1.00  0.00    -0.084 Cl
HETATM   26  C   UNL     1       2.208  25.856  46.850  1.00  0.00     0.024 A 
HETATM   27  C   UNL     1       3.346  25.359  47.475  1.00  0.00     0.003 A 
HETATM   28  C   UNL     1       3.870  26.021  48.583  1.00  0.00     0.024 A 
ENDBRANCH  19  21
ENDBRANCH  18  19
ENDBRANCH   1  18
TORSDOF 5
ENDMDL
MODEL 4
REMARK VINA RESULT:      -9.3      6.073      9.117
REMARK  5 active torsions:
REMARK  status: ('A' for Active; 'I' for Inactive)
REMARK    1  A    between atoms: C_8  and  N_9 
REMARK    2  A    between atoms: N_9  and  C_10 
REMARK    3  A    between atoms: C_10  and  C_11 
REMARK       I    between atoms: C_11  and  N_12 
REMARK    4  A    between atoms: N_12  and  N_13 
REMARK    5  A    between atoms: C_14  and  C_15 
ROOT
HETATM    1  C   UNL     1       5.934  25.909  54.782  1.00  0.00     0.250 C 
HETATM    2  N   UNL     1       5.377  25.348  53.632  1.00  0.00    -0.246 N 
HETATM    3  O   UNL     1       6.032  27.114  55.006  1.00  0.00    -0.270 OA
HETATM    4  H   UNL     1       5.082  24.376  53.662  1.00  0.00     0.192 HD
ENDROOT
BRANCH   2   5
HETATM    5  N   UNL     1       4.790  26.047  52.604  1.00  0.00    -0.184 NA
HETATM    6  C   UNL     1       5.424  26.152  51.479  1.00  0.00     0.153 C 
BRANCH   6   7
HETATM    7  C   UNL     1       4.841  26.910  50.384  1.00  0.00     0.018 A 
HETATM    8  C   UNL     1       4.096  26.444  49.247  1.00  0.00     0.004 A 
HETATM    9  C   UNL     1       3.762  27.561  48.481  1.00  0.00     0.043 A 
HETATM   10  C   UNL     1       3.672  25.177  48.790  1.00  0.00     0.014 A 
HETATM   11  C   UNL     1       3.031  27.477  47.288  1.00  0.00     0.030 A 
HETATM   12  N   UNL     1       4.273  28.662  49.123  1.00  0.00    -0.358 N 
HETATM   13  C   UNL     1       2.627  26.211  46.861  1.00  0.00     0.002 A 
HETATM   14  C   UNL     1       2.941  25.074  47.600  1.00  0.00     0.001 A 
HETATM   15  H   UNL     1       4.174  29.610  48.788  1.00  0.00     0.166 HD
HETATM   16  C   UNL     1       4.927  28.293  50.270  1.00  0.00     0.018 A 
HETATM   17  C   UNL     1       5.569  29.304  51.152  1.00  0.00     0.069 C 
ENDBRANCH   6   7
ENDBRANCH   2   5
BRANCH   1  18
HETATM   18  C   UNL     1       6.431  24.848  55.777  1.00  0.00     0.197 C 
BRANCH  18  19
HETATM   19  N   UNL     1       7.863  24.565  55.571  1.00  0.00    -0.284 NA
HETATM   20  H   UNL     1       8.431  24.994  56.300  1.00  0.00     0.128 HD
BRANCH  19  21
HETATM   21  C   UNL     1       8.133  23.184  55.453  1.00  0.00     0.016 A 
HETATM   22  C   UNL     1       8.174  22.544  54.194  1.00  0.00    -0.019 A 
HETATM   23  C   UNL     1       8.068  23.337  52.916  1.00  0.00     0.052 C 
HETATM   24  C   UNL     1       8.321  21.144  54.154  1.00  0.00     0.041 A 
HETATM   25 CL   UNL     1       8.335  20.272  52.659  1.00  0.00    -0.084 Cl
HETATM   26  C   UNL     1       8.454  20.399  55.328  1.00  0.00     0.024 A 
HETATM   27  C   UNL     1       8.431  21.036  56.564  1.00  0.00     0.003 A 
HETATM   28  C   UNL     1       8.263  22.418  56.624  1.00  0.00     0.024 A 
ENDBRANCH  19  21
ENDBRANCH  18  19
ENDBRANCH   1  18
TORSDOF 5
ENDMDL
MODEL 5
REMARK VINA RESULT:      -8.8      6.175      9.480
REMARK  5 active torsions:
REMARK  status: ('A' for Active; 'I' for Inactive)
REMARK    1  A    between atoms: C_8  and  N_9 
REMARK    2  A    between atoms: N_9  and  C_10 
REMARK    3  A    between atoms: C_10  and  C_11 
REMARK       I    between atoms: C_11  and  N_12 
REMARK    4  A    between atoms: N_12  and  N_13 
REMARK    5  A    between atoms: C_14  and  C_15 
ROOT
HETATM    1  C   UNL     1       5.569  26.208  54.339  1.00  0.00     0.250 C 
HETATM    2  N   UNL     1       5.363  25.795  53.022  1.00  0.00    -0.246 N 
HETATM    3  O   UNL     1       5.395  27.351  54.758  1.00  0.00    -0.270 OA
HETATM    4  H   UNL     1       5.253  24.802  52.838  1.00  0.00     0.192 HD
ENDROOT
BRANCH   2   5
HETATM    5  N   UNL     1       4.869  26.578  52.005  1.00  0.00    -0.184 NA
HETATM    6  C   UNL     1       5.255  26.342  50.792  1.00  0.00     0.153 C 
BRANCH   6   7
HETATM    7  C   UNL     1       4.772  27.172  49.700  1.00  0.00     0.018 A 
HETATM    8  C   UNL     1       5.002  28.567  49.445  1.00  0.00     0.004 A 
HETATM    9  C   UNL     1       4.316  28.897  48.276  1.00  0.00     0.043 A 
HETATM   10  C   UNL     1       5.727  29.589  50.096  1.00  0.00     0.014 A 
HETATM   11  C   UNL     1       4.317  30.186  47.727  1.00  0.00     0.030 A 
HETATM   12  N   UNL     1       3.699  27.753  47.831  1.00  0.00    -0.358 N 
HETATM   13  C   UNL     1       5.042  31.176  48.394  1.00  0.00     0.002 A 
HETATM   14  C   UNL     1       5.740  30.884  49.563  1.00  0.00     0.001 A 
HETATM   15  H   UNL     1       3.134  27.702  46.995  1.00  0.00     0.166 HD
HETATM   16  C   UNL     1       3.960  26.703  48.675  1.00  0.00     0.018 A 
HETATM   17  C   UNL     1       3.409  25.348  48.412  1.00  0.00     0.069 C 
ENDBRANCH   6   7
ENDBRANCH   2   5
BRANCH   1  18
HETATM   18  C   UNL     1       6.050  25.066  55.248  1.00  0.00     0.197 C 
BRANCH  18  19
HETATM   19  N   UNL     1       7.508  24.879  55.129  1.00  0.00    -0.284 NA
HETATM   20  H   UNL     1       8.007  25.426  55.829  1.00  0.00     0.128 HD
BRANCH  19  21
HETATM   21  C   UNL     1       7.887  23.519  55.170  1.00  0.00     0.016 A 
HETATM   22  C   UNL     1       8.007  22.750  53.992  1.00  0.00    -0.019 A 
HETATM   23  C   UNL     1       7.870  23.386  52.631  1.00  0.00     0.052 C 
HETATM   24  C   UNL     1       8.263  21.370  54.111  1.00  0.00     0.041 A 
HETATM   25 CL   UNL     1       8.379  20.342  52.723  1.00  0.00    -0.084 Cl
HETATM   26  C   UNL     1       8.425  20.772  55.363  1.00  0.00     0.024 A 
HETATM   27  C   UNL     1       8.324  21.537  56.519  1.00  0.00     0.003 A 
HETATM   28  C   UNL     1       8.048  22.900  56.422  1.00  0.00     0.024 A 
ENDBRANCH  19  21
ENDBRANCH  18  19
ENDBRANCH   1  18
TORSDOF 5
ENDMDL
MODEL 6
REMARK VINA RESULT:      -8.8      1.606      2.302
REMARK  5 active torsions:
REMARK  status: ('A' for Active; 'I' for Inactive)
REMARK    1  A    between atoms: C_8  and  N_9 
REMARK    2  A    between atoms: N_9  and  C_10 
REMARK    3  A    between atoms: C_10  and  C_11 
REMARK       I    between atoms: C_11  and  N_12 
REMARK    4  A    between atoms: N_12  and  N_13 
REMARK    5  A    between atoms: C_14  and  C_15 
ROOT
HETATM    1  C   UNL     1       7.748  29.371  57.712  1.00  0.00     0.250 C 
HETATM    2  N   UNL     1       8.304  28.122  57.430  1.00  0.00    -0.246 N 
HETATM    3  O   UNL     1       6.971  29.981  56.979  1.00  0.00    -0.270 OA
HETATM    4  H   UNL     1       8.691  27.581  58.198  1.00  0.00     0.192 HD
ENDROOT
BRANCH   2   5
HETATM    5  N   UNL     1       8.021  27.349  56.329  1.00  0.00    -0.184 NA
HETATM    6  C   UNL     1       7.547  26.158  56.509  1.00  0.00     0.153 C 
BRANCH   6   7
HETATM    7  C   UNL     1       7.265  25.307  55.364  1.00  0.00     0.018 A 
HETATM    8  C   UNL     1       7.901  24.083  54.960  1.00  0.00     0.004 A 
HETATM    9  C   UNL     1       7.273  23.654  53.789  1.00  0.00     0.043 A 
HETATM   10  C   UNL     1       8.953  23.293  55.472  1.00  0.00     0.014 A 
HETATM   11  C   UNL     1       7.641  22.485  53.110  1.00  0.00     0.030 A 
HETATM   12  N   UNL     1       6.293  24.570  53.494  1.00  0.00    -0.358 N 
HETATM   13  C   UNL     1       8.686  21.727  53.641  1.00  0.00     0.002 A 
HETATM   14  C   UNL     1       9.335  22.123  54.807  1.00  0.00     0.001 A 
HETATM   15  H   UNL     1       5.677  24.504  52.697  1.00  0.00     0.166 HD
HETATM   16  C   UNL     1       6.272  25.574  54.429  1.00  0.00     0.018 A 
HETATM   17  C   UNL     1       5.296  26.692  54.339  1.00  0.00     0.069 C 
ENDBRANCH   6   7
ENDBRANCH   2   5
BRANCH   1  18
HETATM   18  C   UNL     1       8.210  29.933  59.066  1.00  0.00     0.197 C 
BRANCH  18  19
HETATM   19  N   UNL     1       8.033  31.396  59.114  1.00  0.00    -0.284 NA
HETATM   20  H   UNL     1       7.335  31.705  58.439  1.00  0.00     0.128 HD
BRANCH  19  21
HETATM   21  C   UNL     1       7.739  31.866  60.413  1.00  0.00     0.016 A 
HETATM   22  C   UNL     1       6.570  32.612  60.681  1.00  0.00    -0.019 A 
HETATM   23  C   UNL     1       5.519  32.818  59.620  1.00  0.00     0.052 C 
HETATM   24  C   UNL     1       6.400  33.160  61.968  1.00  0.00     0.041 A 
HETATM   25 CL   UNL     1       5.022  34.126  62.372  1.00  0.00    -0.084 Cl
HETATM   26  C   UNL     1       7.349  32.950  62.972  1.00  0.00     0.024 A 
HETATM   27  C   UNL     1       8.489  32.200  62.707  1.00  0.00     0.003 A 
HETATM   28  C   UNL     1       8.686  31.669  61.433  1.00  0.00     0.024 A 
ENDBRANCH  19  21
ENDBRANCH  18  19
ENDBRANCH   1  18
TORSDOF 5
ENDMDL
MODEL 7
REMARK VINA RESULT:      -8.8      5.786      8.115
REMARK  5 active torsions:
REMARK  status: ('A' for Active; 'I' for Inactive)
REMARK    1  A    between atoms: C_8  and  N_9 
REMARK    2  A    between atoms: N_9  and  C_10 
REMARK    3  A    between atoms: C_10  and  C_11 
REMARK       I    between atoms: C_11  and  N_12 
REMARK    4  A    between atoms: N_12  and  N_13 
REMARK    5  A    between atoms: C_14  and  C_15 
ROOT
HETATM    1  C   UNL     1       4.779  27.764  54.212  1.00  0.00     0.250 C 
HETATM    2  N   UNL     1       4.801  26.424  53.823  1.00  0.00    -0.246 N 
HETATM    3  O   UNL     1       5.269  28.208  55.248  1.00  0.00    -0.270 OA
HETATM    4  H   UNL     1       4.635  26.201  52.845  1.00  0.00     0.192 HD
ENDROOT
BRANCH   2   5
HETATM    5  N   UNL     1       5.431  25.404  54.497  1.00  0.00    -0.184 NA
HETATM    6  C   UNL     1       6.684  25.182  54.261  1.00  0.00     0.153 C 
BRANCH   6   7
HETATM    7  C   UNL     1       7.369  24.092  54.938  1.00  0.00     0.018 A 
HETATM    8  C   UNL     1       7.757  22.805  54.432  1.00  0.00     0.004 A 
HETATM    9  C   UNL     1       8.380  22.117  55.474  1.00  0.00     0.043 A 
HETATM   10  C   UNL     1       7.640  22.151  53.186  1.00  0.00     0.014 A 
HETATM   11  C   UNL     1       8.887  20.817  55.336  1.00  0.00     0.030 A 
HETATM   12  N   UNL     1       8.379  22.948  56.567  1.00  0.00    -0.358 N 
HETATM   13  C   UNL     1       8.754  20.197  54.092  1.00  0.00     0.002 A 
HETATM   14  C   UNL     1       8.140  20.853  53.029  1.00  0.00     0.001 A 
HETATM   15  H   UNL     1       8.773  22.704  57.465  1.00  0.00     0.166 HD
HETATM   16  C   UNL     1       7.774  24.142  56.267  1.00  0.00     0.018 A 
HETATM   17  C   UNL     1       7.649  25.220  57.283  1.00  0.00     0.069 C 
ENDBRANCH   6   7
ENDBRANCH   2   5
BRANCH   1  18
HETATM   18  C   UNL     1       4.061  28.664  53.193  1.00  0.00     0.197 C 
BRANCH  18  19
HETATM   19  N   UNL     1       3.547  27.870  52.062  1.00  0.00    -0.284 NA
HETATM   20  H   UNL     1       2.538  27.742  52.131  1.00  0.00     0.128 HD
BRANCH  19  21
HETATM   21  C   UNL     1       3.914  28.407  50.808  1.00  0.00     0.016 A 
HETATM   22  C   UNL     1       2.950  28.925  49.915  1.00  0.00    -0.019 A 
HETATM   23  C   UNL     1       1.504  29.053  50.322  1.00  0.00     0.052 C 
HETATM   24  C   UNL     1       3.368  29.326  48.632  1.00  0.00     0.041 A 
HETATM   25 CL   UNL     1       2.248  29.929  47.457  1.00  0.00    -0.084 Cl
HETATM   26  C   UNL     1       4.710  29.245  48.251  1.00  0.00     0.024 A 
HETATM   27  C   UNL     1       5.657  28.751  49.141  1.00  0.00     0.003 A 
HETATM   28  C   UNL     1       5.259  28.327  50.408  1.00  0.00     0.024 A 
ENDBRANCH  19  21
ENDBRANCH  18  19
ENDBRANCH   1  18
TORSDOF 5
ENDMDL
MODEL 8
REMARK VINA RESULT:      -8.7      1.779      2.910
REMARK  5 active torsions:
REMARK  status: ('A' for Active; 'I' for Inactive)
REMARK    1  A    between atoms: C_8  and  N_9 
REMARK    2  A    between atoms: N_9  and  C_10 
REMARK    3  A    between atoms: C_10  and  C_11 
REMARK       I    between atoms: C_11  and  N_12 
REMARK    4  A    between atoms: N_12  and  N_13 
REMARK    5  A    between atoms: C_14  and  C_15 
ROOT
HETATM    1  C   UNL     1       9.452  29.456  57.369  1.00  0.00     0.250 C 
HETATM    2  N   UNL     1       8.374  28.571  57.383  1.00  0.00    -0.246 N 
HETATM    3  O   UNL     1      10.332  29.486  56.511  1.00  0.00    -0.270 OA
HETATM    4  H   UNL     1       7.565  28.804  57.952  1.00  0.00     0.192 HD
ENDROOT
BRANCH   2   5
HETATM    5  N   UNL     1       8.086  27.644  56.410  1.00  0.00    -0.184 NA
HETATM    6  C   UNL     1       7.535  26.524  56.758  1.00  0.00     0.153 C 
BRANCH   6   7
HETATM    7  C   UNL     1       7.246  25.513  55.754  1.00  0.00     0.018 A 
HETATM    8  C   UNL     1       6.421  25.602  54.581  1.00  0.00     0.004 A 
HETATM    9  C   UNL     1       6.461  24.360  53.947  1.00  0.00     0.043 A 
HETATM   10  C   UNL     1       5.637  26.619  53.993  1.00  0.00     0.014 A 
HETATM   11  C   UNL     1       5.763  24.083  52.764  1.00  0.00     0.030 A 
HETATM   12  N   UNL     1       7.280  23.549  54.694  1.00  0.00    -0.358 N 
HETATM   13  C   UNL     1       4.996  25.109  52.207  1.00  0.00     0.002 A 
HETATM   14  C   UNL     1       4.933  26.361  52.812  1.00  0.00     0.001 A 
HETATM   15  H   UNL     1       7.493  22.589  54.461  1.00  0.00     0.166 HD
HETATM   16  C   UNL     1       7.762  24.223  55.787  1.00  0.00     0.018 A 
HETATM   17  C   UNL     1       8.679  23.566  56.756  1.00  0.00     0.069 C 
ENDBRANCH   6   7
ENDBRANCH   2   5
BRANCH   1  18
HETATM   18  C   UNL     1       9.441  30.423  58.564  1.00  0.00     0.197 C 
BRANCH  18  19
HETATM   19  N   UNL     1       8.480  29.977  59.590  1.00  0.00    -0.284 NA
HETATM   20  H   UNL     1       8.908  29.305  60.227  1.00  0.00     0.128 HD
BRANCH  19  21
HETATM   21  C   UNL     1       7.896  31.053  60.293  1.00  0.00     0.016 A 
HETATM   22  C   UNL     1       8.247  31.340  61.631  1.00  0.00    -0.019 A 
HETATM   23  C   UNL     1       9.362  30.595  62.318  1.00  0.00     0.052 C 
HETATM   24  C   UNL     1       7.535  32.345  62.313  1.00  0.00     0.041 A 
HETATM   25 CL   UNL     1       7.865  32.732  63.968  1.00  0.00    -0.084 Cl
HETATM   26  C   UNL     1       6.520  33.068  61.680  1.00  0.00     0.024 A 
HETATM   27  C   UNL     1       6.191  32.793  60.357  1.00  0.00     0.003 A 
HETATM   28  C   UNL     1       6.869  31.786  59.672  1.00  0.00     0.024 A 
ENDBRANCH  19  21
ENDBRANCH  18  19
ENDBRANCH   1  18
TORSDOF 5
ENDMDL
MODEL 9
REMARK VINA RESULT:      -8.5      2.314      3.768
REMARK  5 active torsions:
REMARK  status: ('A' for Active; 'I' for Inactive)
REMARK    1  A    between atoms: C_8  and  N_9 
REMARK    2  A    between atoms: N_9  and  C_10 
REMARK    3  A    between atoms: C_10  and  C_11 
REMARK       I    between atoms: C_11  and  N_12 
REMARK    4  A    between atoms: N_12  and  N_13 
REMARK    5  A    between atoms: C_14  and  C_15 
ROOT
HETATM    1  C   UNL     1       8.132  31.141  59.031  1.00  0.00     0.250 C 
HETATM    2  N   UNL     1       7.050  30.371  58.601  1.00  0.00    -0.246 N 
HETATM    3  O   UNL     1       9.256  31.123  58.534  1.00  0.00    -0.270 OA
HETATM    4  H   UNL     1       6.114  30.658  58.873  1.00  0.00     0.192 HD
ENDROOT
BRANCH   2   5
HETATM    5  N   UNL     1       7.049  29.528  57.515  1.00  0.00    -0.184 NA
HETATM    6  C   UNL     1       6.951  28.252  57.716  1.00  0.00     0.153 C 
BRANCH   6   7
HETATM    7  C   UNL     1       6.977  27.334  56.589  1.00  0.00     0.018 A 
HETATM    8  C   UNL     1       7.642  26.067  56.460  1.00  0.00     0.004 A 
HETATM    9  C   UNL     1       7.366  25.579  55.182  1.00  0.00     0.043 A 
HETATM   10  C   UNL     1       8.457  25.283  57.305  1.00  0.00     0.014 A 
HETATM   11  C   UNL     1       7.859  24.356  54.709  1.00  0.00     0.030 A 
HETATM   12  N   UNL     1       6.562  26.502  54.560  1.00  0.00    -0.358 N 
HETATM   13  C   UNL     1       8.664  23.604  55.568  1.00  0.00     0.002 A 
HETATM   14  C   UNL     1       8.960  24.059  56.850  1.00  0.00     0.001 A 
HETATM   15  H   UNL     1       6.205  26.401  53.620  1.00  0.00     0.166 HD
HETATM   16  C   UNL     1       6.317  27.567  55.388  1.00  0.00     0.018 A 
HETATM   17  C   UNL     1       5.466  28.705  54.950  1.00  0.00     0.069 C 
ENDBRANCH   6   7
ENDBRANCH   2   5
BRANCH   1  18
HETATM   18  C   UNL     1       7.778  32.043  60.225  1.00  0.00     0.197 C 
BRANCH  18  19
HETATM   19  N   UNL     1       6.994  31.302  61.229  1.00  0.00    -0.284 NA
HETATM   20  H   UNL     1       7.398  30.383  61.406  1.00  0.00     0.128 HD
BRANCH  19  21
HETATM   21  C   UNL     1       6.818  32.028  62.427  1.00  0.00     0.016 A 
HETATM   22  C   UNL     1       5.550  32.510  62.820  1.00  0.00    -0.019 A 
HETATM   23  C   UNL     1       4.307  32.148  62.046  1.00  0.00     0.052 C 
HETATM   24  C   UNL     1       5.466  33.335  63.958  1.00  0.00     0.041 A 
HETATM   25 CL   UNL     1       3.960  34.008  64.486  1.00  0.00    -0.084 Cl
HETATM   26  C   UNL     1       6.603  33.652  64.706  1.00  0.00     0.024 A 
HETATM   27  C   UNL     1       7.846  33.160  64.324  1.00  0.00     0.003 A 
HETATM   28  C   UNL     1       7.953  32.361  63.187  1.00  0.00     0.024 A 
ENDBRANCH  19  21
ENDBRANCH  18  19
ENDBRANCH   1  18
TORSDOF 5
ENDMDL
MODEL 10
REMARK VINA RESULT:      -8.5      6.042      9.864
REMARK  5 active torsions:
REMARK  status: ('A' for Active; 'I' for Inactive)
REMARK    1  A    between atoms: C_8  and  N_9 
REMARK    2  A    between atoms: N_9  and  C_10 
REMARK    3  A    between atoms: C_10  and  C_11 
REMARK       I    between atoms: C_11  and  N_12 
REMARK    4  A    between atoms: N_12  and  N_13 
REMARK    5  A    between atoms: C_14  and  C_15 
ROOT
HETATM    1  C   UNL     1       6.544  26.569  52.270  1.00  0.00     0.250 C 
HETATM    2  N   UNL     1       5.971  25.811  51.248  1.00  0.00    -0.246 N 
HETATM    3  O   UNL     1       6.199  27.705  52.588  1.00  0.00    -0.270 OA
HETATM    4  H   UNL     1       6.119  24.807  51.249  1.00  0.00     0.192 HD
ENDROOT
BRANCH   2   5
HETATM    5  N   UNL     1       4.890  26.185  50.485  1.00  0.00    -0.184 NA
HETATM    6  C   UNL     1       5.087  26.538  49.254  1.00  0.00     0.153 C 
BRANCH   6   7
HETATM    7  C   UNL     1       3.966  26.966  48.432  1.00  0.00     0.018 A 
HETATM    8  C   UNL     1       3.589  28.290  48.023  1.00  0.00     0.004 A 
HETATM    9  C   UNL     1       2.434  28.174  47.247  1.00  0.00     0.043 A 
HETATM   10  C   UNL     1       4.115  29.583  48.235  1.00  0.00     0.014 A 
HETATM   11  C   UNL     1       1.783  29.277  46.678  1.00  0.00     0.030 A 
HETATM   12  N   UNL     1       2.123  26.838  47.180  1.00  0.00    -0.358 N 
HETATM   13  C   UNL     1       2.326  30.542  46.908  1.00  0.00     0.002 A 
HETATM   14  C   UNL     1       3.478  30.696  47.676  1.00  0.00     0.001 A 
HETATM   15  H   UNL     1       1.331  26.466  46.674  1.00  0.00     0.166 HD
HETATM   16  C   UNL     1       3.032  26.093  47.887  1.00  0.00     0.018 A 
HETATM   17  C   UNL     1       2.919  24.613  47.967  1.00  0.00     0.069 C 
ENDBRANCH   6   7
ENDBRANCH   2   5
BRANCH   1  18
HETATM   18  C   UNL     1       7.686  25.829  52.986  1.00  0.00     0.197 C 
BRANCH  18  19
HETATM   19  N   UNL     1       7.196  25.164  54.207  1.00  0.00    -0.284 NA
HETATM   20  H   UNL     1       6.204  25.346  54.352  1.00  0.00     0.128 HD
BRANCH  19  21
HETATM   21  C   UNL     1       7.474  23.780  54.222  1.00  0.00     0.016 A 
HETATM   22  C   UNL     1       7.829  23.111  55.414  1.00  0.00    -0.019 A 
HETATM   23  C   UNL     1       7.789  23.819  56.745  1.00  0.00     0.052 C 
HETATM   24  C   UNL     1       8.218  21.759  55.338  1.00  0.00     0.041 A 
HETATM   25 CL   UNL     1       8.713  20.873  56.740  1.00  0.00    -0.084 Cl
HETATM   26  C   UNL     1       8.229  21.079  54.117  1.00  0.00     0.024 A 
HETATM   27  C   UNL     1       7.861  21.738  52.950  1.00  0.00     0.003 A 
HETATM   28  C   UNL     1       7.495  23.082  53.002  1.00  0.00     0.024 A 
ENDBRANCH  19  21
ENDBRANCH  18  19
ENDBRANCH   1  18
TORSDOF 5
ENDMDL
