MODEL 1
REMARK VINA RESULT:      -8.7      0.000      0.000
REMARK  4 active torsions:
REMARK  status: ('A' for Active; 'I' for Inactive)
REMARK    1  A    between atoms: N_4  and  C_5 
REMARK    2  A    between atoms: C_16  and  C_17 
REMARK    3  A    between atoms: C_24  and  C_25 
REMARK    4  A    between atoms: C_25  and  O_26 
ROOT
HETATM    1  C   UNL     1       7.963  32.409  63.375  1.00  0.00     0.073 C 
HETATM    2  C   UNL     1       7.745  32.226  61.918  1.00  0.00     0.065 A 
HETATM    3  N   UNL     1       8.622  31.535  61.189  1.00  0.00    -0.170 NA
HETATM    4  N   UNL     1       8.117  31.538  59.915  1.00  0.00    -0.215 N 
HETATM    5  C   UNL     1       6.937  32.279  59.846  1.00  0.00     0.165 A 
HETATM    6  C   UNL     1       6.670  32.705  61.140  1.00  0.00     0.039 A 
HETATM    7  N   UNL     1       6.162  32.534  58.766  1.00  0.00    -0.216 NA
HETATM    8  C   UNL     1       5.039  33.238  59.037  1.00  0.00     0.137 A 
HETATM    9 CL   UNL     1       4.112  33.490  57.604  1.00  0.00    -0.062 Cl
HETATM   10  C   UNL     1       4.632  33.701  60.288  1.00  0.00     0.011 A 
HETATM   11  C   UNL     1       5.494  33.435  61.371  1.00  0.00     0.030 A 
ENDROOT
BRANCH  10  12
HETATM   12  C   UNL     1       3.312  34.414  60.526  1.00  0.00     0.164 C 
HETATM   13  N   UNL     1       2.597  33.739  61.600  1.00  0.00    -0.330 N 
HETATM   14  C   UNL     1       2.488  34.207  62.867  1.00  0.00     0.321 C 
HETATM   15  H   UNL     1       2.334  32.769  61.486  1.00  0.00     0.165 HD
HETATM   16  O   UNL     1       2.063  33.505  63.778  1.00  0.00    -0.247 OA
HETATM   17  N   UNL     1       2.851  35.506  63.062  1.00  0.00    -0.312 N 
HETATM   18  C   UNL     1       3.273  36.370  62.078  1.00  0.00     0.024 C 
HETATM   19  H   UNL     1       2.703  35.842  64.008  1.00  0.00     0.170 HD
HETATM   20  C   UNL     1       3.447  37.805  62.493  1.00  0.00     0.069 C 
HETATM   21  C   UNL     1       3.474  35.880  60.839  1.00  0.00     0.067 C 
BRANCH  21  22
HETATM   22  C   UNL     1       3.903  36.770  59.734  1.00  0.00     0.293 C 
HETATM   23  O   UNL     1       4.936  37.419  59.727  1.00  0.00    -0.259 OA
BRANCH  22  24
HETATM   24  O   UNL     1       2.962  36.766  58.760  1.00  0.00    -0.323 OA
HETATM   25  C   UNL     1       1.930  37.739  58.937  1.00  0.00     0.213 C 
ENDBRANCH  22  24
ENDBRANCH  21  22
ENDBRANCH  10  12
BRANCH   4  26
HETATM   26  C   UNL     1       8.797  30.809  58.891  1.00  0.00     0.060 A 
HETATM   27  C   UNL     1      10.011  31.309  58.387  1.00  0.00     0.031 A 
HETATM   28  C   UNL     1      10.717  30.610  57.405  1.00  0.00     0.002 A 
HETATM   29  C   UNL     1      10.218  29.408  56.912  1.00  0.00     0.000 A 
HETATM   30  C   UNL     1       9.014  28.906  57.400  1.00  0.00     0.002 A 
HETATM   31  C   UNL     1       8.303  29.599  58.386  1.00  0.00     0.031 A 
ENDBRANCH   4  26
TORSDOF 4
ENDMDL
MODEL 2
REMARK VINA RESULT:      -8.6      7.953     10.601
REMARK  4 active torsions:
REMARK  status: ('A' for Active; 'I' for Inactive)
REMARK    1  A    between atoms: N_4  and  C_5 
REMARK    2  A    between atoms: C_16  and  C_17 
REMARK    3  A    between atoms: C_24  and  C_25 
REMARK    4  A    between atoms: C_25  and  O_26 
ROOT
HETATM    1  C   UNL     1       8.043  26.962  57.063  1.00  0.00     0.073 C 
HETATM    2  C   UNL     1       7.687  25.881  56.109  1.00  0.00     0.065 A 
HETATM    3  N   UNL     1       8.269  24.685  56.201  1.00  0.00    -0.170 NA
HETATM    4  N   UNL     1       7.708  23.931  55.205  1.00  0.00    -0.215 N 
HETATM    5  C   UNL     1       6.799  24.683  54.458  1.00  0.00     0.165 A 
HETATM    6  C   UNL     1       6.755  25.937  55.051  1.00  0.00     0.039 A 
HETATM    7  N   UNL     1       6.067  24.302  53.386  1.00  0.00    -0.216 NA
HETATM    8  C   UNL     1       5.224  25.251  52.917  1.00  0.00     0.137 A 
HETATM    9 CL   UNL     1       4.324  24.661  51.569  1.00  0.00    -0.062 Cl
HETATM   10  C   UNL     1       5.056  26.536  53.431  1.00  0.00     0.011 A 
HETATM   11  C   UNL     1       5.868  26.890  54.527  1.00  0.00     0.030 A 
ENDROOT
BRANCH  10  12
HETATM   12  C   UNL     1       4.026  27.519  52.900  1.00  0.00     0.164 C 
HETATM   13  N   UNL     1       3.560  28.354  53.998  1.00  0.00    -0.330 N 
HETATM   14  C   UNL     1       3.930  29.643  54.199  1.00  0.00     0.321 C 
HETATM   15  H   UNL     1       3.101  27.921  54.789  1.00  0.00     0.165 HD
HETATM   16  O   UNL     1       3.680  30.228  55.246  1.00  0.00    -0.247 OA
HETATM   17  N   UNL     1       4.568  30.253  53.161  1.00  0.00    -0.312 N 
HETATM   18  C   UNL     1       4.823  29.680  51.936  1.00  0.00     0.024 C 
HETATM   19  H   UNL     1       4.779  31.232  53.321  1.00  0.00     0.170 HD
HETATM   20  C   UNL     1       5.376  30.599  50.883  1.00  0.00     0.069 C 
HETATM   21  C   UNL     1       4.544  28.372  51.770  1.00  0.00     0.067 C 
BRANCH  21  22
HETATM   22  C   UNL     1       4.773  27.710  50.465  1.00  0.00     0.293 C 
HETATM   23  O   UNL     1       5.852  27.294  50.077  1.00  0.00    -0.259 OA
BRANCH  22  24
HETATM   24  O   UNL     1       3.610  27.666  49.770  1.00  0.00    -0.323 OA
HETATM   25  C   UNL     1       3.611  26.738  48.684  1.00  0.00     0.213 C 
ENDBRANCH  22  24
ENDBRANCH  21  22
ENDBRANCH  10  12
BRANCH   4  26
HETATM   26  C   UNL     1       8.072  22.554  55.078  1.00  0.00     0.060 A 
HETATM   27  C   UNL     1       8.456  22.062  53.818  1.00  0.00     0.031 A 
HETATM   28  C   UNL     1       8.844  20.729  53.662  1.00  0.00     0.002 A 
HETATM   29  C   UNL     1       8.849  19.873  54.759  1.00  0.00     0.000 A 
HETATM   30  C   UNL     1       8.465  20.348  56.011  1.00  0.00     0.002 A 
HETATM   31  C   UNL     1       8.078  21.683  56.175  1.00  0.00     0.031 A 
ENDBRANCH   4  26
TORSDOF 4
ENDMDL
MODEL 3
REMARK VINA RESULT:      -8.6      8.089     10.625
REMARK  4 active torsions:
REMARK  status: ('A' for Active; 'I' for Inactive)
REMARK    1  A    between atoms: N_4  and  C_5 
REMARK    2  A    between atoms: C_16  and  C_17 
REMARK    3  A    between atoms: C_24  and  C_25 
REMARK    4  A    between atoms: C_25  and  O_26 
ROOT
HETATM    1  C   UNL     1       7.249  27.512  56.496  1.00  0.00     0.073 C 
HETATM    2  C   UNL     1       7.026  26.504  55.429  1.00  0.00     0.065 A 
HETATM    3  N   UNL     1       7.575  25.292  55.524  1.00  0.00    -0.170 NA
HETATM    4  N   UNL     1       7.159  24.616  54.408  1.00  0.00    -0.215 N 
HETATM    5  C   UNL     1       6.379  25.435  53.589  1.00  0.00     0.165 A 
HETATM    6  C   UNL     1       6.262  26.648  54.252  1.00  0.00     0.039 A 
HETATM    7  N   UNL     1       5.810  25.139  52.397  1.00  0.00    -0.216 NA
HETATM    8  C   UNL     1       5.057  26.134  51.875  1.00  0.00     0.137 A 
HETATM    9 CL   UNL     1       4.359  25.653  50.372  1.00  0.00    -0.062 Cl
HETATM   10  C   UNL     1       4.828  27.387  52.444  1.00  0.00     0.011 A 
HETATM   11  C   UNL     1       5.472  27.651  53.669  1.00  0.00     0.030 A 
ENDROOT
BRANCH  10  12
HETATM   12  C   UNL     1       3.899  28.423  51.836  1.00  0.00     0.164 C 
HETATM   13  N   UNL     1       3.221  29.138  52.908  1.00  0.00    -0.330 N 
HETATM   14  C   UNL     1       3.524  30.397  53.309  1.00  0.00     0.321 C 
HETATM   15  H   UNL     1       2.629  28.624  53.549  1.00  0.00     0.165 HD
HETATM   16  O   UNL     1       3.073  30.868  54.346  1.00  0.00    -0.247 OA
HETATM   17  N   UNL     1       4.335  31.112  52.481  1.00  0.00    -0.312 N 
HETATM   18  C   UNL     1       4.824  30.673  51.271  1.00  0.00     0.024 C 
HETATM   19  H   UNL     1       4.495  32.068  52.779  1.00  0.00     0.170 HD
HETATM   20  C   UNL     1       5.549  31.697  50.444  1.00  0.00     0.069 C 
HETATM   21  C   UNL     1       4.604  29.391  50.920  1.00  0.00     0.067 C 
BRANCH  21  22
HETATM   22  C   UNL     1       5.085  28.871  49.618  1.00  0.00     0.293 C 
HETATM   23  O   UNL     1       6.241  28.563  49.378  1.00  0.00    -0.259 OA
BRANCH  22  24
HETATM   24  O   UNL     1       4.051  28.818  48.743  1.00  0.00    -0.323 OA
HETATM   25  C   UNL     1       4.293  27.996  47.599  1.00  0.00     0.213 C 
ENDBRANCH  22  24
ENDBRANCH  21  22
ENDBRANCH  10  12
BRANCH   4  26
HETATM   26  C   UNL     1       7.523  23.244  54.244  1.00  0.00     0.060 A 
HETATM   27  C   UNL     1       7.525  22.398  55.368  1.00  0.00     0.031 A 
HETATM   28  C   UNL     1       7.849  21.045  55.241  1.00  0.00     0.002 A 
HETATM   29  C   UNL     1       8.178  20.523  53.994  1.00  0.00     0.000 A 
HETATM   30  C   UNL     1       8.185  21.352  52.875  1.00  0.00     0.002 A 
HETATM   31  C   UNL     1       7.858  22.707  52.994  1.00  0.00     0.031 A 
ENDBRANCH   4  26
TORSDOF 4
ENDMDL
MODEL 4
REMARK VINA RESULT:      -7.9      6.399     10.468
REMARK  4 active torsions:
REMARK  status: ('A' for Active; 'I' for Inactive)
REMARK    1  A    between atoms: N_4  and  C_5 
REMARK    2  A    between atoms: C_16  and  C_17 
REMARK    3  A    between atoms: C_24  and  C_25 
REMARK    4  A    between atoms: C_25  and  O_26 
ROOT
HETATM    1  C   UNL     1       9.911  29.293  54.664  1.00  0.00     0.073 C 
HETATM    2  C   UNL     1       8.922  29.174  55.765  1.00  0.00     0.065 A 
HETATM    3  N   UNL     1       8.914  30.062  56.760  1.00  0.00    -0.170 NA
HETATM    4  N   UNL     1       7.882  29.681  57.577  1.00  0.00    -0.215 N 
HETATM    5  C   UNL     1       7.273  28.517  57.106  1.00  0.00     0.165 A 
HETATM    6  C   UNL     1       7.917  28.196  55.919  1.00  0.00     0.039 A 
HETATM    7  N   UNL     1       6.243  27.825  57.646  1.00  0.00    -0.216 NA
HETATM    8  C   UNL     1       5.837  26.763  56.913  1.00  0.00     0.137 A 
HETATM    9 CL   UNL     1       4.511  25.963  57.673  1.00  0.00    -0.062 Cl
HETATM   10  C   UNL     1       6.370  26.345  55.694  1.00  0.00     0.011 A 
HETATM   11  C   UNL     1       7.461  27.084  55.195  1.00  0.00     0.030 A 
ENDROOT
BRANCH  10  12
HETATM   12  C   UNL     1       5.802  25.190  54.886  1.00  0.00     0.164 C 
HETATM   13  N   UNL     1       5.015  25.725  53.784  1.00  0.00    -0.330 N 
HETATM   14  C   UNL     1       5.420  25.756  52.491  1.00  0.00     0.321 C 
HETATM   15  H   UNL     1       4.210  26.302  53.986  1.00  0.00     0.165 HD
HETATM   16  O   UNL     1       4.818  26.405  51.644  1.00  0.00    -0.247 OA
HETATM   17  N   UNL     1       6.515  25.005  52.185  1.00  0.00    -0.312 N 
HETATM   18  C   UNL     1       7.201  24.202  53.068  1.00  0.00     0.024 C 
HETATM   19  H   UNL     1       6.757  25.003  51.200  1.00  0.00     0.170 HD
HETATM   20  C   UNL     1       8.265  23.326  52.470  1.00  0.00     0.069 C 
HETATM   21  C   UNL     1       6.860  24.247  54.372  1.00  0.00     0.067 C 
BRANCH  21  22
HETATM   22  C   UNL     1       7.546  23.385  55.362  1.00  0.00     0.293 C 
HETATM   23  O   UNL     1       7.142  22.294  55.731  1.00  0.00    -0.259 OA
BRANCH  22  24
HETATM   24  O   UNL     1       8.665  24.008  55.804  1.00  0.00    -0.323 OA
HETATM   25  C   UNL     1       8.782  24.064  57.228  1.00  0.00     0.213 C 
ENDBRANCH  22  24
ENDBRANCH  21  22
ENDBRANCH  10  12
BRANCH   4  26
HETATM   26  C   UNL     1       7.558  30.482  58.716  1.00  0.00     0.060 A 
HETATM   27  C   UNL     1       8.356  30.382  59.870  1.00  0.00     0.031 A 
HETATM   28  C   UNL     1       8.086  31.169  60.993  1.00  0.00     0.002 A 
HETATM   29  C   UNL     1       7.017  32.059  60.978  1.00  0.00     0.000 A 
HETATM   30  C   UNL     1       6.217  32.163  59.842  1.00  0.00     0.002 A 
HETATM   31  C   UNL     1       6.483  31.380  58.713  1.00  0.00     0.031 A 
ENDBRANCH   4  26
TORSDOF 4
ENDMDL
MODEL 5
REMARK VINA RESULT:      -7.8      7.369      9.511
REMARK  4 active torsions:
REMARK  status: ('A' for Active; 'I' for Inactive)
REMARK    1  A    between atoms: N_4  and  C_5 
REMARK    2  A    between atoms: C_16  and  C_17 
REMARK    3  A    between atoms: C_24  and  C_25 
REMARK    4  A    between atoms: C_25  and  O_26 
ROOT
HETATM    1  C   UNL     1       6.396  28.859  56.796  1.00  0.00     0.073 C 
HETATM    2  C   UNL     1       6.360  27.951  55.622  1.00  0.00     0.065 A 
HETATM    3  N   UNL     1       6.921  26.743  55.690  1.00  0.00    -0.170 NA
HETATM    4  N   UNL     1       6.693  26.167  54.468  1.00  0.00    -0.215 N 
HETATM    5  C   UNL     1       6.021  27.048  53.617  1.00  0.00     0.165 A 
HETATM    6  C   UNL     1       5.775  28.193  54.362  1.00  0.00     0.039 A 
HETATM    7  N   UNL     1       5.643  26.856  52.333  1.00  0.00    -0.216 NA
HETATM    8  C   UNL     1       4.948  27.886  51.794  1.00  0.00     0.137 A 
HETATM    9 CL   UNL     1       4.494  27.536  50.167  1.00  0.00    -0.062 Cl
HETATM   10  C   UNL     1       4.605  29.077  52.433  1.00  0.00     0.011 A 
HETATM   11  C   UNL     1       5.054  29.235  53.759  1.00  0.00     0.030 A 
ENDROOT
BRANCH  10  12
HETATM   12  C   UNL     1       3.748  30.153  51.788  1.00  0.00     0.164 C 
HETATM   13  N   UNL     1       2.803  30.659  52.773  1.00  0.00    -0.330 N 
HETATM   14  C   UNL     1       2.913  31.851  53.408  1.00  0.00     0.321 C 
HETATM   15  H   UNL     1       2.130  30.025  53.185  1.00  0.00     0.165 HD
HETATM   16  O   UNL     1       2.215  32.132  54.374  1.00  0.00    -0.247 OA
HETATM   17  N   UNL     1       3.824  32.724  52.892  1.00  0.00    -0.312 N 
HETATM   18  C   UNL     1       4.593  32.503  51.773  1.00  0.00     0.024 C 
HETATM   19  H   UNL     1       3.841  33.628  53.353  1.00  0.00     0.170 HD
HETATM   20  C   UNL     1       5.395  33.677  51.284  1.00  0.00     0.069 C 
HETATM   21  C   UNL     1       4.555  31.283  51.200  1.00  0.00     0.067 C 
BRANCH  21  22
HETATM   22  C   UNL     1       5.342  30.997  49.978  1.00  0.00     0.293 C 
HETATM   23  O   UNL     1       6.487  30.575  49.973  1.00  0.00    -0.259 OA
BRANCH  22  24
HETATM   24  O   UNL     1       4.603  31.301  48.884  1.00  0.00    -0.323 OA
HETATM   25  C   UNL     1       4.571  30.270  47.894  1.00  0.00     0.213 C 
ENDBRANCH  22  24
ENDBRANCH  21  22
ENDBRANCH  10  12
BRANCH   4  26
HETATM   26  C   UNL     1       7.113  24.821  54.238  1.00  0.00     0.060 A 
HETATM   27  C   UNL     1       7.084  23.904  55.304  1.00  0.00     0.031 A 
HETATM   28  C   UNL     1       7.461  22.573  55.111  1.00  0.00     0.002 A 
HETATM   29  C   UNL     1       7.877  22.144  53.854  1.00  0.00     0.000 A 
HETATM   30  C   UNL     1       7.916  23.044  52.792  1.00  0.00     0.002 A 
HETATM   31  C   UNL     1       7.536  24.378  52.978  1.00  0.00     0.031 A 
ENDBRANCH   4  26
TORSDOF 4
ENDMDL
MODEL 6
REMARK VINA RESULT:      -7.7      2.181      2.588
REMARK  4 active torsions:
REMARK  status: ('A' for Active; 'I' for Inactive)
REMARK    1  A    between atoms: N_4  and  C_5 
REMARK    2  A    between atoms: C_16  and  C_17 
REMARK    3  A    between atoms: C_24  and  C_25 
REMARK    4  A    between atoms: C_25  and  O_26 
ROOT
HETATM    1  C   UNL     1       9.957  31.950  61.508  1.00  0.00     0.073 C 
HETATM    2  C   UNL     1       8.771  31.690  60.654  1.00  0.00     0.065 A 
HETATM    3  N   UNL     1       8.874  30.904  59.582  1.00  0.00    -0.170 NA
HETATM    4  N   UNL     1       7.615  30.858  59.043  1.00  0.00    -0.215 N 
HETATM    5  C   UNL     1       6.732  31.663  59.765  1.00  0.00     0.165 A 
HETATM    6  C   UNL     1       7.460  32.183  60.826  1.00  0.00     0.039 A 
HETATM    7  N   UNL     1       5.419  31.895  59.532  1.00  0.00    -0.216 NA
HETATM    8  C   UNL     1       4.817  32.680  60.455  1.00  0.00     0.137 A 
HETATM    9 CL   UNL     1       3.147  32.898  60.082  1.00  0.00    -0.062 Cl
HETATM   10  C   UNL     1       5.417  33.243  61.582  1.00  0.00     0.011 A 
HETATM   11  C   UNL     1       6.793  32.994  61.756  1.00  0.00     0.030 A 
ENDROOT
BRANCH  10  12
HETATM   12  C   UNL     1       4.653  34.047  62.620  1.00  0.00     0.164 C 
HETATM   13  N   UNL     1       5.051  33.602  63.949  1.00  0.00    -0.330 N 
HETATM   14  C   UNL     1       5.878  34.288  64.776  1.00  0.00     0.321 C 
HETATM   15  H   UNL     1       4.892  32.640  64.217  1.00  0.00     0.165 HD
HETATM   16  O   UNL     1       6.348  33.775  65.785  1.00  0.00    -0.247 OA
HETATM   17  N   UNL     1       6.131  35.582  64.436  1.00  0.00    -0.312 N 
HETATM   18  C   UNL     1       5.588  36.242  63.357  1.00  0.00     0.024 C 
HETATM   19  H   UNL     1       6.705  36.084  65.105  1.00  0.00     0.170 HD
HETATM   20  C   UNL     1       5.867  37.717  63.280  1.00  0.00     0.069 C 
HETATM   21  C   UNL     1       4.846  35.535  62.482  1.00  0.00     0.067 C 
BRANCH  21  22
HETATM   22  C   UNL     1       4.214  36.200  61.317  1.00  0.00     0.293 C 
HETATM   23  O   UNL     1       4.823  36.640  60.355  1.00  0.00    -0.259 OA
BRANCH  22  24
HETATM   24  O   UNL     1       2.874  36.260  61.504  1.00  0.00    -0.323 OA
HETATM   25  C   UNL     1       2.116  36.321  60.293  1.00  0.00     0.213 C 
ENDBRANCH  22  24
ENDBRANCH  21  22
ENDBRANCH  10  12
BRANCH   4  26
HETATM   26  C   UNL     1       7.370  30.028  57.906  1.00  0.00     0.060 A 
HETATM   27  C   UNL     1       8.103  28.836  57.759  1.00  0.00     0.031 A 
HETATM   28  C   UNL     1       7.870  27.986  56.675  1.00  0.00     0.002 A 
HETATM   29  C   UNL     1       6.910  28.317  55.724  1.00  0.00     0.000 A 
HETATM   30  C   UNL     1       6.182  29.498  55.856  1.00  0.00     0.002 A 
HETATM   31  C   UNL     1       6.407  30.352  56.942  1.00  0.00     0.031 A 
ENDBRANCH   4  26
TORSDOF 4
ENDMDL
MODEL 7
REMARK VINA RESULT:      -7.7      3.794      7.864
REMARK  4 active torsions:
REMARK  status: ('A' for Active; 'I' for Inactive)
REMARK    1  A    between atoms: N_4  and  C_5 
REMARK    2  A    between atoms: C_16  and  C_17 
REMARK    3  A    between atoms: C_24  and  C_25 
REMARK    4  A    between atoms: C_25  and  O_26 
ROOT
HETATM    1  C   UNL     1       9.602  30.078  62.516  1.00  0.00     0.073 C 
HETATM    2  C   UNL     1       8.481  30.934  62.053  1.00  0.00     0.065 A 
HETATM    3  N   UNL     1       7.854  31.741  62.910  1.00  0.00    -0.170 NA
HETATM    4  N   UNL     1       6.906  32.393  62.166  1.00  0.00    -0.215 N 
HETATM    5  C   UNL     1       6.916  31.951  60.842  1.00  0.00     0.165 A 
HETATM    6  C   UNL     1       7.949  31.029  60.750  1.00  0.00     0.039 A 
HETATM    7  N   UNL     1       6.120  32.334  59.818  1.00  0.00    -0.216 NA
HETATM    8  C   UNL     1       6.421  31.761  58.630  1.00  0.00     0.137 A 
HETATM    9 CL   UNL     1       5.367  32.331  57.388  1.00  0.00    -0.062 Cl
HETATM   10  C   UNL     1       7.445  30.847  58.387  1.00  0.00     0.011 A 
HETATM   11  C   UNL     1       8.222  30.459  59.497  1.00  0.00     0.030 A 
ENDROOT
BRANCH  10  12
HETATM   12  C   UNL     1       7.775  30.310  57.004  1.00  0.00     0.164 C 
HETATM   13  N   UNL     1       9.220  30.327  56.823  1.00  0.00    -0.330 N 
HETATM   14  C   UNL     1      10.017  29.232  56.875  1.00  0.00     0.321 C 
HETATM   15  H   UNL     1       9.714  31.209  56.868  1.00  0.00     0.165 HD
HETATM   16  O   UNL     1      11.237  29.327  56.929  1.00  0.00    -0.247 OA
HETATM   17  N   UNL     1       9.385  28.026  56.835  1.00  0.00    -0.312 N 
HETATM   18  C   UNL     1       8.026  27.843  56.709  1.00  0.00     0.024 C 
HETATM   19  H   UNL     1      10.011  27.228  56.817  1.00  0.00     0.170 HD
HETATM   20  C   UNL     1       7.570  26.426  56.504  1.00  0.00     0.069 C 
HETATM   21  C   UNL     1       7.228  28.928  56.755  1.00  0.00     0.067 C 
BRANCH  21  22
HETATM   22  C   UNL     1       5.760  28.793  56.598  1.00  0.00     0.293 C 
HETATM   23  O   UNL     1       4.992  28.480  57.492  1.00  0.00    -0.259 OA
BRANCH  22  24
HETATM   24  O   UNL     1       5.419  29.046  55.311  1.00  0.00    -0.323 OA
HETATM   25  C   UNL     1       4.633  28.020  54.701  1.00  0.00     0.213 C 
ENDBRANCH  22  24
ENDBRANCH  21  22
ENDBRANCH  10  12
BRANCH   4  26
HETATM   26  C   UNL     1       6.099  33.398  62.785  1.00  0.00     0.060 A 
HETATM   27  C   UNL     1       5.274  33.040  63.867  1.00  0.00     0.031 A 
HETATM   28  C   UNL     1       4.492  34.000  64.514  1.00  0.00     0.002 A 
HETATM   29  C   UNL     1       4.521  35.324  64.087  1.00  0.00     0.000 A 
HETATM   30  C   UNL     1       5.330  35.689  63.013  1.00  0.00     0.002 A 
HETATM   31  C   UNL     1       6.119  34.733  62.363  1.00  0.00     0.031 A 
ENDBRANCH   4  26
TORSDOF 4
ENDMDL
MODEL 8
REMARK VINA RESULT:      -7.5      2.759      3.879
REMARK  4 active torsions:
REMARK  status: ('A' for Active; 'I' for Inactive)
REMARK    1  A    between atoms: N_4  and  C_5 
REMARK    2  A    between atoms: C_16  and  C_17 
REMARK    3  A    between atoms: C_24  and  C_25 
REMARK    4  A    between atoms: C_25  and  O_26 
ROOT
HETATM    1  C   UNL     1       9.249  30.843  59.342  1.00  0.00     0.073 C 
HETATM    2  C   UNL     1       8.269  30.245  58.401  1.00  0.00     0.065 A 
HETATM    3  N   UNL     1       8.655  29.309  57.534  1.00  0.00    -0.170 NA
HETATM    4  N   UNL     1       7.523  28.961  56.845  1.00  0.00    -0.215 N 
HETATM    5  C   UNL     1       6.430  29.725  57.261  1.00  0.00     0.165 A 
HETATM    6  C   UNL     1       6.893  30.538  58.286  1.00  0.00     0.039 A 
HETATM    7  N   UNL     1       5.157  29.694  56.805  1.00  0.00    -0.216 NA
HETATM    8  C   UNL     1       4.308  30.521  57.459  1.00  0.00     0.137 A 
HETATM    9 CL   UNL     1       2.711  30.391  56.821  1.00  0.00    -0.062 Cl
HETATM   10  C   UNL     1       4.629  31.366  58.521  1.00  0.00     0.011 A 
HETATM   11  C   UNL     1       5.976  31.381  58.932  1.00  0.00     0.030 A 
ENDROOT
BRANCH  10  12
HETATM   12  C   UNL     1       3.600  32.204  59.261  1.00  0.00     0.164 C 
HETATM   13  N   UNL     1       3.437  31.674  60.608  1.00  0.00    -0.330 N 
HETATM   14  C   UNL     1       3.948  32.242  61.727  1.00  0.00     0.321 C 
HETATM   15  H   UNL     1       3.113  30.724  60.729  1.00  0.00     0.165 HD
HETATM   16  O   UNL     1       3.966  31.649  62.799  1.00  0.00    -0.247 OA
HETATM   17  N   UNL     1       4.414  33.516  61.596  1.00  0.00    -0.312 N 
HETATM   18  C   UNL     1       4.366  34.266  60.443  1.00  0.00     0.024 C 
HETATM   19  H   UNL     1       4.735  33.933  62.463  1.00  0.00     0.170 HD
HETATM   20  C   UNL     1       4.772  35.707  60.579  1.00  0.00     0.069 C 
HETATM   21  C   UNL     1       3.949  33.670  59.308  1.00  0.00     0.067 C 
BRANCH  21  22
HETATM   22  C   UNL     1       3.853  34.436  58.043  1.00  0.00     0.293 C 
HETATM   23  O   UNL     1       2.843  34.991  57.643  1.00  0.00    -0.259 OA
BRANCH  22  24
HETATM   24  O   UNL     1       5.045  34.397  57.400  1.00  0.00    -0.323 OA
HETATM   25  C   UNL     1       4.947  34.128  56.000  1.00  0.00     0.213 C 
ENDBRANCH  22  24
ENDBRANCH  21  22
ENDBRANCH  10  12
BRANCH   4  26
HETATM   26  C   UNL     1       7.586  27.914  55.875  1.00  0.00     0.060 A 
HETATM   27  C   UNL     1       7.546  26.576  56.310  1.00  0.00     0.031 A 
HETATM   28  C   UNL     1       7.578  25.526  55.390  1.00  0.00     0.002 A 
HETATM   29  C   UNL     1       7.655  25.798  54.027  1.00  0.00     0.000 A 
HETATM   30  C   UNL     1       7.701  27.118  53.585  1.00  0.00     0.002 A 
HETATM   31  C   UNL     1       7.666  28.175  54.502  1.00  0.00     0.031 A 
ENDBRANCH   4  26
TORSDOF 4
ENDMDL
MODEL 9
REMARK VINA RESULT:      -7.4      8.766     11.521
REMARK  4 active torsions:
REMARK  status: ('A' for Active; 'I' for Inactive)
REMARK    1  A    between atoms: N_4  and  C_5 
REMARK    2  A    between atoms: C_16  and  C_17 
REMARK    3  A    between atoms: C_24  and  C_25 
REMARK    4  A    between atoms: C_25  and  O_26 
ROOT
HETATM    1  C   UNL     1       5.302  24.376  52.574  1.00  0.00     0.073 C 
HETATM    2  C   UNL     1       5.430  25.778  53.044  1.00  0.00     0.065 A 
HETATM    3  N   UNL     1       5.880  26.036  54.272  1.00  0.00    -0.170 NA
HETATM    4  N   UNL     1       5.897  27.402  54.373  1.00  0.00    -0.215 N 
HETATM    5  C   UNL     1       5.408  27.996  53.208  1.00  0.00     0.165 A 
HETATM    6  C   UNL     1       5.130  26.958  52.331  1.00  0.00     0.039 A 
HETATM    7  N   UNL     1       5.246  29.312  52.935  1.00  0.00    -0.216 NA
HETATM    8  C   UNL     1       4.803  29.574  51.684  1.00  0.00     0.137 A 
HETATM    9 CL   UNL     1       4.652  31.273  51.429  1.00  0.00    -0.062 Cl
HETATM   10  C   UNL     1       4.515  28.635  50.694  1.00  0.00     0.011 A 
HETATM   11  C   UNL     1       4.670  27.279  51.045  1.00  0.00     0.030 A 
ENDROOT
BRANCH  10  12
HETATM   12  C   UNL     1       4.102  29.011  49.281  1.00  0.00     0.164 C 
HETATM   13  N   UNL     1       5.035  28.410  48.339  1.00  0.00    -0.330 N 
HETATM   14  C   UNL     1       4.768  27.322  47.576  1.00  0.00     0.321 C 
HETATM   15  H   UNL     1       6.014  28.662  48.384  1.00  0.00     0.165 HD
HETATM   16  O   UNL     1       5.652  26.733  46.965  1.00  0.00    -0.247 OA
HETATM   17  N   UNL     1       3.462  26.941  47.508  1.00  0.00    -0.312 N 
HETATM   18  C   UNL     1       2.411  27.592  48.113  1.00  0.00     0.024 C 
HETATM   19  H   UNL     1       3.288  26.161  46.884  1.00  0.00     0.170 HD
HETATM   20  C   UNL     1       1.037  27.100  47.752  1.00  0.00     0.069 C 
HETATM   21  C   UNL     1       2.686  28.613  48.949  1.00  0.00     0.067 C 
BRANCH  21  22
HETATM   22  C   UNL     1       1.593  29.367  49.607  1.00  0.00     0.293 C 
HETATM   23  O   UNL     1       1.094  29.071  50.680  1.00  0.00    -0.259 OA
BRANCH  22  24
HETATM   24  O   UNL     1       1.226  30.408  48.821  1.00  0.00    -0.323 OA
HETATM   25  C   UNL     1       1.405  31.691  49.426  1.00  0.00     0.213 C 
ENDBRANCH  22  24
ENDBRANCH  21  22
ENDBRANCH  10  12
BRANCH   4  26
HETATM   26  C   UNL     1       6.405  28.011  55.562  1.00  0.00     0.060 A 
HETATM   27  C   UNL     1       7.782  27.929  55.837  1.00  0.00     0.031 A 
HETATM   28  C   UNL     1       8.319  28.535  56.976  1.00  0.00     0.002 A 
HETATM   29  C   UNL     1       7.488  29.224  57.854  1.00  0.00     0.000 A 
HETATM   30  C   UNL     1       6.122  29.306  57.596  1.00  0.00     0.002 A 
HETATM   31  C   UNL     1       5.578  28.704  56.455  1.00  0.00     0.031 A 
ENDBRANCH   4  26
TORSDOF 4
ENDMDL
MODEL 10
REMARK VINA RESULT:      -7.1      4.097      8.367
REMARK  4 active torsions:
REMARK  status: ('A' for Active; 'I' for Inactive)
REMARK    1  A    between atoms: N_4  and  C_5 
REMARK    2  A    between atoms: C_16  and  C_17 
REMARK    3  A    between atoms: C_24  and  C_25 
REMARK    4  A    between atoms: C_25  and  O_26 
ROOT
HETATM    1  C   UNL     1       7.983  31.930  61.249  1.00  0.00     0.073 C 
HETATM    2  C   UNL     1       6.813  32.188  60.373  1.00  0.00     0.065 A 
HETATM    3  N   UNL     1       5.884  33.073  60.735  1.00  0.00    -0.170 NA
HETATM    4  N   UNL     1       4.975  33.085  59.710  1.00  0.00    -0.215 N 
HETATM    5  C   UNL     1       5.322  32.161  58.722  1.00  0.00     0.165 A 
HETATM    6  C   UNL     1       6.523  31.596  59.125  1.00  0.00     0.039 A 
HETATM    7  N   UNL     1       4.666  31.865  57.576  1.00  0.00    -0.216 NA
HETATM    8  C   UNL     1       5.294  30.961  56.789  1.00  0.00     0.137 A 
HETATM    9 CL   UNL     1       4.392  30.669  55.348  1.00  0.00    -0.062 Cl
HETATM   10  C   UNL     1       6.514  30.339  57.054  1.00  0.00     0.011 A 
HETATM   11  C   UNL     1       7.136  30.661  58.277  1.00  0.00     0.030 A 
ENDROOT
BRANCH  10  12
HETATM   12  C   UNL     1       7.198  29.396  56.079  1.00  0.00     0.164 C 
HETATM   13  N   UNL     1       8.613  29.734  56.008  1.00  0.00    -0.330 N 
HETATM   14  C   UNL     1       9.607  29.023  56.595  1.00  0.00     0.321 C 
HETATM   15  H   UNL     1       8.886  30.655  55.691  1.00  0.00     0.165 HD
HETATM   16  O   UNL     1      10.746  29.464  56.685  1.00  0.00    -0.247 OA
HETATM   17  N   UNL     1       9.271  27.784  57.052  1.00  0.00    -0.312 N 
HETATM   18  C   UNL     1       8.031  27.199  56.927  1.00  0.00     0.024 C 
HETATM   19  H   UNL     1      10.048  27.256  57.432  1.00  0.00     0.170 HD
HETATM   20  C   UNL     1       7.939  25.757  57.343  1.00  0.00     0.069 C 
HETATM   21  C   UNL     1       7.020  27.941  56.433  1.00  0.00     0.067 C 
BRANCH  21  22
HETATM   22  C   UNL     1       5.671  27.355  56.252  1.00  0.00     0.293 C 
HETATM   23  O   UNL     1       4.908  27.074  57.162  1.00  0.00    -0.259 OA
BRANCH  22  24
HETATM   24  O   UNL     1       5.437  27.161  54.931  1.00  0.00    -0.323 OA
HETATM   25  C   UNL     1       5.515  25.796  54.516  1.00  0.00     0.213 C 
ENDBRANCH  22  24
ENDBRANCH  21  22
ENDBRANCH  10  12
BRANCH   4  26
HETATM   26  C   UNL     1       3.876  33.997  59.760  1.00  0.00     0.060 A 
HETATM   27  C   UNL     1       3.902  35.144  58.945  1.00  0.00     0.031 A 
HETATM   28  C   UNL     1       2.834  36.044  58.946  1.00  0.00     0.002 A 
HETATM   29  C   UNL     1       1.731  35.813  59.763  1.00  0.00     0.000 A 
HETATM   30  C   UNL     1       1.696  34.683  60.578  1.00  0.00     0.002 A 
HETATM   31  C   UNL     1       2.762  33.776  60.579  1.00  0.00     0.031 A 
ENDBRANCH   4  26
TORSDOF 4
ENDMDL
