MODEL 1
REMARK VINA RESULT:      -9.9      0.000      0.000
REMARK  9 active torsions:
REMARK  status: ('A' for Active; 'I' for Inactive)
REMARK    1  A    between atoms: C_2  and  O_3 
REMARK    2  A    between atoms: O_3  and  C_4 
REMARK    3  A    between atoms: C_4  and  C_5 
REMARK    4  A    between atoms: C_10  and  C_11 
REMARK       I    between atoms: C_11  and  N_12 
REMARK    5  A    between atoms: N_12  and  C_13 
REMARK    6  A    between atoms: C_15  and  C_16 
REMARK    7  A    between atoms: C_16  and  C_17 
REMARK    8  A    between atoms: C_17  and  C_18 
REMARK    9  A    between atoms: C_18  and  C_19 
ROOT
HETATM    1  C   UNL     1       5.539  28.601  54.368  1.00  0.00     0.725 A 
HETATM    2  N   UNL     1       6.230  28.264  53.308  1.00  0.00    -0.046 NA
HETATM    3  C   UNL     1       5.424  27.376  52.651  1.00  0.00     0.165 A 
HETATM    4  N   UNL     1       4.241  27.156  53.236  1.00  0.00    -0.144 NA
HETATM    5  N   UNL     1       4.340  27.942  54.323  1.00  0.00    -0.106 N 
HETATM    6  H   UNL     1       3.568  27.978  54.974  1.00  0.00     0.208 HD
ENDROOT
BRANCH   1   7
HETATM    7  N   UNL     1       5.872  29.466  55.381  1.00  0.00    -0.152 N 
HETATM    8  C   UNL     1       5.879  29.062  56.699  1.00  0.00     0.272 C 
HETATM    9  O   UNL     1       5.492  27.979  57.123  1.00  0.00    -0.267 OA
HETATM   10  H   UNL     1       6.085  30.427  55.171  1.00  0.00     0.187 HD
BRANCH   8  11
HETATM   11  C   UNL     1       6.380  30.088  57.636  1.00  0.00     0.063 A 
HETATM   12  C   UNL     1       5.677  31.150  58.200  1.00  0.00     0.022 A 
HETATM   13  N   UNL     1       6.568  31.887  58.940  1.00  0.00    -0.354 N 
HETATM   14  C   UNL     1       4.266  31.606  58.076  1.00  0.00     0.069 C 
HETATM   15  C   UNL     1       7.848  31.404  58.803  1.00  0.00     0.115 A 
HETATM   16  H   UNL     1       6.354  32.742  59.440  1.00  0.00     0.166 HD
HETATM   17  C   UNL     1       7.753  30.225  58.071  1.00  0.00    -0.011 A 
HETATM   18  C   UNL     1       8.865  29.286  57.730  1.00  0.00     0.052 C 
BRANCH  15  19
HETATM   19  C   UNL     1       8.967  32.137  59.359  1.00  0.00     0.310 C 
HETATM   20  O   UNL     1      10.047  32.261  58.794  1.00  0.00    -0.258 OA
BRANCH  19  21
HETATM   21  O   UNL     1       8.678  32.594  60.606  1.00  0.00    -0.317 OA
BRANCH  21  22
HETATM   22  C   UNL     1       8.972  31.702  61.689  1.00  0.00     0.175 C 
HETATM   23  C   UNL     1       8.280  32.157  62.959  1.00  0.00     0.034 C 
ENDBRANCH  21  22
ENDBRANCH  19  21
ENDBRANCH  15  19
ENDBRANCH   8  11
ENDBRANCH   1   7
BRANCH   3  24
HETATM   24  C   UNL     1       5.865  26.709  51.400  1.00  0.00     0.083 C 
BRANCH  24  25
HETATM   25  C   UNL     1       6.284  25.262  51.654  1.00  0.00     0.012 C 
BRANCH  25  26
HETATM   26  C   UNL     1       7.677  25.185  52.280  1.00  0.00     0.041 C 
BRANCH  26  27
HETATM   27  C   UNL     1       7.660  24.461  53.590  1.00  0.00    -0.030 A 
HETATM   28  C   UNL     1       7.768  23.048  53.794  1.00  0.00    -0.002 A 
HETATM   29  C   UNL     1       7.690  22.818  55.169  1.00  0.00     0.042 A 
HETATM   30  C   UNL     1       7.922  21.939  52.937  1.00  0.00     0.014 A 
HETATM   31  C   UNL     1       7.758  21.536  55.729  1.00  0.00     0.030 A 
HETATM   32  N   UNL     1       7.540  24.042  55.776  1.00  0.00    -0.365 N 
HETATM   33  C   UNL     1       7.914  20.455  54.856  1.00  0.00     0.002 A 
HETATM   34  C   UNL     1       7.995  20.650  53.479  1.00  0.00     0.001 A 
HETATM   35  H   UNL     1       7.450  24.181  56.773  1.00  0.00     0.165 HD
HETATM   36  C   UNL     1       7.524  25.037  54.838  1.00  0.00     0.096 A 
ENDBRANCH  26  27
ENDBRANCH  25  26
ENDBRANCH  24  25
ENDBRANCH   3  24
TORSDOF 9
ENDMDL
MODEL 2
REMARK VINA RESULT:      -9.8      2.581      4.112
REMARK  9 active torsions:
REMARK  status: ('A' for Active; 'I' for Inactive)
REMARK    1  A    between atoms: C_2  and  O_3 
REMARK    2  A    between atoms: O_3  and  C_4 
REMARK    3  A    between atoms: C_4  and  C_5 
REMARK    4  A    between atoms: C_10  and  C_11 
REMARK       I    between atoms: C_11  and  N_12 
REMARK    5  A    between atoms: N_12  and  C_13 
REMARK    6  A    between atoms: C_15  and  C_16 
REMARK    7  A    between atoms: C_16  and  C_17 
REMARK    8  A    between atoms: C_17  and  C_18 
REMARK    9  A    between atoms: C_18  and  C_19 
ROOT
HETATM    1  C   UNL     1       7.866  29.893  57.915  1.00  0.00     0.725 A 
HETATM    2  N   UNL     1       7.278  29.378  56.865  1.00  0.00    -0.046 NA
HETATM    3  C   UNL     1       8.312  28.998  56.054  1.00  0.00     0.165 A 
HETATM    4  N   UNL     1       9.530  29.227  56.558  1.00  0.00    -0.144 NA
HETATM    5  N   UNL     1       9.220  29.797  57.736  1.00  0.00    -0.106 N 
HETATM    6  H   UNL     1       9.967  30.087  58.353  1.00  0.00     0.208 HD
ENDROOT
BRANCH   1   7
HETATM    7  N   UNL     1       7.304  30.436  59.045  1.00  0.00    -0.152 N 
HETATM    8  C   UNL     1       7.688  31.674  59.515  1.00  0.00     0.272 C 
HETATM    9  O   UNL     1       8.610  32.356  59.084  1.00  0.00    -0.267 OA
HETATM   10  H   UNL     1       6.622  29.913  59.567  1.00  0.00     0.187 HD
BRANCH   8  11
HETATM   11  C   UNL     1       6.891  32.149  60.665  1.00  0.00     0.063 A 
HETATM   12  C   UNL     1       5.723  32.908  60.643  1.00  0.00     0.022 A 
HETATM   13  N   UNL     1       5.385  33.182  61.945  1.00  0.00    -0.354 N 
HETATM   14  C   UNL     1       4.908  33.475  59.534  1.00  0.00     0.069 C 
HETATM   15  C   UNL     1       6.341  32.715  62.816  1.00  0.00     0.115 A 
HETATM   16  H   UNL     1       4.599  33.746  62.244  1.00  0.00     0.166 HD
HETATM   17  C   UNL     1       7.248  31.983  62.057  1.00  0.00    -0.011 A 
HETATM   18  C   UNL     1       8.423  31.208  62.560  1.00  0.00     0.052 C 
BRANCH  15  19
HETATM   19  C   UNL     1       6.270  33.047  64.223  1.00  0.00     0.310 C 
HETATM   20  O   UNL     1       7.238  33.386  64.892  1.00  0.00    -0.258 OA
BRANCH  19  21
HETATM   21  O   UNL     1       5.012  32.862  64.704  1.00  0.00    -0.317 OA
BRANCH  21  22
HETATM   22  C   UNL     1       4.580  33.784  65.714  1.00  0.00     0.175 C 
HETATM   23  C   UNL     1       3.493  34.695  65.177  1.00  0.00     0.034 C 
ENDBRANCH  21  22
ENDBRANCH  19  21
ENDBRANCH  15  19
ENDBRANCH   8  11
ENDBRANCH   1   7
BRANCH   3  24
HETATM   24  C   UNL     1       8.068  28.402  54.717  1.00  0.00     0.083 C 
BRANCH  24  25
HETATM   25  C   UNL     1       7.020  27.291  54.782  1.00  0.00     0.012 C 
BRANCH  25  26
HETATM   26  C   UNL     1       7.446  26.073  53.962  1.00  0.00     0.041 C 
BRANCH  26  27
HETATM   27  C   UNL     1       7.562  24.844  54.808  1.00  0.00    -0.030 A 
HETATM   28  C   UNL     1       7.698  23.494  54.352  1.00  0.00    -0.002 A 
HETATM   29  C   UNL     1       7.756  22.675  55.481  1.00  0.00     0.042 A 
HETATM   30  C   UNL     1       7.774  22.887  53.081  1.00  0.00     0.014 A 
HETATM   31  C   UNL     1       7.887  21.283  55.404  1.00  0.00     0.030 A 
HETATM   32  N   UNL     1       7.659  23.496  56.581  1.00  0.00    -0.365 N 
HETATM   33  C   UNL     1       7.963  20.709  54.132  1.00  0.00     0.002 A 
HETATM   34  C   UNL     1       7.907  21.497  52.985  1.00  0.00     0.001 A 
HETATM   35  H   UNL     1       7.666  23.175  57.539  1.00  0.00     0.165 HD
HETATM   36  C   UNL     1       7.545  24.801  56.188  1.00  0.00     0.096 A 
ENDBRANCH  26  27
ENDBRANCH  25  26
ENDBRANCH  24  25
ENDBRANCH   3  24
TORSDOF 9
ENDMDL
MODEL 3
REMARK VINA RESULT:      -9.8      2.305      3.865
REMARK  9 active torsions:
REMARK  status: ('A' for Active; 'I' for Inactive)
REMARK    1  A    between atoms: C_2  and  O_3 
REMARK    2  A    between atoms: O_3  and  C_4 
REMARK    3  A    between atoms: C_4  and  C_5 
REMARK    4  A    between atoms: C_10  and  C_11 
REMARK       I    between atoms: C_11  and  N_12 
REMARK    5  A    between atoms: N_12  and  C_13 
REMARK    6  A    between atoms: C_15  and  C_16 
REMARK    7  A    between atoms: C_16  and  C_17 
REMARK    8  A    between atoms: C_17  and  C_18 
REMARK    9  A    between atoms: C_18  and  C_19 
ROOT
HETATM    1  C   UNL     1       7.942  29.456  57.330  1.00  0.00     0.725 A 
HETATM    2  N   UNL     1       7.100  28.917  56.485  1.00  0.00    -0.046 NA
HETATM    3  C   UNL     1       7.831  28.748  55.343  1.00  0.00     0.165 A 
HETATM    4  N   UNL     1       9.109  29.134  55.435  1.00  0.00    -0.144 NA
HETATM    5  N   UNL     1       9.153  29.580  56.703  1.00  0.00    -0.106 N 
HETATM    6  H   UNL     1      10.023  29.947  57.063  1.00  0.00     0.208 HD
ENDROOT
BRANCH   1   7
HETATM    7  N   UNL     1       7.739  29.840  58.632  1.00  0.00    -0.152 N 
HETATM    8  C   UNL     1       8.274  31.011  59.129  1.00  0.00     0.272 C 
HETATM    9  O   UNL     1       9.055  31.752  58.544  1.00  0.00    -0.267 OA
HETATM   10  H   UNL     1       7.219  29.247  59.256  1.00  0.00     0.187 HD
BRANCH   8  11
HETATM   11  C   UNL     1       7.850  31.323  60.509  1.00  0.00     0.063 A 
HETATM   12  C   UNL     1       8.490  30.985  61.699  1.00  0.00     0.022 A 
HETATM   13  N   UNL     1       7.691  31.409  62.732  1.00  0.00    -0.354 N 
HETATM   14  C   UNL     1       9.745  30.241  61.995  1.00  0.00     0.069 C 
HETATM   15  C   UNL     1       6.506  31.926  62.264  1.00  0.00     0.115 A 
HETATM   16  H   UNL     1       7.879  31.272  63.718  1.00  0.00     0.166 HD
HETATM   17  C   UNL     1       6.611  31.973  60.878  1.00  0.00    -0.011 A 
HETATM   18  C   UNL     1       5.611  32.532  59.918  1.00  0.00     0.052 C 
BRANCH  15  19
HETATM   19  C   UNL     1       5.447  32.272  63.188  1.00  0.00     0.310 C 
HETATM   20  O   UNL     1       4.518  31.525  63.470  1.00  0.00    -0.258 OA
BRANCH  19  21
HETATM   21  O   UNL     1       5.587  33.549  63.633  1.00  0.00    -0.317 OA
BRANCH  21  22
HETATM   22  C   UNL     1       5.640  33.719  65.056  1.00  0.00     0.175 C 
HETATM   23  C   UNL     1       7.077  33.753  65.537  1.00  0.00     0.034 C 
ENDBRANCH  21  22
ENDBRANCH  19  21
ENDBRANCH  15  19
ENDBRANCH   8  11
ENDBRANCH   1   7
BRANCH   3  24
HETATM   24  C   UNL     1       7.220  28.197  54.107  1.00  0.00     0.083 C 
BRANCH  24  25
HETATM   25  C   UNL     1       6.642  26.802  54.341  1.00  0.00     0.012 C 
BRANCH  25  26
HETATM   26  C   UNL     1       7.548  25.717  53.758  1.00  0.00     0.041 C 
BRANCH  26  27
HETATM   27  C   UNL     1       7.693  24.554  54.688  1.00  0.00    -0.030 A 
HETATM   28  C   UNL     1       7.813  23.173  54.328  1.00  0.00    -0.002 A 
HETATM   29  C   UNL     1       7.910  22.439  55.512  1.00  0.00     0.042 A 
HETATM   30  C   UNL     1       7.844  22.474  53.104  1.00  0.00     0.014 A 
HETATM   31  C   UNL     1       8.038  21.045  55.533  1.00  0.00     0.030 A 
HETATM   32  N   UNL     1       7.852  23.339  56.551  1.00  0.00    -0.365 N 
HETATM   33  C   UNL     1       8.069  20.379  54.305  1.00  0.00     0.002 A 
HETATM   34  C   UNL     1       7.973  21.081  53.105  1.00  0.00     0.001 A 
HETATM   35  H   UNL     1       7.892  23.089  57.529  1.00  0.00     0.165 HD
HETATM   36  C   UNL     1       7.724  24.612  56.068  1.00  0.00     0.096 A 
ENDBRANCH  26  27
ENDBRANCH  25  26
ENDBRANCH  24  25
ENDBRANCH   3  24
TORSDOF 9
ENDMDL
MODEL 4
REMARK VINA RESULT:      -9.7      2.849      4.677
REMARK  9 active torsions:
REMARK  status: ('A' for Active; 'I' for Inactive)
REMARK    1  A    between atoms: C_2  and  O_3 
REMARK    2  A    between atoms: O_3  and  C_4 
REMARK    3  A    between atoms: C_4  and  C_5 
REMARK    4  A    between atoms: C_10  and  C_11 
REMARK       I    between atoms: C_11  and  N_12 
REMARK    5  A    between atoms: N_12  and  C_13 
REMARK    6  A    between atoms: C_15  and  C_16 
REMARK    7  A    between atoms: C_16  and  C_17 
REMARK    8  A    between atoms: C_17  and  C_18 
REMARK    9  A    between atoms: C_18  and  C_19 
ROOT
HETATM    1  C   UNL     1       8.069  29.442  58.554  1.00  0.00     0.725 A 
HETATM    2  N   UNL     1       7.537  28.329  58.117  1.00  0.00    -0.046 NA
HETATM    3  C   UNL     1       8.250  28.035  56.988  1.00  0.00     0.165 A 
HETATM    4  N   UNL     1       9.229  28.903  56.706  1.00  0.00    -0.144 NA
HETATM    5  N   UNL     1       9.092  29.785  57.711  1.00  0.00    -0.106 N 
HETATM    6  H   UNL     1       9.717  30.578  57.757  1.00  0.00     0.208 HD
ENDROOT
BRANCH   1   7
HETATM    7  N   UNL     1       7.737  30.187  59.659  1.00  0.00    -0.152 N 
HETATM    8  C   UNL     1       7.246  31.471  59.540  1.00  0.00     0.272 C 
HETATM    9  O   UNL     1       7.163  32.118  58.503  1.00  0.00    -0.267 OA
HETATM   10  H   UNL     1       7.884  29.812  60.580  1.00  0.00     0.187 HD
BRANCH   8  11
HETATM   11  C   UNL     1       6.828  32.072  60.823  1.00  0.00     0.063 A 
HETATM   12  C   UNL     1       7.619  32.350  61.936  1.00  0.00     0.022 A 
HETATM   13  N   UNL     1       6.790  32.825  62.921  1.00  0.00    -0.354 N 
HETATM   14  C   UNL     1       9.067  32.159  62.219  1.00  0.00     0.069 C 
HETATM   15  C   UNL     1       5.472  32.777  62.530  1.00  0.00     0.115 A 
HETATM   16  H   UNL     1       7.074  33.080  63.859  1.00  0.00     0.166 HD
HETATM   17  C   UNL     1       5.468  32.400  61.191  1.00  0.00    -0.011 A 
HETATM   18  C   UNL     1       4.279  32.286  60.292  1.00  0.00     0.052 C 
BRANCH  15  19
HETATM   19  C   UNL     1       4.419  33.069  63.479  1.00  0.00     0.310 C 
HETATM   20  O   UNL     1       3.322  33.514  63.163  1.00  0.00    -0.258 OA
BRANCH  19  21
HETATM   21  O   UNL     1       4.838  32.852  64.754  1.00  0.00    -0.317 OA
BRANCH  21  22
HETATM   22  C   UNL     1       4.661  33.940  65.670  1.00  0.00     0.175 C 
HETATM   23  C   UNL     1       5.914  34.152  66.496  1.00  0.00     0.034 C 
ENDBRANCH  21  22
ENDBRANCH  19  21
ENDBRANCH  15  19
ENDBRANCH   8  11
ENDBRANCH   1   7
BRANCH   3  24
HETATM   24  C   UNL     1       7.925  26.853  56.152  1.00  0.00     0.083 C 
BRANCH  24  25
HETATM   25  C   UNL     1       7.993  25.558  56.962  1.00  0.00     0.012 C 
BRANCH  25  26
HETATM   26  C   UNL     1       6.819  24.635  56.639  1.00  0.00     0.041 C 
BRANCH  26  27
HETATM   27  C   UNL     1       7.072  23.820  55.410  1.00  0.00    -0.030 A 
HETATM   28  C   UNL     1       7.665  22.518  55.346  1.00  0.00    -0.002 A 
HETATM   29  C   UNL     1       7.719  22.149  54.001  1.00  0.00     0.042 A 
HETATM   30  C   UNL     1       8.168  21.618  56.308  1.00  0.00     0.014 A 
HETATM   31  C   UNL     1       8.248  20.926  53.570  1.00  0.00     0.030 A 
HETATM   32  N   UNL     1       7.179  23.185  53.275  1.00  0.00    -0.365 N 
HETATM   33  C   UNL     1       8.736  20.052  54.545  1.00  0.00     0.002 A 
HETATM   34  C   UNL     1       8.698  20.390  55.896  1.00  0.00     0.001 A 
HETATM   35  H   UNL     1       7.094  23.197  52.269  1.00  0.00     0.165 HD
HETATM   36  C   UNL     1       6.784  24.193  54.112  1.00  0.00     0.096 A 
ENDBRANCH  26  27
ENDBRANCH  25  26
ENDBRANCH  24  25
ENDBRANCH   3  24
TORSDOF 9
ENDMDL
MODEL 5
REMARK VINA RESULT:      -9.3      2.927     10.633
REMARK  9 active torsions:
REMARK  status: ('A' for Active; 'I' for Inactive)
REMARK    1  A    between atoms: C_2  and  O_3 
REMARK    2  A    between atoms: O_3  and  C_4 
REMARK    3  A    between atoms: C_4  and  C_5 
REMARK    4  A    between atoms: C_10  and  C_11 
REMARK       I    between atoms: C_11  and  N_12 
REMARK    5  A    between atoms: N_12  and  C_13 
REMARK    6  A    between atoms: C_15  and  C_16 
REMARK    7  A    between atoms: C_16  and  C_17 
REMARK    8  A    between atoms: C_17  and  C_18 
REMARK    9  A    between atoms: C_18  and  C_19 
ROOT
HETATM    1  C   UNL     1       7.414  28.395  57.909  1.00  0.00     0.725 A 
HETATM    2  N   UNL     1       8.332  28.967  58.647  1.00  0.00    -0.046 NA
HETATM    3  C   UNL     1       7.862  30.235  58.846  1.00  0.00     0.165 A 
HETATM    4  N   UNL     1       6.671  30.483  58.287  1.00  0.00    -0.144 NA
HETATM    5  N   UNL     1       6.411  29.303  57.698  1.00  0.00    -0.106 N 
HETATM    6  H   UNL     1       5.549  29.192  57.181  1.00  0.00     0.208 HD
ENDROOT
BRANCH   1   7
HETATM    7  N   UNL     1       7.374  27.117  57.410  1.00  0.00    -0.152 N 
HETATM    8  C   UNL     1       7.216  26.875  56.061  1.00  0.00     0.272 C 
HETATM    9  O   UNL     1       6.980  27.715  55.201  1.00  0.00    -0.267 OA
HETATM   10  H   UNL     1       7.426  26.331  58.036  1.00  0.00     0.187 HD
BRANCH   8  11
HETATM   11  C   UNL     1       7.320  25.448  55.693  1.00  0.00     0.063 A 
HETATM   12  C   UNL     1       6.525  24.734  54.799  1.00  0.00     0.022 A 
HETATM   13  N   UNL     1       6.935  23.424  54.840  1.00  0.00    -0.354 N 
HETATM   14  C   UNL     1       5.366  25.118  53.949  1.00  0.00     0.069 C 
HETATM   15  C   UNL     1       7.903  23.235  55.798  1.00  0.00     0.115 A 
HETATM   16  H   UNL     1       6.520  22.660  54.321  1.00  0.00     0.166 HD
HETATM   17  C   UNL     1       8.234  24.495  56.284  1.00  0.00    -0.011 A 
HETATM   18  C   UNL     1       9.295  24.823  57.284  1.00  0.00     0.052 C 
BRANCH  15  19
HETATM   19  C   UNL     1       8.352  21.898  56.126  1.00  0.00     0.310 C 
HETATM   20  O   UNL     1       8.225  21.391  57.234  1.00  0.00    -0.258 OA
BRANCH  19  21
HETATM   21  O   UNL     1       8.988  21.325  55.071  1.00  0.00    -0.317 OA
BRANCH  21  22
HETATM   22  C   UNL     1       8.282  20.270  54.406  1.00  0.00     0.175 C 
HETATM   23  C   UNL     1       8.351  20.445  52.902  1.00  0.00     0.034 C 
ENDBRANCH  21  22
ENDBRANCH  19  21
ENDBRANCH  15  19
ENDBRANCH   8  11
ENDBRANCH   1   7
BRANCH   3  24
HETATM   24  C   UNL     1       8.643  31.240  59.609  1.00  0.00     0.083 C 
BRANCH  24  25
HETATM   25  C   UNL     1       8.792  30.839  61.076  1.00  0.00     0.012 C 
BRANCH  25  26
HETATM   26  C   UNL     1       8.709  32.055  61.999  1.00  0.00     0.041 C 
BRANCH  26  27
HETATM   27  C   UNL     1       7.313  32.295  62.480  1.00  0.00    -0.030 A 
HETATM   28  C   UNL     1       6.920  32.898  63.718  1.00  0.00    -0.002 A 
HETATM   29  C   UNL     1       5.525  32.905  63.756  1.00  0.00     0.042 A 
HETATM   30  C   UNL     1       7.622  33.436  64.816  1.00  0.00     0.014 A 
HETATM   31  C   UNL     1       4.797  33.424  64.834  1.00  0.00     0.030 A 
HETATM   32  N   UNL     1       5.086  32.330  62.586  1.00  0.00    -0.365 N 
HETATM   33  C   UNL     1       5.518  33.954  65.907  1.00  0.00     0.002 A 
HETATM   34  C   UNL     1       6.911  33.962  65.902  1.00  0.00     0.001 A 
HETATM   35  H   UNL     1       4.115  32.195  62.342  1.00  0.00     0.165 HD
HETATM   36  C   UNL     1       6.152  31.962  61.811  1.00  0.00     0.096 A 
ENDBRANCH  26  27
ENDBRANCH  25  26
ENDBRANCH  24  25
ENDBRANCH   3  24
TORSDOF 9
ENDMDL
MODEL 6
REMARK VINA RESULT:      -9.2      1.529      2.088
REMARK  9 active torsions:
REMARK  status: ('A' for Active; 'I' for Inactive)
REMARK    1  A    between atoms: C_2  and  O_3 
REMARK    2  A    between atoms: O_3  and  C_4 
REMARK    3  A    between atoms: C_4  and  C_5 
REMARK    4  A    between atoms: C_10  and  C_11 
REMARK       I    between atoms: C_11  and  N_12 
REMARK    5  A    between atoms: N_12  and  C_13 
REMARK    6  A    between atoms: C_15  and  C_16 
REMARK    7  A    between atoms: C_16  and  C_17 
REMARK    8  A    between atoms: C_17  and  C_18 
REMARK    9  A    between atoms: C_18  and  C_19 
ROOT
HETATM    1  C   UNL     1       5.112  29.072  53.752  1.00  0.00     0.725 A 
HETATM    2  N   UNL     1       5.678  28.276  52.881  1.00  0.00    -0.046 NA
HETATM    3  C   UNL     1       4.670  27.954  52.015  1.00  0.00     0.165 A 
HETATM    4  N   UNL     1       3.495  28.534  52.286  1.00  0.00    -0.144 NA
HETATM    5  N   UNL     1       3.800  29.235  53.392  1.00  0.00    -0.106 N 
HETATM    6  H   UNL     1       3.081  29.789  53.836  1.00  0.00     0.208 HD
ENDROOT
BRANCH   1   7
HETATM    7  N   UNL     1       5.661  29.692  54.847  1.00  0.00    -0.152 N 
HETATM    8  C   UNL     1       5.272  29.367  56.129  1.00  0.00     0.272 C 
HETATM    9  O   UNL     1       4.353  28.617  56.435  1.00  0.00    -0.267 OA
HETATM   10  H   UNL     1       6.340  30.425  54.721  1.00  0.00     0.187 HD
BRANCH   8  11
HETATM   11  C   UNL     1       6.057  30.044  57.182  1.00  0.00     0.063 A 
HETATM   12  C   UNL     1       5.967  31.371  57.597  1.00  0.00     0.022 A 
HETATM   13  N   UNL     1       6.945  31.575  58.539  1.00  0.00    -0.354 N 
HETATM   14  C   UNL     1       5.111  32.509  57.165  1.00  0.00     0.069 C 
HETATM   15  C   UNL     1       7.735  30.459  58.686  1.00  0.00     0.115 A 
HETATM   16  H   UNL     1       7.147  32.455  58.999  1.00  0.00     0.166 HD
HETATM   17  C   UNL     1       7.150  29.454  57.922  1.00  0.00    -0.011 A 
HETATM   18  C   UNL     1       7.592  28.029  57.820  1.00  0.00     0.052 C 
BRANCH  15  19
HETATM   19  C   UNL     1       8.930  30.514  59.501  1.00  0.00     0.310 C 
HETATM   20  O   UNL     1       8.976  30.141  60.668  1.00  0.00    -0.258 OA
BRANCH  19  21
HETATM   21  O   UNL     1       9.955  31.095  58.824  1.00  0.00    -0.317 OA
BRANCH  21  22
HETATM   22  C   UNL     1      10.106  30.706  57.453  1.00  0.00     0.175 C 
HETATM   23  C   UNL     1      11.366  29.884  57.265  1.00  0.00     0.034 C 
ENDBRANCH  21  22
ENDBRANCH  19  21
ENDBRANCH  15  19
ENDBRANCH   8  11
ENDBRANCH   1   7
BRANCH   3  24
HETATM   24  C   UNL     1       4.889  27.016  50.886  1.00  0.00     0.083 C 
BRANCH  24  25
HETATM   25  C   UNL     1       5.785  25.846  51.295  1.00  0.00     0.012 C 
BRANCH  25  26
HETATM   26  C   UNL     1       5.056  24.887  52.237  1.00  0.00     0.041 C 
BRANCH  26  27
HETATM   27  C   UNL     1       5.806  24.683  53.515  1.00  0.00    -0.030 A 
HETATM   28  C   UNL     1       6.910  23.799  53.735  1.00  0.00    -0.002 A 
HETATM   29  C   UNL     1       7.284  23.921  55.074  1.00  0.00     0.042 A 
HETATM   30  C   UNL     1       7.626  22.898  52.919  1.00  0.00     0.014 A 
HETATM   31  C   UNL     1       8.338  23.191  55.637  1.00  0.00     0.030 A 
HETATM   32  N   UNL     1       6.441  24.845  55.646  1.00  0.00    -0.365 N 
HETATM   33  C   UNL     1       9.033  22.309  54.806  1.00  0.00     0.002 A 
HETATM   34  C   UNL     1       8.685  22.162  53.465  1.00  0.00     0.001 A 
HETATM   35  H   UNL     1       6.475  25.130  56.615  1.00  0.00     0.165 HD
HETATM   36  C   UNL     1       5.551  25.311  54.718  1.00  0.00     0.096 A 
ENDBRANCH  26  27
ENDBRANCH  25  26
ENDBRANCH  24  25
ENDBRANCH   3  24
TORSDOF 9
ENDMDL
MODEL 7
REMARK VINA RESULT:      -9.0      2.929     10.767
REMARK  9 active torsions:
REMARK  status: ('A' for Active; 'I' for Inactive)
REMARK    1  A    between atoms: C_2  and  O_3 
REMARK    2  A    between atoms: O_3  and  C_4 
REMARK    3  A    between atoms: C_4  and  C_5 
REMARK    4  A    between atoms: C_10  and  C_11 
REMARK       I    between atoms: C_11  and  N_12 
REMARK    5  A    between atoms: N_12  and  C_13 
REMARK    6  A    between atoms: C_15  and  C_16 
REMARK    7  A    between atoms: C_16  and  C_17 
REMARK    8  A    between atoms: C_17  and  C_18 
REMARK    9  A    between atoms: C_18  and  C_19 
ROOT
HETATM    1  C   UNL     1       7.553  29.773  58.242  1.00  0.00     0.725 A 
HETATM    2  N   UNL     1       8.465  29.951  59.164  1.00  0.00    -0.046 NA
HETATM    3  C   UNL     1       8.323  31.261  59.528  1.00  0.00     0.165 A 
HETATM    4  N   UNL     1       7.342  31.914  58.893  1.00  0.00    -0.144 NA
HETATM    5  N   UNL     1       6.872  30.950  58.082  1.00  0.00    -0.106 N 
HETATM    6  H   UNL     1       6.103  31.163  57.461  1.00  0.00     0.208 HD
ENDROOT
BRANCH   1   7
HETATM    7  N   UNL     1       7.253  28.640  57.526  1.00  0.00    -0.152 N 
HETATM    8  C   UNL     1       8.039  28.226  56.471  1.00  0.00     0.272 C 
HETATM    9  O   UNL     1       8.979  28.844  55.986  1.00  0.00    -0.267 OA
HETATM   10  H   UNL     1       6.426  28.112  57.746  1.00  0.00     0.187 HD
BRANCH   8  11
HETATM   11  C   UNL     1       7.636  26.924  55.901  1.00  0.00     0.063 A 
HETATM   12  C   UNL     1       7.729  25.665  56.490  1.00  0.00     0.022 A 
HETATM   13  N   UNL     1       7.314  24.744  55.560  1.00  0.00    -0.354 N 
HETATM   14  C   UNL     1       8.231  25.204  57.812  1.00  0.00     0.069 C 
HETATM   15  C   UNL     1       7.045  25.342  54.352  1.00  0.00     0.115 A 
HETATM   16  H   UNL     1       7.304  23.739  55.689  1.00  0.00     0.166 HD
HETATM   17  C   UNL     1       7.145  26.715  54.556  1.00  0.00    -0.011 A 
HETATM   18  C   UNL     1       6.863  27.795  53.562  1.00  0.00     0.052 C 
BRANCH  15  19
HETATM   19  C   UNL     1       6.759  24.534  53.185  1.00  0.00     0.310 C 
HETATM   20  O   UNL     1       5.654  24.463  52.661  1.00  0.00    -0.258 OA
BRANCH  19  21
HETATM   21  O   UNL     1       7.853  23.820  52.808  1.00  0.00    -0.317 OA
BRANCH  21  22
HETATM   22  C   UNL     1       7.742  22.395  52.908  1.00  0.00     0.175 C 
HETATM   23  C   UNL     1       8.706  21.855  53.946  1.00  0.00     0.034 C 
ENDBRANCH  21  22
ENDBRANCH  19  21
ENDBRANCH  15  19
ENDBRANCH   8  11
ENDBRANCH   1   7
BRANCH   3  24
HETATM   24  C   UNL     1       9.215  31.887  60.536  1.00  0.00     0.083 C 
BRANCH  24  25
HETATM   25  C   UNL     1       8.416  32.549  61.658  1.00  0.00     0.012 C 
BRANCH  25  26
HETATM   26  C   UNL     1       7.638  31.517  62.474  1.00  0.00     0.041 C 
BRANCH  26  27
HETATM   27  C   UNL     1       6.404  32.104  63.083  1.00  0.00    -0.030 A 
HETATM   28  C   UNL     1       6.322  32.892  64.276  1.00  0.00    -0.002 A 
HETATM   29  C   UNL     1       4.977  33.210  64.475  1.00  0.00     0.042 A 
HETATM   30  C   UNL     1       7.267  33.362  65.210  1.00  0.00     0.014 A 
HETATM   31  C   UNL     1       4.531  33.975  65.560  1.00  0.00     0.030 A 
HETATM   32  N   UNL     1       4.269  32.638  63.444  1.00  0.00    -0.365 N 
HETATM   33  C   UNL     1       5.489  34.430  66.469  1.00  0.00     0.002 A 
HETATM   34  C   UNL     1       6.839  34.130  66.300  1.00  0.00     0.001 A 
HETATM   35  H   UNL     1       3.267  32.699  63.333  1.00  0.00     0.165 HD
HETATM   36  C   UNL     1       5.116  31.974  62.600  1.00  0.00     0.096 A 
ENDBRANCH  26  27
ENDBRANCH  25  26
ENDBRANCH  24  25
ENDBRANCH   3  24
TORSDOF 9
ENDMDL
MODEL 8
REMARK VINA RESULT:      -8.9      1.302      2.005
REMARK  9 active torsions:
REMARK  status: ('A' for Active; 'I' for Inactive)
REMARK    1  A    between atoms: C_2  and  O_3 
REMARK    2  A    between atoms: O_3  and  C_4 
REMARK    3  A    between atoms: C_4  and  C_5 
REMARK    4  A    between atoms: C_10  and  C_11 
REMARK       I    between atoms: C_11  and  N_12 
REMARK    5  A    between atoms: N_12  and  C_13 
REMARK    6  A    between atoms: C_15  and  C_16 
REMARK    7  A    between atoms: C_16  and  C_17 
REMARK    8  A    between atoms: C_17  and  C_18 
REMARK    9  A    between atoms: C_18  and  C_19 
ROOT
HETATM    1  C   UNL     1       5.708  28.968  54.522  1.00  0.00     0.725 A 
HETATM    2  N   UNL     1       6.051  28.387  53.400  1.00  0.00    -0.046 NA
HETATM    3  C   UNL     1       4.878  27.885  52.909  1.00  0.00     0.165 A 
HETATM    4  N   UNL     1       3.802  28.146  53.660  1.00  0.00    -0.144 NA
HETATM    5  N   UNL     1       4.354  28.830  54.677  1.00  0.00    -0.106 N 
HETATM    6  H   UNL     1       3.761  29.165  55.423  1.00  0.00     0.208 HD
ENDROOT
BRANCH   1   7
HETATM    7  N   UNL     1       6.494  29.633  55.430  1.00  0.00    -0.152 N 
HETATM    8  C   UNL     1       6.550  29.247  56.753  1.00  0.00     0.272 C 
HETATM    9  O   UNL     1       5.854  28.390  57.284  1.00  0.00    -0.267 OA
HETATM   10  H   UNL     1       7.018  30.442  55.143  1.00  0.00     0.187 HD
BRANCH   8  11
HETATM   11  C   UNL     1       7.539  29.998  57.554  1.00  0.00     0.063 A 
HETATM   12  C   UNL     1       8.919  29.816  57.599  1.00  0.00     0.022 A 
HETATM   13  N   UNL     1       9.418  30.681  58.541  1.00  0.00    -0.354 N 
HETATM   14  C   UNL     1       9.837  28.871  56.907  1.00  0.00     0.069 C 
HETATM   15  C   UNL     1       8.405  31.354  59.185  1.00  0.00     0.115 A 
HETATM   16  H   UNL     1      10.389  30.754  58.820  1.00  0.00     0.166 HD
HETATM   17  C   UNL     1       7.225  31.020  58.528  1.00  0.00    -0.011 A 
HETATM   18  C   UNL     1       5.859  31.559  58.804  1.00  0.00     0.052 C 
BRANCH  15  19
HETATM   19  C   UNL     1       8.698  32.187  60.332  1.00  0.00     0.310 C 
HETATM   20  O   UNL     1       9.768  32.172  60.928  1.00  0.00    -0.258 OA
BRANCH  19  21
HETATM   21  O   UNL     1       7.612  32.921  60.691  1.00  0.00    -0.317 OA
BRANCH  21  22
HETATM   22  C   UNL     1       7.297  32.940  62.089  1.00  0.00     0.175 C 
HETATM   23  C   UNL     1       6.670  31.627  62.514  1.00  0.00     0.034 C 
ENDBRANCH  21  22
ENDBRANCH  19  21
ENDBRANCH  15  19
ENDBRANCH   8  11
ENDBRANCH   1   7
BRANCH   3  24
HETATM   24  C   UNL     1       4.839  27.100  51.650  1.00  0.00     0.083 C 
BRANCH  24  25
HETATM   25  C   UNL     1       5.678  25.827  51.758  1.00  0.00     0.012 C 
BRANCH  25  26
HETATM   26  C   UNL     1       5.059  24.830  52.737  1.00  0.00     0.041 C 
BRANCH  26  27
HETATM   27  C   UNL     1       5.941  24.592  53.922  1.00  0.00    -0.030 A 
HETATM   28  C   UNL     1       7.048  23.688  54.004  1.00  0.00    -0.002 A 
HETATM   29  C   UNL     1       7.568  23.780  55.296  1.00  0.00     0.042 A 
HETATM   30  C   UNL     1       7.657  22.794  53.100  1.00  0.00     0.014 A 
HETATM   31  C   UNL     1       8.666  23.024  55.728  1.00  0.00     0.030 A 
HETATM   32  N   UNL     1       6.807  24.703  55.974  1.00  0.00    -0.365 N 
HETATM   33  C   UNL     1       9.251  22.149  54.810  1.00  0.00     0.002 A 
HETATM   34  C   UNL     1       8.757  22.033  53.513  1.00  0.00     0.001 A 
HETATM   35  H   UNL     1       6.951  24.969  56.938  1.00  0.00     0.165 HD
HETATM   36  C   UNL     1       5.828  25.200  55.157  1.00  0.00     0.096 A 
ENDBRANCH  26  27
ENDBRANCH  25  26
ENDBRANCH  24  25
ENDBRANCH   3  24
TORSDOF 9
ENDMDL
MODEL 9
REMARK VINA RESULT:      -8.7      3.227     10.698
REMARK  9 active torsions:
REMARK  status: ('A' for Active; 'I' for Inactive)
REMARK    1  A    between atoms: C_2  and  O_3 
REMARK    2  A    between atoms: O_3  and  C_4 
REMARK    3  A    between atoms: C_4  and  C_5 
REMARK    4  A    between atoms: C_10  and  C_11 
REMARK       I    between atoms: C_11  and  N_12 
REMARK    5  A    between atoms: N_12  and  C_13 
REMARK    6  A    between atoms: C_15  and  C_16 
REMARK    7  A    between atoms: C_16  and  C_17 
REMARK    8  A    between atoms: C_17  and  C_18 
REMARK    9  A    between atoms: C_18  and  C_19 
ROOT
HETATM    1  C   UNL     1       8.254  29.783  58.315  1.00  0.00     0.725 A 
HETATM    2  N   UNL     1       8.929  29.976  59.420  1.00  0.00    -0.046 NA
HETATM    3  C   UNL     1       8.499  31.194  59.868  1.00  0.00     0.165 A 
HETATM    4  N   UNL     1       7.561  31.769  59.107  1.00  0.00    -0.144 NA
HETATM    5  N   UNL     1       7.425  30.857  58.129  1.00  0.00    -0.106 N 
HETATM    6  H   UNL     1       6.763  31.031  57.385  1.00  0.00     0.208 HD
ENDROOT
BRANCH   1   7
HETATM    7  N   UNL     1       8.292  28.718  57.449  1.00  0.00    -0.152 N 
HETATM    8  C   UNL     1       7.142  28.064  57.062  1.00  0.00     0.272 C 
HETATM    9  O   UNL     1       6.018  28.256  57.509  1.00  0.00    -0.267 OA
HETATM   10  H   UNL     1       9.176  28.379  57.109  1.00  0.00     0.187 HD
BRANCH   8  11
HETATM   11  C   UNL     1       7.362  27.026  56.033  1.00  0.00     0.063 A 
HETATM   12  C   UNL     1       7.100  27.106  54.667  1.00  0.00     0.022 A 
HETATM   13  N   UNL     1       7.382  25.878  54.122  1.00  0.00    -0.354 N 
HETATM   14  C   UNL     1       6.544  28.185  53.806  1.00  0.00     0.069 C 
HETATM   15  C   UNL     1       7.726  24.968  55.094  1.00  0.00     0.115 A 
HETATM   16  H   UNL     1       7.256  25.621  53.150  1.00  0.00     0.166 HD
HETATM   17  C   UNL     1       7.815  25.676  56.288  1.00  0.00    -0.011 A 
HETATM   18  C   UNL     1       8.238  25.145  57.620  1.00  0.00     0.052 C 
BRANCH  15  19
HETATM   19  C   UNL     1       7.895  23.570  54.758  1.00  0.00     0.310 C 
HETATM   20  O   UNL     1       7.117  22.942  54.050  1.00  0.00    -0.258 OA
BRANCH  19  21
HETATM   21  O   UNL     1       8.980  23.046  55.387  1.00  0.00    -0.317 OA
BRANCH  21  22
HETATM   22  C   UNL     1       9.032  21.615  55.468  1.00  0.00     0.175 C 
HETATM   23  C   UNL     1       8.494  21.135  56.801  1.00  0.00     0.034 C 
ENDBRANCH  21  22
ENDBRANCH  19  21
ENDBRANCH  15  19
ENDBRANCH   8  11
ENDBRANCH   1   7
BRANCH   3  24
HETATM   24  C   UNL     1       9.064  31.811  61.094  1.00  0.00     0.083 C 
BRANCH  24  25
HETATM   25  C   UNL     1       8.018  32.642  61.836  1.00  0.00     0.012 C 
BRANCH  25  26
HETATM   26  C   UNL     1       7.904  32.217  63.300  1.00  0.00     0.041 C 
BRANCH  26  27
HETATM   27  C   UNL     1       6.950  33.085  64.060  1.00  0.00    -0.030 A 
HETATM   28  C   UNL     1       5.583  33.355  63.732  1.00  0.00    -0.002 A 
HETATM   29  C   UNL     1       5.085  34.224  64.704  1.00  0.00     0.042 A 
HETATM   30  C   UNL     1       4.721  32.946  62.695  1.00  0.00     0.014 A 
HETATM   31  C   UNL     1       3.768  34.703  64.692  1.00  0.00     0.030 A 
HETATM   32  N   UNL     1       6.108  34.472  65.589  1.00  0.00    -0.365 N 
HETATM   33  C   UNL     1       2.935  34.278  63.654  1.00  0.00     0.002 A 
HETATM   34  C   UNL     1       3.401  33.412  62.668  1.00  0.00     0.001 A 
HETATM   35  H   UNL     1       6.036  35.076  66.395  1.00  0.00     0.165 HD
HETATM   36  C   UNL     1       7.233  33.790  65.213  1.00  0.00     0.096 A 
ENDBRANCH  26  27
ENDBRANCH  25  26
ENDBRANCH  24  25
ENDBRANCH   3  24
TORSDOF 9
ENDMDL
MODEL 10
REMARK VINA RESULT:      -8.7      2.878      4.503
REMARK  9 active torsions:
REMARK  status: ('A' for Active; 'I' for Inactive)
REMARK    1  A    between atoms: C_2  and  O_3 
REMARK    2  A    between atoms: O_3  and  C_4 
REMARK    3  A    between atoms: C_4  and  C_5 
REMARK    4  A    between atoms: C_10  and  C_11 
REMARK       I    between atoms: C_11  and  N_12 
REMARK    5  A    between atoms: N_12  and  C_13 
REMARK    6  A    between atoms: C_15  and  C_16 
REMARK    7  A    between atoms: C_16  and  C_17 
REMARK    8  A    between atoms: C_17  and  C_18 
REMARK    9  A    between atoms: C_18  and  C_19 
ROOT
HETATM    1  C   UNL     1       7.412  29.326  58.032  1.00  0.00     0.725 A 
HETATM    2  N   UNL     1       7.894  28.125  58.225  1.00  0.00    -0.046 NA
HETATM    3  C   UNL     1       8.209  27.683  56.970  1.00  0.00     0.165 A 
HETATM    4  N   UNL     1       7.969  28.564  55.992  1.00  0.00    -0.144 NA
HETATM    5  N   UNL     1       7.463  29.595  56.690  1.00  0.00    -0.106 N 
HETATM    6  H   UNL     1       7.180  30.431  56.196  1.00  0.00     0.208 HD
ENDROOT
BRANCH   1   7
HETATM    7  N   UNL     1       6.937  30.228  58.951  1.00  0.00    -0.152 N 
HETATM    8  C   UNL     1       7.571  31.434  59.170  1.00  0.00     0.272 C 
HETATM    9  O   UNL     1       8.644  31.781  58.693  1.00  0.00    -0.267 OA
HETATM   10  H   UNL     1       6.129  30.002  59.506  1.00  0.00     0.187 HD
BRANCH   8  11
HETATM   11  C   UNL     1       6.850  32.327  60.101  1.00  0.00     0.063 A 
HETATM   12  C   UNL     1       7.162  32.612  61.429  1.00  0.00     0.022 A 
HETATM   13  N   UNL     1       6.170  33.423  61.920  1.00  0.00    -0.354 N 
HETATM   14  C   UNL     1       8.255  32.155  62.330  1.00  0.00     0.069 C 
HETATM   15  C   UNL     1       5.169  33.603  60.994  1.00  0.00     0.115 A 
HETATM   16  H   UNL     1       6.107  33.769  62.870  1.00  0.00     0.166 HD
HETATM   17  C   UNL     1       5.607  33.008  59.814  1.00  0.00    -0.011 A 
HETATM   18  C   UNL     1       4.907  33.008  58.494  1.00  0.00     0.052 C 
BRANCH  15  19
HETATM   19  C   UNL     1       3.946  34.283  61.365  1.00  0.00     0.310 C 
HETATM   20  O   UNL     1       2.839  33.761  61.323  1.00  0.00    -0.258 OA
BRANCH  19  21
HETATM   21  O   UNL     1       4.189  35.580  61.689  1.00  0.00    -0.317 OA
BRANCH  21  22
HETATM   22  C   UNL     1       4.319  36.491  60.590  1.00  0.00     0.175 C 
HETATM   23  C   UNL     1       4.537  37.905  61.090  1.00  0.00     0.034 C 
ENDBRANCH  21  22
ENDBRANCH  19  21
ENDBRANCH  15  19
ENDBRANCH   8  11
ENDBRANCH   1   7
BRANCH   3  24
HETATM   24  C   UNL     1       8.751  26.320  56.742  1.00  0.00     0.083 C 
BRANCH  24  25
HETATM   25  C   UNL     1       7.820  25.245  57.302  1.00  0.00     0.012 C 
BRANCH  25  26
HETATM   26  C   UNL     1       6.597  25.044  56.407  1.00  0.00     0.041 C 
BRANCH  26  27
HETATM   27  C   UNL     1       6.955  24.380  55.115  1.00  0.00    -0.030 A 
HETATM   28  C   UNL     1       7.352  23.017  54.927  1.00  0.00    -0.002 A 
HETATM   29  C   UNL     1       7.605  22.839  53.566  1.00  0.00     0.042 A 
HETATM   30  C   UNL     1       7.526  21.916  55.790  1.00  0.00     0.014 A 
HETATM   31  C   UNL     1       8.020  21.616  53.025  1.00  0.00     0.030 A 
HETATM   32  N   UNL     1       7.371  24.046  52.950  1.00  0.00    -0.365 N 
HETATM   33  C   UNL     1       8.180  20.540  53.902  1.00  0.00     0.002 A 
HETATM   34  C   UNL     1       7.937  20.685  55.266  1.00  0.00     0.001 A 
HETATM   35  H   UNL     1       7.480  24.215  51.960  1.00  0.00     0.165 HD
HETATM   36  C   UNL     1       6.977  24.979  53.870  1.00  0.00     0.096 A 
ENDBRANCH  26  27
ENDBRANCH  25  26
ENDBRANCH  24  25
ENDBRANCH   3  24
TORSDOF 9
ENDMDL
