MODEL 1
REMARK VINA RESULT:     -10.8      0.000      0.000
REMARK  3 active torsions:
REMARK  status: ('A' for Active; 'I' for Inactive)
REMARK    1  A    between atoms: C_9  and  C_10 
REMARK       I    between atoms: C_10  and  N_11 
REMARK    2  A    between atoms: N_11  and  C_12 
REMARK    3  A    between atoms: C_19  and  C_20 
REMARK       I    between atoms: C_20  and  N_21 
ROOT
HETATM    1  C   UNL     1       8.380  28.424  57.087  1.00  0.00     0.035 A 
HETATM    2  C   UNL     1       7.794  29.361  57.947  1.00  0.00     0.046 A 
HETATM    3  C   UNL     1       8.561  30.457  58.398  1.00  0.00     0.030 A 
HETATM    4  C   UNL     1       9.871  30.591  57.955  1.00  0.00     0.063 A 
HETATM    5  N   UNL     1      10.346  31.719  58.561  1.00  0.00    -0.277 N 
HETATM    6  H   UNL     1      11.273  32.119  58.471  1.00  0.00     0.189 HD
HETATM    7  N   UNL     1       9.466  32.329  59.371  1.00  0.00    -0.168 NA
HETATM    8  C   UNL     1       8.356  31.560  59.282  1.00  0.00     0.156 A 
HETATM    9  C   UNL     1      10.475  29.690  57.077  1.00  0.00     0.034 A 
HETATM   10  C   UNL     1       9.703  28.599  56.660  1.00  0.00     0.032 A 
ENDROOT
BRANCH   1  11
HETATM   11  N   UNL     1       7.743  27.237  56.685  1.00  0.00    -0.325 N 
HETATM   12  C   UNL     1       7.301  26.895  55.419  1.00  0.00     0.252 C 
HETATM   13  O   UNL     1       7.688  27.385  54.361  1.00  0.00    -0.270 OA
HETATM   14  H   UNL     1       7.460  26.600  57.422  1.00  0.00     0.169 HD
BRANCH  12  15
HETATM   15  C   UNL     1       6.147  25.867  55.439  1.00  0.00     0.225 C 
HETATM   16  C   UNL     1       6.387  24.878  56.591  1.00  0.00     0.083 C 
HETATM   17  C   UNL     1       7.033  23.791  55.818  1.00  0.00    -0.021 A 
HETATM   18  C   UNL     1       6.738  23.953  54.477  1.00  0.00     0.076 A 
HETATM   19  C   UNL     1       7.830  22.747  56.246  1.00  0.00     0.017 A 
HETATM   20  C   UNL     1       7.197  23.081  53.513  1.00  0.00     0.044 A 
HETATM   21  O   UNL     1       6.042  25.107  54.206  1.00  0.00    -0.336 OA
HETATM   22  C   UNL     1       8.023  22.018  53.915  1.00  0.00    -0.053 A 
HETATM   23  C   UNL     1       8.352  21.858  55.289  1.00  0.00    -0.055 A 
HETATM   24  C   UNL     1       8.580  21.093  52.866  1.00  0.00     0.049 C 
HETATM   25  C   UNL     1       9.288  20.769  55.743  1.00  0.00     0.049 C 
ENDBRANCH  12  15
ENDBRANCH   1  11
BRANCH   8  26
HETATM   26  C   UNL     1       7.144  31.883  60.048  1.00  0.00     0.270 C 
HETATM   27  N   UNL     1       7.057  31.237  61.251  1.00  0.00    -0.365 N 
HETATM   28  H   UNL     1       7.799  30.599  61.513  1.00  0.00     0.159 HD
HETATM   29  H   UNL     1       6.252  31.385  61.837  1.00  0.00     0.159 HD
HETATM   30  O   UNL     1       6.262  32.648  59.672  1.00  0.00    -0.266 OA
ENDBRANCH   8  26
TORSDOF 3
ENDMDL
MODEL 2
REMARK VINA RESULT:     -10.1      5.634      8.744
REMARK  3 active torsions:
REMARK  status: ('A' for Active; 'I' for Inactive)
REMARK    1  A    between atoms: C_9  and  C_10 
REMARK       I    between atoms: C_10  and  N_11 
REMARK    2  A    between atoms: N_11  and  C_12 
REMARK    3  A    between atoms: C_19  and  C_20 
REMARK       I    between atoms: C_20  and  N_21 
ROOT
HETATM    1  C   UNL     1       5.028  26.952  50.843  1.00  0.00     0.035 A 
HETATM    2  C   UNL     1       4.479  26.265  49.754  1.00  0.00     0.046 A 
HETATM    3  C   UNL     1       3.450  26.872  49.001  1.00  0.00     0.030 A 
HETATM    4  C   UNL     1       3.029  28.150  49.347  1.00  0.00     0.063 A 
HETATM    5  N   UNL     1       2.036  28.457  48.459  1.00  0.00    -0.277 N 
HETATM    6  H   UNL     1       1.495  29.313  48.417  1.00  0.00     0.189 HD
HETATM    7  N   UNL     1       1.764  27.487  47.571  1.00  0.00    -0.168 NA
HETATM    8  C   UNL     1       2.630  26.500  47.894  1.00  0.00     0.156 A 
HETATM    9  C   UNL     1       3.574  28.873  50.408  1.00  0.00     0.034 A 
HETATM   10  C   UNL     1       4.577  28.243  51.154  1.00  0.00     0.032 A 
ENDROOT
BRANCH   1  11
HETATM   11  N   UNL     1       5.963  26.386  51.727  1.00  0.00    -0.325 N 
HETATM   12  C   UNL     1       5.912  26.346  53.109  1.00  0.00     0.252 C 
HETATM   13  O   UNL     1       4.904  26.468  53.799  1.00  0.00    -0.270 OA
HETATM   14  H   UNL     1       6.840  26.074  51.323  1.00  0.00     0.169 HD
BRANCH  12  15
HETATM   15  C   UNL     1       7.309  26.231  53.761  1.00  0.00     0.225 C 
HETATM   16  C   UNL     1       8.238  25.466  52.806  1.00  0.00     0.083 C 
HETATM   17  C   UNL     1       8.105  24.115  53.402  1.00  0.00    -0.021 A 
HETATM   18  C   UNL     1       7.618  24.236  54.691  1.00  0.00     0.076 A 
HETATM   19  C   UNL     1       8.374  22.874  52.861  1.00  0.00     0.017 A 
HETATM   20  C   UNL     1       7.401  23.142  55.499  1.00  0.00     0.044 A 
HETATM   21  O   UNL     1       7.286  25.526  55.031  1.00  0.00    -0.336 OA
HETATM   22  C   UNL     1       7.648  21.864  54.972  1.00  0.00    -0.053 A 
HETATM   23  C   UNL     1       8.125  21.728  53.639  1.00  0.00    -0.055 A 
HETATM   24  C   UNL     1       7.358  20.656  55.823  1.00  0.00     0.049 C 
HETATM   25  C   UNL     1       8.337  20.371  53.023  1.00  0.00     0.049 C 
ENDBRANCH  12  15
ENDBRANCH   1  11
BRANCH   8  26
HETATM   26  C   UNL     1       2.642  25.229  47.156  1.00  0.00     0.270 C 
HETATM   27  N   UNL     1       2.704  24.121  47.956  1.00  0.00    -0.365 N 
HETATM   28  H   UNL     1       2.747  24.250  48.960  1.00  0.00     0.159 HD
HETATM   29  H   UNL     1       2.734  23.205  47.537  1.00  0.00     0.159 HD
HETATM   30  O   UNL     1       2.613  25.129  45.934  1.00  0.00    -0.266 OA
ENDBRANCH   8  26
TORSDOF 3
ENDMDL
MODEL 3
REMARK VINA RESULT:      -9.8      5.856      8.072
REMARK  3 active torsions:
REMARK  status: ('A' for Active; 'I' for Inactive)
REMARK    1  A    between atoms: C_9  and  C_10 
REMARK       I    between atoms: C_10  and  N_11 
REMARK    2  A    between atoms: N_11  and  C_12 
REMARK    3  A    between atoms: C_19  and  C_20 
REMARK       I    between atoms: C_20  and  N_21 
ROOT
HETATM    1  C   UNL     1       4.703  26.642  50.206  1.00  0.00     0.035 A 
HETATM    2  C   UNL     1       4.154  27.925  50.315  1.00  0.00     0.046 A 
HETATM    3  C   UNL     1       3.224  28.364  49.347  1.00  0.00     0.030 A 
HETATM    4  C   UNL     1       2.858  27.497  48.325  1.00  0.00     0.063 A 
HETATM    5  N   UNL     1       1.971  28.197  47.557  1.00  0.00    -0.277 N 
HETATM    6  H   UNL     1       1.501  27.876  46.718  1.00  0.00     0.189 HD
HETATM    7  N   UNL     1       1.734  29.449  47.980  1.00  0.00    -0.168 NA
HETATM    8  C   UNL     1       2.502  29.568  49.087  1.00  0.00     0.156 A 
HETATM    9  C   UNL     1       3.365  26.203  48.203  1.00  0.00     0.034 A 
HETATM   10  C   UNL     1       4.301  25.797  49.162  1.00  0.00     0.032 A 
ENDROOT
BRANCH   1  11
HETATM   11  N   UNL     1       5.724  26.162  51.043  1.00  0.00    -0.325 N 
HETATM   12  C   UNL     1       5.681  25.963  52.412  1.00  0.00     0.252 C 
HETATM   13  O   UNL     1       4.667  25.824  53.090  1.00  0.00    -0.270 OA
HETATM   14  H   UNL     1       6.644  26.061  50.627  1.00  0.00     0.169 HD
BRANCH  12  15
HETATM   15  C   UNL     1       7.074  26.034  53.077  1.00  0.00     0.225 C 
HETATM   16  C   UNL     1       8.065  25.213  52.236  1.00  0.00     0.083 C 
HETATM   17  C   UNL     1       8.017  23.949  53.008  1.00  0.00    -0.021 A 
HETATM   18  C   UNL     1       7.508  24.207  54.267  1.00  0.00     0.076 A 
HETATM   19  C   UNL     1       8.376  22.668  52.638  1.00  0.00     0.017 A 
HETATM   20  C   UNL     1       7.356  23.218  55.215  1.00  0.00     0.044 A 
HETATM   21  O   UNL     1       7.085  25.505  54.430  1.00  0.00    -0.336 OA
HETATM   22  C   UNL     1       7.696  21.902  54.865  1.00  0.00    -0.053 A 
HETATM   23  C   UNL     1       8.197  21.622  53.564  1.00  0.00    -0.055 A 
HETATM   24  C   UNL     1       7.479  20.802  55.869  1.00  0.00     0.049 C 
HETATM   25  C   UNL     1       8.508  20.212  53.136  1.00  0.00     0.049 C 
ENDBRANCH  12  15
ENDBRANCH   1  11
BRANCH   8  26
HETATM   26  C   UNL     1       2.543  30.821  49.853  1.00  0.00     0.270 C 
HETATM   27  N   UNL     1       1.914  30.755  51.066  1.00  0.00    -0.365 N 
HETATM   28  H   UNL     1       1.472  29.883  51.335  1.00  0.00     0.159 HD
HETATM   29  H   UNL     1       1.877  31.572  51.653  1.00  0.00     0.159 HD
HETATM   30  O   UNL     1       3.074  31.859  49.469  1.00  0.00    -0.266 OA
ENDBRANCH   8  26
TORSDOF 3
ENDMDL
MODEL 4
REMARK VINA RESULT:      -9.3      3.464      6.347
REMARK  3 active torsions:
REMARK  status: ('A' for Active; 'I' for Inactive)
REMARK    1  A    between atoms: C_9  and  C_10 
REMARK       I    between atoms: C_10  and  N_11 
REMARK    2  A    between atoms: N_11  and  C_12 
REMARK    3  A    between atoms: C_19  and  C_20 
REMARK       I    between atoms: C_20  and  N_21 
ROOT
HETATM    1  C   UNL     1       6.877  32.225  61.573  1.00  0.00     0.035 A 
HETATM    2  C   UNL     1       5.719  32.851  62.053  1.00  0.00     0.046 A 
HETATM    3  C   UNL     1       5.690  33.323  63.383  1.00  0.00     0.030 A 
HETATM    4  C   UNL     1       6.823  33.178  64.174  1.00  0.00     0.063 A 
HETATM    5  N   UNL     1       6.489  33.711  65.386  1.00  0.00    -0.277 N 
HETATM    6  H   UNL     1       7.076  33.771  66.211  1.00  0.00     0.189 HD
HETATM    7  N   UNL     1       5.234  34.182  65.463  1.00  0.00    -0.168 NA
HETATM    8  C   UNL     1       4.726  33.948  64.231  1.00  0.00     0.156 A 
HETATM    9  C   UNL     1       8.001  32.585  63.718  1.00  0.00     0.034 A 
HETATM   10  C   UNL     1       8.000  32.104  62.403  1.00  0.00     0.032 A 
ENDROOT
BRANCH   1  11
HETATM   11  N   UNL     1       6.961  31.612  60.311  1.00  0.00    -0.325 N 
HETATM   12  C   UNL     1       7.962  30.788  59.831  1.00  0.00     0.252 C 
HETATM   13  O   UNL     1       8.766  30.155  60.510  1.00  0.00    -0.270 OA
HETATM   14  H   UNL     1       6.275  31.897  59.621  1.00  0.00     0.169 HD
BRANCH  12  15
HETATM   15  C   UNL     1       8.068  30.801  58.289  1.00  0.00     0.225 C 
HETATM   16  C   UNL     1       6.672  30.549  57.696  1.00  0.00     0.083 C 
HETATM   17  C   UNL     1       6.792  29.091  57.460  1.00  0.00    -0.021 A 
HETATM   18  C   UNL     1       8.129  28.742  57.453  1.00  0.00     0.076 A 
HETATM   19  C   UNL     1       5.810  28.136  57.279  1.00  0.00     0.017 A 
HETATM   20  C   UNL     1       8.550  27.447  57.245  1.00  0.00     0.044 A 
HETATM   21  O   UNL     1       8.968  29.785  57.772  1.00  0.00    -0.336 OA
HETATM   22  C   UNL     1       7.576  26.449  57.074  1.00  0.00    -0.053 A 
HETATM   23  C   UNL     1       6.197  26.794  57.104  1.00  0.00    -0.055 A 
HETATM   24  C   UNL     1       8.019  25.020  56.905  1.00  0.00     0.049 C 
HETATM   25  C   UNL     1       5.128  25.739  56.990  1.00  0.00     0.049 C 
ENDBRANCH  12  15
ENDBRANCH   1  11
BRANCH   8  26
HETATM   26  C   UNL     1       3.340  34.308  63.900  1.00  0.00     0.270 C 
HETATM   27  N   UNL     1       3.140  35.649  63.721  1.00  0.00    -0.365 N 
HETATM   28  H   UNL     1       3.927  36.276  63.836  1.00  0.00     0.159 HD
HETATM   29  H   UNL     1       2.217  35.990  63.507  1.00  0.00     0.159 HD
HETATM   30  O   UNL     1       2.416  33.508  63.795  1.00  0.00    -0.266 OA
ENDBRANCH   8  26
TORSDOF 3
ENDMDL
MODEL 5
REMARK VINA RESULT:      -8.6      4.153     10.775
REMARK  3 active torsions:
REMARK  status: ('A' for Active; 'I' for Inactive)
REMARK    1  A    between atoms: C_9  and  C_10 
REMARK       I    between atoms: C_10  and  N_11 
REMARK    2  A    between atoms: N_11  and  C_12 
REMARK    3  A    between atoms: C_19  and  C_20 
REMARK       I    between atoms: C_20  and  N_21 
ROOT
HETATM    1  C   UNL     1       7.639  31.877  59.752  1.00  0.00     0.035 A 
HETATM    2  C   UNL     1       7.470  30.891  58.772  1.00  0.00     0.046 A 
HETATM    3  C   UNL     1       8.601  30.403  58.080  1.00  0.00     0.030 A 
HETATM    4  C   UNL     1       9.856  30.898  58.411  1.00  0.00     0.063 A 
HETATM    5  N   UNL     1      10.729  30.255  57.579  1.00  0.00    -0.277 N 
HETATM    6  H   UNL     1      11.735  30.374  57.537  1.00  0.00     0.189 HD
HETATM    7  N   UNL     1      10.154  29.392  56.727  1.00  0.00    -0.168 NA
HETATM    8  C   UNL     1       8.837  29.473  57.024  1.00  0.00     0.156 A 
HETATM    9  C   UNL     1      10.062  31.860  59.400  1.00  0.00     0.034 A 
HETATM   10  C   UNL     1       8.925  32.344  60.058  1.00  0.00     0.032 A 
ENDROOT
BRANCH   1  11
HETATM   11  N   UNL     1       6.569  32.513  60.404  1.00  0.00    -0.325 N 
HETATM   12  C   UNL     1       5.977  32.166  61.605  1.00  0.00     0.252 C 
HETATM   13  O   UNL     1       6.483  31.480  62.489  1.00  0.00    -0.270 OA
HETATM   14  H   UNL     1       6.086  33.239  59.884  1.00  0.00     0.169 HD
BRANCH  12  15
HETATM   15  C   UNL     1       4.512  32.647  61.718  1.00  0.00     0.225 C 
HETATM   16  C   UNL     1       4.415  34.072  61.151  1.00  0.00     0.083 C 
HETATM   17  C   UNL     1       4.515  34.824  62.424  1.00  0.00    -0.021 A 
HETATM   18  C   UNL     1       4.218  33.976  63.474  1.00  0.00     0.076 A 
HETATM   19  C   UNL     1       4.854  36.143  62.652  1.00  0.00     0.017 A 
HETATM   20  C   UNL     1       4.220  34.402  64.785  1.00  0.00     0.044 A 
HETATM   21  O   UNL     1       4.026  32.671  63.086  1.00  0.00    -0.336 OA
HETATM   22  C   UNL     1       4.577  35.734  65.053  1.00  0.00    -0.053 A 
HETATM   23  C   UNL     1       4.908  36.607  63.980  1.00  0.00    -0.055 A 
HETATM   24  C   UNL     1       4.642  36.197  66.483  1.00  0.00     0.049 C 
HETATM   25  C   UNL     1       5.358  38.021  64.238  1.00  0.00     0.049 C 
ENDBRANCH  12  15
ENDBRANCH   1  11
BRANCH   8  26
HETATM   26  C   UNL     1       7.842  28.681  56.287  1.00  0.00     0.270 C 
HETATM   27  N   UNL     1       7.043  29.420  55.458  1.00  0.00    -0.365 N 
HETATM   28  H   UNL     1       7.182  30.423  55.421  1.00  0.00     0.159 HD
HETATM   29  H   UNL     1       6.321  28.963  54.925  1.00  0.00     0.159 HD
HETATM   30  O   UNL     1       7.701  27.466  56.388  1.00  0.00    -0.266 OA
ENDBRANCH   8  26
TORSDOF 3
ENDMDL
MODEL 6
REMARK VINA RESULT:      -8.2      5.069      8.137
REMARK  3 active torsions:
REMARK  status: ('A' for Active; 'I' for Inactive)
REMARK    1  A    between atoms: C_9  and  C_10 
REMARK       I    between atoms: C_10  and  N_11 
REMARK    2  A    between atoms: N_11  and  C_12 
REMARK    3  A    between atoms: C_19  and  C_20 
REMARK       I    between atoms: C_20  and  N_21 
ROOT
HETATM    1  C   UNL     1       6.488  26.794  54.400  1.00  0.00     0.035 A 
HETATM    2  C   UNL     1       6.950  25.519  54.053  1.00  0.00     0.046 A 
HETATM    3  C   UNL     1       7.255  24.593  55.075  1.00  0.00     0.030 A 
HETATM    4  C   UNL     1       7.062  24.965  56.400  1.00  0.00     0.063 A 
HETATM    5  N   UNL     1       7.448  23.884  57.140  1.00  0.00    -0.277 N 
HETATM    6  H   UNL     1       7.447  23.801  58.150  1.00  0.00     0.189 HD
HETATM    7  N   UNL     1       7.887  22.841  56.416  1.00  0.00    -0.168 NA
HETATM    8  C   UNL     1       7.774  23.265  55.137  1.00  0.00     0.156 A 
HETATM    9  C   UNL     1       6.578  26.218  56.778  1.00  0.00     0.034 A 
HETATM   10  C   UNL     1       6.302  27.127  55.750  1.00  0.00     0.032 A 
ENDROOT
BRANCH   1  11
HETATM   11  N   UNL     1       6.278  27.823  53.466  1.00  0.00    -0.325 N 
HETATM   12  C   UNL     1       5.163  28.042  52.677  1.00  0.00     0.252 C 
HETATM   13  O   UNL     1       4.032  27.613  52.888  1.00  0.00    -0.270 OA
HETATM   14  H   UNL     1       7.077  28.409  53.248  1.00  0.00     0.169 HD
BRANCH  12  15
HETATM   15  C   UNL     1       5.483  28.825  51.383  1.00  0.00     0.225 C 
HETATM   16  C   UNL     1       4.223  29.588  50.944  1.00  0.00     0.083 C 
HETATM   17  C   UNL     1       3.709  28.615  49.952  1.00  0.00    -0.021 A 
HETATM   18  C   UNL     1       4.734  27.766  49.578  1.00  0.00     0.076 A 
HETATM   19  C   UNL     1       2.441  28.469  49.424  1.00  0.00     0.017 A 
HETATM   20  C   UNL     1       4.554  26.758  48.655  1.00  0.00     0.044 A 
HETATM   21  O   UNL     1       5.895  27.965  50.287  1.00  0.00    -0.336 OA
HETATM   22  C   UNL     1       3.272  26.573  48.112  1.00  0.00    -0.053 A 
HETATM   23  C   UNL     1       2.206  27.426  48.509  1.00  0.00    -0.055 A 
HETATM   24  C   UNL     1       3.046  25.439  47.148  1.00  0.00     0.049 C 
HETATM   25  C   UNL     1       0.806  27.212  47.995  1.00  0.00     0.049 C 
ENDBRANCH  12  15
ENDBRANCH   1  11
BRANCH   8  26
HETATM   26  C   UNL     1       8.178  22.407  54.014  1.00  0.00     0.270 C 
HETATM   27  N   UNL     1       9.127  21.476  54.336  1.00  0.00    -0.365 N 
HETATM   28  H   UNL     1       9.479  21.452  55.286  1.00  0.00     0.159 HD
HETATM   29  H   UNL     1       9.476  20.854  53.625  1.00  0.00     0.159 HD
HETATM   30  O   UNL     1       7.735  22.493  52.873  1.00  0.00    -0.266 OA
ENDBRANCH   8  26
TORSDOF 3
ENDMDL
MODEL 7
REMARK VINA RESULT:      -8.2      3.873      8.752
REMARK  3 active torsions:
REMARK  status: ('A' for Active; 'I' for Inactive)
REMARK    1  A    between atoms: C_9  and  C_10 
REMARK       I    between atoms: C_10  and  N_11 
REMARK    2  A    between atoms: N_11  and  C_12 
REMARK    3  A    between atoms: C_19  and  C_20 
REMARK       I    between atoms: C_20  and  N_21 
ROOT
HETATM    1  C   UNL     1       6.972  25.127  54.887  1.00  0.00     0.035 A 
HETATM    2  C   UNL     1       7.520  23.984  55.481  1.00  0.00     0.046 A 
HETATM    3  C   UNL     1       7.933  22.910  54.663  1.00  0.00     0.030 A 
HETATM    4  C   UNL     1       7.807  23.027  53.284  1.00  0.00     0.063 A 
HETATM    5  N   UNL     1       8.271  21.847  52.776  1.00  0.00    -0.277 N 
HETATM    6  H   UNL     1       8.323  21.579  51.800  1.00  0.00     0.189 HD
HETATM    7  N   UNL     1       8.678  20.963  53.701  1.00  0.00    -0.168 NA
HETATM    8  C   UNL     1       8.474  21.606  54.874  1.00  0.00     0.156 A 
HETATM    9  C   UNL     1       7.291  24.163  52.659  1.00  0.00     0.034 A 
HETATM   10  C   UNL     1       6.869  25.206  53.491  1.00  0.00     0.032 A 
ENDROOT
BRANCH   1  11
HETATM   11  N   UNL     1       6.419  26.192  55.618  1.00  0.00    -0.325 N 
HETATM   12  C   UNL     1       7.069  27.303  56.127  1.00  0.00     0.252 C 
HETATM   13  O   UNL     1       8.147  27.748  55.745  1.00  0.00    -0.270 OA
HETATM   14  H   UNL     1       5.456  26.085  55.919  1.00  0.00     0.169 HD
BRANCH  12  15
HETATM   15  C   UNL     1       6.347  27.917  57.348  1.00  0.00     0.225 C 
HETATM   16  C   UNL     1       4.831  27.876  57.098  1.00  0.00     0.083 C 
HETATM   17  C   UNL     1       4.653  29.257  56.590  1.00  0.00    -0.021 A 
HETATM   18  C   UNL     1       5.741  30.022  56.969  1.00  0.00     0.076 A 
HETATM   19  C   UNL     1       3.628  29.804  55.844  1.00  0.00     0.017 A 
HETATM   20  C   UNL     1       5.848  31.357  56.645  1.00  0.00     0.044 A 
HETATM   21  O   UNL     1       6.726  29.297  57.596  1.00  0.00    -0.336 OA
HETATM   22  C   UNL     1       4.830  31.939  55.872  1.00  0.00    -0.053 A 
HETATM   23  C   UNL     1       3.720  31.154  55.457  1.00  0.00    -0.055 A 
HETATM   24  C   UNL     1       4.963  33.381  55.461  1.00  0.00     0.049 C 
HETATM   25  C   UNL     1       2.646  31.731  54.573  1.00  0.00     0.049 C 
ENDBRANCH  12  15
ENDBRANCH   1  11
BRANCH   8  26
HETATM   26  C   UNL     1       8.782  20.959  56.158  1.00  0.00     0.270 C 
HETATM   27  N   UNL     1       9.702  19.952  56.068  1.00  0.00    -0.365 N 
HETATM   28  H   UNL     1      10.084  19.724  55.158  1.00  0.00     0.159 HD
HETATM   29  H   UNL     1       9.963  19.441  56.896  1.00  0.00     0.159 HD
HETATM   30  O   UNL     1       8.272  21.260  57.232  1.00  0.00    -0.266 OA
ENDBRANCH   8  26
TORSDOF 3
ENDMDL
MODEL 8
REMARK VINA RESULT:      -8.1      9.001     12.329
REMARK  3 active torsions:
REMARK  status: ('A' for Active; 'I' for Inactive)
REMARK    1  A    between atoms: C_9  and  C_10 
REMARK       I    between atoms: C_10  and  N_11 
REMARK    2  A    between atoms: N_11  and  C_12 
REMARK    3  A    between atoms: C_19  and  C_20 
REMARK       I    between atoms: C_20  and  N_21 
ROOT
HETATM    1  C   UNL     1       5.462  37.274  63.754  1.00  0.00     0.035 A 
HETATM    2  C   UNL     1       5.635  38.466  64.467  1.00  0.00     0.046 A 
HETATM    3  C   UNL     1       6.297  39.550  63.851  1.00  0.00     0.030 A 
HETATM    4  C   UNL     1       6.737  39.413  62.540  1.00  0.00     0.063 A 
HETATM    5  N   UNL     1       7.336  40.601  62.232  1.00  0.00    -0.277 N 
HETATM    6  H   UNL     1       7.777  40.856  61.355  1.00  0.00     0.189 HD
HETATM    7  N   UNL     1       7.337  41.500  63.229  1.00  0.00    -0.168 NA
HETATM    8  C   UNL     1       6.699  40.865  64.238  1.00  0.00     0.156 A 
HETATM    9  C   UNL     1       6.556  38.249  61.792  1.00  0.00     0.034 A 
HETATM   10  C   UNL     1       5.916  37.180  62.431  1.00  0.00     0.032 A 
ENDROOT
BRANCH   1  11
HETATM   11  N   UNL     1       4.930  36.103  64.319  1.00  0.00    -0.325 N 
HETATM   12  C   UNL     1       4.793  35.791  65.660  1.00  0.00     0.252 C 
HETATM   13  O   UNL     1       4.771  36.593  66.590  1.00  0.00    -0.270 OA
HETATM   14  H   UNL     1       4.733  35.339  63.682  1.00  0.00     0.169 HD
BRANCH  12  15
HETATM   15  C   UNL     1       4.771  34.269  65.928  1.00  0.00     0.225 C 
HETATM   16  C   UNL     1       6.213  33.785  66.147  1.00  0.00     0.083 C 
HETATM   17  C   UNL     1       6.498  33.305  64.774  1.00  0.00    -0.021 A 
HETATM   18  C   UNL     1       5.302  33.109  64.107  1.00  0.00     0.076 A 
HETATM   19  C   UNL     1       7.705  33.070  64.147  1.00  0.00     0.017 A 
HETATM   20  C   UNL     1       5.253  32.653  62.808  1.00  0.00     0.044 A 
HETATM   21  O   UNL     1       4.202  33.508  64.829  1.00  0.00    -0.336 OA
HETATM   22  C   UNL     1       6.464  32.421  62.136  1.00  0.00    -0.053 A 
HETATM   23  C   UNL     1       7.698  32.643  62.806  1.00  0.00    -0.055 A 
HETATM   24  C   UNL     1       6.426  31.980  60.697  1.00  0.00     0.049 C 
HETATM   25  C   UNL     1       9.013  32.467  62.093  1.00  0.00     0.049 C 
ENDBRANCH  12  15
ENDBRANCH   1  11
BRANCH   8  26
HETATM   26  C   UNL     1       6.504  41.513  65.543  1.00  0.00     0.270 C 
HETATM   27  N   UNL     1       7.562  41.374  66.398  1.00  0.00    -0.365 N 
HETATM   28  H   UNL     1       8.369  40.845  66.089  1.00  0.00     0.159 HD
HETATM   29  H   UNL     1       7.511  41.773  67.322  1.00  0.00     0.159 HD
HETATM   30  O   UNL     1       5.494  42.124  65.876  1.00  0.00    -0.266 OA
ENDBRANCH   8  26
TORSDOF 3
ENDMDL
MODEL 9
REMARK VINA RESULT:      -8.1      4.216      9.663
REMARK  3 active torsions:
REMARK  status: ('A' for Active; 'I' for Inactive)
REMARK    1  A    between atoms: C_9  and  C_10 
REMARK       I    between atoms: C_10  and  N_11 
REMARK    2  A    between atoms: N_11  and  C_12 
REMARK    3  A    between atoms: C_19  and  C_20 
REMARK       I    between atoms: C_20  and  N_21 
ROOT
HETATM    1  C   UNL     1       7.708  30.092  58.560  1.00  0.00     0.035 A 
HETATM    2  C   UNL     1       6.664  29.608  57.762  1.00  0.00     0.046 A 
HETATM    3  C   UNL     1       6.952  29.128  56.466  1.00  0.00     0.030 A 
HETATM    4  C   UNL     1       8.271  29.125  56.027  1.00  0.00     0.063 A 
HETATM    5  N   UNL     1       8.228  28.623  54.757  1.00  0.00    -0.277 N 
HETATM    6  H   UNL     1       9.011  28.483  54.127  1.00  0.00     0.189 HD
HETATM    7  N   UNL     1       6.998  28.308  54.322  1.00  0.00    -0.168 NA
HETATM    8  C   UNL     1       6.197  28.616  55.368  1.00  0.00     0.156 A 
HETATM    9  C   UNL     1       9.336  29.574  56.807  1.00  0.00     0.034 A 
HETATM   10  C   UNL     1       9.025  30.066  58.080  1.00  0.00     0.032 A 
ENDROOT
BRANCH   1  11
HETATM   11  N   UNL     1       7.508  30.704  59.810  1.00  0.00    -0.325 N 
HETATM   12  C   UNL     1       8.156  31.812  60.328  1.00  0.00     0.252 C 
HETATM   13  O   UNL     1       8.753  32.668  59.682  1.00  0.00    -0.270 OA
HETATM   14  H   UNL     1       6.909  30.215  60.466  1.00  0.00     0.169 HD
BRANCH  12  15
HETATM   15  C   UNL     1       8.161  31.839  61.874  1.00  0.00     0.225 C 
HETATM   16  C   UNL     1       6.892  31.140  62.385  1.00  0.00     0.083 C 
HETATM   17  C   UNL     1       6.048  32.340  62.597  1.00  0.00    -0.021 A 
HETATM   18  C   UNL     1       6.860  33.456  62.669  1.00  0.00     0.076 A 
HETATM   19  C   UNL     1       4.676  32.454  62.706  1.00  0.00     0.017 A 
HETATM   20  C   UNL     1       6.353  34.721  62.874  1.00  0.00     0.044 A 
HETATM   21  O   UNL     1       8.185  33.186  62.417  1.00  0.00    -0.336 OA
HETATM   22  C   UNL     1       4.961  34.874  62.971  1.00  0.00    -0.053 A 
HETATM   23  C   UNL     1       4.116  33.734  62.874  1.00  0.00    -0.055 A 
HETATM   24  C   UNL     1       4.389  36.257  63.135  1.00  0.00     0.049 C 
HETATM   25  C   UNL     1       2.617  33.872  62.909  1.00  0.00     0.049 C 
ENDBRANCH  12  15
ENDBRANCH   1  11
BRANCH   8  26
HETATM   26  C   UNL     1       4.741  28.432  55.290  1.00  0.00     0.270 C 
HETATM   27  N   UNL     1       4.239  27.554  56.211  1.00  0.00    -0.365 N 
HETATM   28  H   UNL     1       4.883  27.102  56.850  1.00  0.00     0.159 HD
HETATM   29  H   UNL     1       3.252  27.353  56.222  1.00  0.00     0.159 HD
HETATM   30  O   UNL     1       4.008  28.989  54.479  1.00  0.00    -0.266 OA
ENDBRANCH   8  26
TORSDOF 3
ENDMDL
MODEL 10
REMARK VINA RESULT:      -8.0      6.555      8.697
REMARK  3 active torsions:
REMARK  status: ('A' for Active; 'I' for Inactive)
REMARK    1  A    between atoms: C_9  and  C_10 
REMARK       I    between atoms: C_10  and  N_11 
REMARK    2  A    between atoms: N_11  and  C_12 
REMARK    3  A    between atoms: C_19  and  C_20 
REMARK       I    between atoms: C_20  and  N_21 
ROOT
HETATM    1  C   UNL     1       6.087  26.524  51.729  1.00  0.00     0.035 A 
HETATM    2  C   UNL     1       5.693  27.127  52.930  1.00  0.00     0.046 A 
HETATM    3  C   UNL     1       6.116  26.567  54.155  1.00  0.00     0.030 A 
HETATM    4  C   UNL     1       6.935  25.445  54.135  1.00  0.00     0.063 A 
HETATM    5  N   UNL     1       7.161  25.139  55.447  1.00  0.00    -0.277 N 
HETATM    6  H   UNL     1       7.716  24.371  55.810  1.00  0.00     0.189 HD
HETATM    7  N   UNL     1       6.553  25.954  56.324  1.00  0.00    -0.168 NA
HETATM    8  C   UNL     1       5.901  26.843  55.540  1.00  0.00     0.156 A 
HETATM    9  C   UNL     1       7.368  24.837  52.957  1.00  0.00     0.034 A 
HETATM   10  C   UNL     1       6.920  25.396  51.755  1.00  0.00     0.032 A 
ENDROOT
BRANCH   1  11
HETATM   11  N   UNL     1       5.619  26.929  50.468  1.00  0.00    -0.325 N 
HETATM   12  C   UNL     1       4.771  26.245  49.615  1.00  0.00     0.252 C 
HETATM   13  O   UNL     1       3.997  25.346  49.932  1.00  0.00    -0.270 OA
HETATM   14  H   UNL     1       6.040  27.763  50.072  1.00  0.00     0.169 HD
BRANCH  12  15
HETATM   15  C   UNL     1       4.953  26.646  48.133  1.00  0.00     0.225 C 
HETATM   16  C   UNL     1       4.883  28.177  48.024  1.00  0.00     0.083 C 
HETATM   17  C   UNL     1       3.457  28.308  47.644  1.00  0.00    -0.021 A 
HETATM   18  C   UNL     1       3.005  27.094  47.161  1.00  0.00     0.076 A 
HETATM   19  C   UNL     1       2.611  29.397  47.725  1.00  0.00     0.017 A 
HETATM   20  C   UNL     1       1.712  26.915  46.719  1.00  0.00     0.044 A 
HETATM   21  O   UNL     1       3.933  26.085  47.264  1.00  0.00    -0.336 OA
HETATM   22  C   UNL     1       0.822  27.998  46.803  1.00  0.00    -0.053 A 
HETATM   23  C   UNL     1       1.271  29.244  47.322  1.00  0.00    -0.055 A 
HETATM   24  C   UNL     1      -0.609  27.800  46.380  1.00  0.00     0.049 C 
HETATM   25  C   UNL     1       0.326  30.404  47.487  1.00  0.00     0.049 C 
ENDBRANCH  12  15
ENDBRANCH   1  11
BRANCH   8  26
HETATM   26  C   UNL     1       5.082  27.914  56.124  1.00  0.00     0.270 C 
HETATM   27  N   UNL     1       5.621  28.478  57.248  1.00  0.00    -0.365 N 
HETATM   28  H   UNL     1       6.506  28.124  57.590  1.00  0.00     0.159 HD
HETATM   29  H   UNL     1       5.121  29.210  57.726  1.00  0.00     0.159 HD
HETATM   30  O   UNL     1       4.001  28.289  55.681  1.00  0.00    -0.266 OA
ENDBRANCH   8  26
TORSDOF 3
ENDMDL
