MODEL 1
REMARK VINA RESULT:      -8.6      0.000      0.000
REMARK  7 active torsions:
REMARK  status: ('A' for Active; 'I' for Inactive)
REMARK    1  A    between atoms: C_2  and  N_3 
REMARK       I    between atoms: N_3  and  C_4 
REMARK    2  A    between atoms: C_4  and  C_5 
REMARK    3  A    between atoms: N_8  and  C_10 
REMARK    4  A    between atoms: C_10  and  N_11 
REMARK    5  A    between atoms: C_13  and  C_14 
REMARK    6  A    between atoms: C_14  and  N_15 
REMARK    7  A    between atoms: N_22  and  C_23 
ROOT
HETATM    1  N   UNL     1       4.847  27.671  54.250  1.00  0.00    -0.216 N 
HETATM    2  N   UNL     1       5.516  26.482  54.472  1.00  0.00    -0.153 NA
HETATM    3  C   UNL     1       6.522  26.808  55.242  1.00  0.00     0.160 A 
HETATM    4  N   UNL     1       6.575  28.121  55.579  1.00  0.00    -0.272 N 
HETATM    5  C   UNL     1       5.502  28.720  54.923  1.00  0.00     0.204 A 
HETATM    6  S   UNL     1       4.944  30.289  54.960  1.00  0.00    -0.038 SA
ENDROOT
BRANCH   1   7
HETATM    7  C   UNL     1       3.755  27.764  53.294  1.00  0.00     0.388 C 
BRANCH   7   8
HETATM    8  N   UNL     1       4.162  28.502  52.048  1.00  0.00    -0.053 N 
HETATM    9  C   UNL     1       4.810  27.537  51.083  1.00  0.00     0.237 C 
HETATM   10  C   UNL     1       5.257  28.258  49.820  1.00  0.00     0.042 C 
HETATM   11  C   UNL     1       4.095  28.985  49.143  1.00  0.00     0.081 C 
HETATM   12  C   UNL     1       3.432  29.940  50.139  1.00  0.00     0.042 C 
HETATM   13  C   UNL     1       3.016  29.277  51.448  1.00  0.00     0.237 C 
HETATM   14  H   UNL     1       4.880  29.178  52.344  1.00  0.00     0.281 HD
BRANCH  11  15
HETATM   15  C   UNL     1       3.102  27.963  48.601  1.00  0.00     0.221 C 
HETATM   16  N   UNL     1       3.656  26.995  47.804  1.00  0.00    -0.361 N 
HETATM   17  H   UNL     1       4.583  27.132  47.415  1.00  0.00     0.162 HD
HETATM   18  O   UNL     1       1.929  27.961  48.961  1.00  0.00    -0.273 OA
BRANCH  16  19
HETATM   19  C   UNL     1       2.847  25.949  47.203  1.00  0.00     0.118 C 
HETATM   20  C   UNL     1       2.951  24.643  47.969  1.00  0.00     0.026 C 
ENDBRANCH  16  19
ENDBRANCH  11  15
ENDBRANCH   7   8
ENDBRANCH   1   7
BRANCH   3  21
HETATM   21  C   UNL     1       7.574  25.781  55.653  1.00  0.00     0.315 C 
BRANCH  21  22
HETATM   22  N   UNL     1       7.454  24.464  54.877  1.00  0.00    -0.064 N 
HETATM   23  H   UNL     1       6.442  24.288  54.779  1.00  0.00     0.280 HD
HETATM   24  C   UNL     1       8.026  24.550  53.478  1.00  0.00     0.235 C 
HETATM   25  C   UNL     1       7.713  23.261  52.731  1.00  0.00     0.028 C 
HETATM   26  C   UNL     1       8.250  22.040  53.470  1.00  0.00     0.003 C 
HETATM   27  C   UNL     1       7.757  22.004  54.912  1.00  0.00     0.028 C 
HETATM   28  C   UNL     1       8.052  23.304  55.646  1.00  0.00     0.235 C 
ENDBRANCH  21  22
ENDBRANCH   3  21
BRANCH   4  29
HETATM   29  C   UNL     1       7.513  28.737  56.440  1.00  0.00     0.043 A 
HETATM   30  C   UNL     1       7.207  28.976  57.785  1.00  0.00     0.030 A 
HETATM   31  C   UNL     1       8.132  29.601  58.625  1.00  0.00     0.002 A 
HETATM   32  C   UNL     1       9.373  29.990  58.131  1.00  0.00     0.000 A 
HETATM   33  C   UNL     1       9.696  29.751  56.800  1.00  0.00     0.002 A 
HETATM   34  C   UNL     1       8.771  29.128  55.956  1.00  0.00     0.030 A 
ENDBRANCH   4  29
TORSDOF 7
ENDMDL
MODEL 2
REMARK VINA RESULT:      -8.4      3.396      8.250
REMARK  7 active torsions:
REMARK  status: ('A' for Active; 'I' for Inactive)
REMARK    1  A    between atoms: C_2  and  N_3 
REMARK       I    between atoms: N_3  and  C_4 
REMARK    2  A    between atoms: C_4  and  C_5 
REMARK    3  A    between atoms: N_8  and  C_10 
REMARK    4  A    between atoms: C_10  and  N_11 
REMARK    5  A    between atoms: C_13  and  C_14 
REMARK    6  A    between atoms: C_14  and  N_15 
REMARK    7  A    between atoms: N_22  and  C_23 
ROOT
HETATM    1  N   UNL     1       6.631  27.334  55.993  1.00  0.00    -0.216 N 
HETATM    2  N   UNL     1       7.606  26.412  55.667  1.00  0.00    -0.153 NA
HETATM    3  C   UNL     1       7.287  26.004  54.465  1.00  0.00     0.160 A 
HETATM    4  N   UNL     1       6.184  26.595  53.942  1.00  0.00    -0.272 N 
HETATM    5  C   UNL     1       5.715  27.456  54.930  1.00  0.00     0.204 A 
HETATM    6  S   UNL     1       4.445  28.535  54.919  1.00  0.00    -0.038 SA
ENDROOT
BRANCH   1   7
HETATM    7  C   UNL     1       6.531  27.899  57.330  1.00  0.00     0.388 C 
BRANCH   7   8
HETATM    8  N   UNL     1       7.209  29.237  57.425  1.00  0.00    -0.053 N 
HETATM    9  C   UNL     1       6.347  30.179  58.232  1.00  0.00     0.237 C 
HETATM   10  C   UNL     1       6.995  31.555  58.326  1.00  0.00     0.042 C 
HETATM   11  C   UNL     1       8.399  31.477  58.923  1.00  0.00     0.081 C 
HETATM   12  C   UNL     1       9.254  30.500  58.112  1.00  0.00     0.042 C 
HETATM   13  C   UNL     1       8.622  29.123  57.939  1.00  0.00     0.237 C 
HETATM   14  H   UNL     1       7.252  29.600  56.462  1.00  0.00     0.281 HD
BRANCH  11  15
HETATM   15  C   UNL     1       8.307  31.060  60.387  1.00  0.00     0.221 C 
HETATM   16  N   UNL     1       7.381  31.752  61.122  1.00  0.00    -0.361 N 
HETATM   17  H   UNL     1       7.008  32.626  60.768  1.00  0.00     0.162 HD
HETATM   18  O   UNL     1       8.938  30.098  60.816  1.00  0.00    -0.273 OA
BRANCH  16  19
HETATM   19  C   UNL     1       7.172  31.481  62.534  1.00  0.00     0.118 C 
HETATM   20  C   UNL     1       7.927  32.459  63.415  1.00  0.00     0.026 C 
ENDBRANCH  16  19
ENDBRANCH  11  15
ENDBRANCH   7   8
ENDBRANCH   1   7
BRANCH   3  21
HETATM   21  C   UNL     1       8.075  24.899  53.766  1.00  0.00     0.315 C 
BRANCH  21  22
HETATM   22  N   UNL     1       7.886  23.527  54.422  1.00  0.00    -0.064 N 
HETATM   23  H   UNL     1       6.907  23.505  54.748  1.00  0.00     0.280 HD
HETATM   24  C   UNL     1       8.054  22.380  53.449  1.00  0.00     0.235 C 
HETATM   25  C   UNL     1       7.684  21.077  54.145  1.00  0.00     0.028 C 
HETATM   26  C   UNL     1       8.517  20.856  55.403  1.00  0.00     0.003 C 
HETATM   27  C   UNL     1       8.431  22.055  56.341  1.00  0.00     0.028 C 
HETATM   28  C   UNL     1       8.779  23.357  55.634  1.00  0.00     0.235 C 
ENDBRANCH  21  22
ENDBRANCH   3  21
BRANCH   4  29
HETATM   29  C   UNL     1       5.649  26.391  52.649  1.00  0.00     0.043 A 
HETATM   30  C   UNL     1       5.045  25.176  52.303  1.00  0.00     0.030 A 
HETATM   31  C   UNL     1       4.534  24.977  51.018  1.00  0.00     0.002 A 
HETATM   32  C   UNL     1       4.617  25.989  50.067  1.00  0.00     0.000 A 
HETATM   33  C   UNL     1       5.205  27.205  50.398  1.00  0.00     0.002 A 
HETATM   34  C   UNL     1       5.719  27.407  51.683  1.00  0.00     0.030 A 
ENDBRANCH   4  29
TORSDOF 7
ENDMDL
MODEL 3
REMARK VINA RESULT:      -8.4      2.012      4.617
REMARK  7 active torsions:
REMARK  status: ('A' for Active; 'I' for Inactive)
REMARK    1  A    between atoms: C_2  and  N_3 
REMARK       I    between atoms: N_3  and  C_4 
REMARK    2  A    between atoms: C_4  and  C_5 
REMARK    3  A    between atoms: N_8  and  C_10 
REMARK    4  A    between atoms: C_10  and  N_11 
REMARK    5  A    between atoms: C_13  and  C_14 
REMARK    6  A    between atoms: C_14  and  N_15 
REMARK    7  A    between atoms: N_22  and  C_23 
ROOT
HETATM    1  N   UNL     1       5.350  27.455  52.458  1.00  0.00    -0.216 N 
HETATM    2  N   UNL     1       6.355  28.332  52.816  1.00  0.00    -0.153 NA
HETATM    3  C   UNL     1       7.095  27.660  53.661  1.00  0.00     0.160 A 
HETATM    4  N   UNL     1       6.682  26.387  53.885  1.00  0.00    -0.272 N 
HETATM    5  C   UNL     1       5.524  26.229  53.128  1.00  0.00     0.204 A 
HETATM    6  S   UNL     1       4.555  24.895  52.888  1.00  0.00    -0.038 SA
ENDROOT
BRANCH   1   7
HETATM    7  C   UNL     1       4.214  27.884  51.655  1.00  0.00     0.388 C 
BRANCH   7   8
HETATM    8  N   UNL     1       4.563  27.978  50.195  1.00  0.00    -0.053 N 
HETATM    9  C   UNL     1       4.529  26.598  49.582  1.00  0.00     0.237 C 
HETATM   10  C   UNL     1       4.904  26.655  48.107  1.00  0.00     0.042 C 
HETATM   11  C   UNL     1       3.992  27.604  47.330  1.00  0.00     0.081 C 
HETATM   12  C   UNL     1       4.016  28.991  47.978  1.00  0.00     0.042 C 
HETATM   13  C   UNL     1       3.704  28.982  49.470  1.00  0.00     0.237 C 
HETATM   14  H   UNL     1       5.537  28.312  50.161  1.00  0.00     0.281 HD
BRANCH  11  15
HETATM   15  C   UNL     1       2.580  27.031  47.285  1.00  0.00     0.221 C 
HETATM   16  N   UNL     1       1.605  27.936  46.955  1.00  0.00    -0.361 N 
HETATM   17  H   UNL     1       1.802  28.930  47.009  1.00  0.00     0.162 HD
HETATM   18  O   UNL     1       2.376  25.828  47.421  1.00  0.00    -0.273 OA
BRANCH  16  19
HETATM   19  C   UNL     1       0.207  27.553  46.874  1.00  0.00     0.118 C 
HETATM   20  C   UNL     1      -0.311  27.602  45.448  1.00  0.00     0.026 C 
ENDBRANCH  16  19
ENDBRANCH  11  15
ENDBRANCH   7   8
ENDBRANCH   1   7
BRANCH   3  21
HETATM   21  C   UNL     1       8.279  28.309  54.372  1.00  0.00     0.315 C 
BRANCH  21  22
HETATM   22  N   UNL     1       7.988  28.628  55.843  1.00  0.00    -0.064 N 
HETATM   23  H   UNL     1       7.933  27.715  56.321  1.00  0.00     0.280 HD
HETATM   24  C   UNL     1       9.100  29.410  56.507  1.00  0.00     0.235 C 
HETATM   25  C   UNL     1       8.803  29.532  57.996  1.00  0.00     0.028 C 
HETATM   26  C   UNL     1       7.448  30.184  58.246  1.00  0.00     0.003 C 
HETATM   27  C   UNL     1       6.337  29.459  57.494  1.00  0.00     0.028 C 
HETATM   28  C   UNL     1       6.650  29.319  56.012  1.00  0.00     0.235 C 
ENDBRANCH  21  22
ENDBRANCH   3  21
BRANCH   4  29
HETATM   29  C   UNL     1       7.319  25.422  54.698  1.00  0.00     0.043 A 
HETATM   30  C   UNL     1       8.063  24.380  54.131  1.00  0.00     0.030 A 
HETATM   31  C   UNL     1       8.675  23.420  54.941  1.00  0.00     0.002 A 
HETATM   32  C   UNL     1       8.555  23.494  56.325  1.00  0.00     0.000 A 
HETATM   33  C   UNL     1       7.828  24.528  56.904  1.00  0.00     0.002 A 
HETATM   34  C   UNL     1       7.212  25.488  56.096  1.00  0.00     0.030 A 
ENDBRANCH   4  29
TORSDOF 7
ENDMDL
MODEL 4
REMARK VINA RESULT:      -8.1      7.417     12.127
REMARK  7 active torsions:
REMARK  status: ('A' for Active; 'I' for Inactive)
REMARK    1  A    between atoms: C_2  and  N_3 
REMARK       I    between atoms: N_3  and  C_4 
REMARK    2  A    between atoms: C_4  and  C_5 
REMARK    3  A    between atoms: N_8  and  C_10 
REMARK    4  A    between atoms: C_10  and  N_11 
REMARK    5  A    between atoms: C_13  and  C_14 
REMARK    6  A    between atoms: C_14  and  N_15 
REMARK    7  A    between atoms: N_22  and  C_23 
ROOT
HETATM    1  N   UNL     1       6.188  32.035  61.713  1.00  0.00    -0.216 N 
HETATM    2  N   UNL     1       5.489  32.427  60.588  1.00  0.00    -0.153 NA
HETATM    3  C   UNL     1       6.261  32.090  59.586  1.00  0.00     0.160 A 
HETATM    4  N   UNL     1       7.418  31.480  59.944  1.00  0.00    -0.272 N 
HETATM    5  C   UNL     1       7.412  31.450  61.336  1.00  0.00     0.204 A 
HETATM    6  S   UNL     1       8.491  30.781  62.415  1.00  0.00    -0.038 SA
ENDROOT
BRANCH   1   7
HETATM    7  C   UNL     1       5.739  32.391  63.051  1.00  0.00     0.388 C 
BRANCH   7   8
HETATM    8  N   UNL     1       5.274  33.818  63.126  1.00  0.00    -0.053 N 
HETATM    9  C   UNL     1       3.858  33.857  63.653  1.00  0.00     0.237 C 
HETATM   10  C   UNL     1       3.347  35.290  63.716  1.00  0.00     0.042 C 
HETATM   11  C   UNL     1       4.254  36.176  64.569  1.00  0.00     0.081 C 
HETATM   12  C   UNL     1       5.690  36.106  64.040  1.00  0.00     0.042 C 
HETATM   13  C   UNL     1       6.230  34.687  63.903  1.00  0.00     0.237 C 
HETATM   14  H   UNL     1       5.256  34.159  62.154  1.00  0.00     0.281 HD
BRANCH  11  15
HETATM   15  C   UNL     1       4.172  35.735  66.026  1.00  0.00     0.221 C 
HETATM   16  N   UNL     1       5.380  35.661  66.671  1.00  0.00    -0.361 N 
HETATM   17  H   UNL     1       6.238  35.644  66.131  1.00  0.00     0.162 HD
HETATM   18  O   UNL     1       3.090  35.581  66.585  1.00  0.00    -0.273 OA
BRANCH  16  19
HETATM   19  C   UNL     1       5.477  35.253  68.061  1.00  0.00     0.118 C 
HETATM   20  C   UNL     1       6.800  34.571  68.359  1.00  0.00     0.026 C 
ENDBRANCH  16  19
ENDBRANCH  11  15
ENDBRANCH   7   8
ENDBRANCH   1   7
BRANCH   3  21
HETATM   21  C   UNL     1       5.889  32.435  58.146  1.00  0.00     0.315 C 
BRANCH  21  22
HETATM   22  N   UNL     1       5.097  31.321  57.453  1.00  0.00    -0.064 N 
HETATM   23  H   UNL     1       5.048  30.547  58.133  1.00  0.00     0.280 HD
HETATM   24  C   UNL     1       3.673  31.721  57.133  1.00  0.00     0.235 C 
HETATM   25  C   UNL     1       2.920  30.507  56.605  1.00  0.00     0.028 C 
HETATM   26  C   UNL     1       3.609  29.907  55.385  1.00  0.00     0.003 C 
HETATM   27  C   UNL     1       5.073  29.597  55.672  1.00  0.00     0.028 C 
HETATM   28  C   UNL     1       5.814  30.807  56.221  1.00  0.00     0.235 C 
ENDBRANCH  21  22
ENDBRANCH   3  21
BRANCH   4  29
HETATM   29  C   UNL     1       8.404  30.960  59.075  1.00  0.00     0.043 A 
HETATM   30  C   UNL     1       9.564  31.689  58.783  1.00  0.00     0.030 A 
HETATM   31  C   UNL     1      10.525  31.177  57.909  1.00  0.00     0.002 A 
HETATM   32  C   UNL     1      10.341  29.929  57.320  1.00  0.00     0.000 A 
HETATM   33  C   UNL     1       9.200  29.189  57.607  1.00  0.00     0.002 A 
HETATM   34  C   UNL     1       8.235  29.700  58.480  1.00  0.00     0.030 A 
ENDBRANCH   4  29
TORSDOF 7
ENDMDL
MODEL 5
REMARK VINA RESULT:      -8.1      3.577      7.045
REMARK  7 active torsions:
REMARK  status: ('A' for Active; 'I' for Inactive)
REMARK    1  A    between atoms: C_2  and  N_3 
REMARK       I    between atoms: N_3  and  C_4 
REMARK    2  A    between atoms: C_4  and  C_5 
REMARK    3  A    between atoms: N_8  and  C_10 
REMARK    4  A    between atoms: C_10  and  N_11 
REMARK    5  A    between atoms: C_13  and  C_14 
REMARK    6  A    between atoms: C_14  and  N_15 
REMARK    7  A    between atoms: N_22  and  C_23 
ROOT
HETATM    1  N   UNL     1       7.681  29.261  55.917  1.00  0.00    -0.216 N 
HETATM    2  N   UNL     1       6.421  29.728  56.236  1.00  0.00    -0.153 NA
HETATM    3  C   UNL     1       6.563  30.282  57.413  1.00  0.00     0.160 A 
HETATM    4  N   UNL     1       7.826  30.246  57.906  1.00  0.00    -0.272 N 
HETATM    5  C   UNL     1       8.580  29.560  56.958  1.00  0.00     0.204 A 
HETATM    6  S   UNL     1      10.212  29.227  56.900  1.00  0.00    -0.038 SA
ENDROOT
BRANCH   1   7
HETATM    7  C   UNL     1       7.911  28.424  54.749  1.00  0.00     0.388 C 
BRANCH   7   8
HETATM    8  N   UNL     1       6.821  27.404  54.566  1.00  0.00    -0.053 N 
HETATM    9  C   UNL     1       6.696  27.061  53.100  1.00  0.00     0.237 C 
HETATM   10  C   UNL     1       5.581  26.048  52.877  1.00  0.00     0.042 C 
HETATM   11  C   UNL     1       5.798  24.780  53.703  1.00  0.00     0.081 C 
HETATM   12  C   UNL     1       5.949  25.145  55.182  1.00  0.00     0.042 C 
HETATM   13  C   UNL     1       7.015  26.201  55.452  1.00  0.00     0.237 C 
HETATM   14  H   UNL     1       5.949  27.871  54.854  1.00  0.00     0.281 HD
BRANCH  11  15
HETATM   15  C   UNL     1       7.023  24.037  53.181  1.00  0.00     0.221 C 
HETATM   16  N   UNL     1       7.399  22.954  53.934  1.00  0.00    -0.361 N 
HETATM   17  H   UNL     1       7.045  22.851  54.878  1.00  0.00     0.162 HD
HETATM   18  O   UNL     1       7.538  24.333  52.107  1.00  0.00    -0.273 OA
BRANCH  16  19
HETATM   19  C   UNL     1       8.548  22.141  53.577  1.00  0.00     0.118 C 
HETATM   20  C   UNL     1       8.135  20.784  53.037  1.00  0.00     0.026 C 
ENDBRANCH  16  19
ENDBRANCH  11  15
ENDBRANCH   7   8
ENDBRANCH   1   7
BRANCH   3  21
HETATM   21  C   UNL     1       5.367  30.851  58.172  1.00  0.00     0.315 C 
BRANCH  21  22
HETATM   22  N   UNL     1       4.853  32.166  57.575  1.00  0.00    -0.064 N 
HETATM   23  H   UNL     1       5.565  32.458  56.888  1.00  0.00     0.280 HD
HETATM   24  C   UNL     1       3.551  32.002  56.822  1.00  0.00     0.235 C 
HETATM   25  C   UNL     1       3.209  33.313  56.127  1.00  0.00     0.028 C 
HETATM   26  C   UNL     1       3.128  34.469  57.118  1.00  0.00     0.003 C 
HETATM   27  C   UNL     1       4.400  34.574  57.952  1.00  0.00     0.028 C 
HETATM   28  C   UNL     1       4.750  33.254  58.624  1.00  0.00     0.235 C 
ENDBRANCH  21  22
ENDBRANCH   3  21
BRANCH   4  29
HETATM   29  C   UNL     1       8.276  30.816  59.120  1.00  0.00     0.043 A 
HETATM   30  C   UNL     1       8.721  30.008  60.173  1.00  0.00     0.030 A 
HETATM   31  C   UNL     1       9.148  30.577  61.375  1.00  0.00     0.002 A 
HETATM   32  C   UNL     1       9.138  31.960  61.537  1.00  0.00     0.000 A 
HETATM   33  C   UNL     1       8.708  32.776  60.497  1.00  0.00     0.002 A 
HETATM   34  C   UNL     1       8.278  32.209  59.293  1.00  0.00     0.030 A 
ENDBRANCH   4  29
TORSDOF 7
ENDMDL
MODEL 6
REMARK VINA RESULT:      -8.0      1.427      4.704
REMARK  7 active torsions:
REMARK  status: ('A' for Active; 'I' for Inactive)
REMARK    1  A    between atoms: C_2  and  N_3 
REMARK       I    between atoms: N_3  and  C_4 
REMARK    2  A    between atoms: C_4  and  C_5 
REMARK    3  A    between atoms: N_8  and  C_10 
REMARK    4  A    between atoms: C_10  and  N_11 
REMARK    5  A    between atoms: C_13  and  C_14 
REMARK    6  A    between atoms: C_14  and  N_15 
REMARK    7  A    between atoms: N_22  and  C_23 
ROOT
HETATM    1  N   UNL     1       5.164  27.118  53.854  1.00  0.00    -0.216 N 
HETATM    2  N   UNL     1       6.070  27.670  54.739  1.00  0.00    -0.153 NA
HETATM    3  C   UNL     1       6.847  26.674  55.080  1.00  0.00     0.160 A 
HETATM    4  N   UNL     1       6.552  25.495  54.477  1.00  0.00    -0.272 N 
HETATM    5  C   UNL     1       5.436  25.747  53.684  1.00  0.00     0.204 A 
HETATM    6  S   UNL     1       4.606  24.761  52.628  1.00  0.00    -0.038 SA
ENDROOT
BRANCH   1   7
HETATM    7  C   UNL     1       4.015  27.870  53.371  1.00  0.00     0.388 C 
BRANCH   7   8
HETATM    8  N   UNL     1       4.367  28.738  52.195  1.00  0.00    -0.053 N 
HETATM    9  C   UNL     1       5.001  27.889  51.118  1.00  0.00     0.237 C 
HETATM   10  C   UNL     1       5.394  28.743  49.920  1.00  0.00     0.042 C 
HETATM   11  C   UNL     1       4.197  29.509  49.357  1.00  0.00     0.081 C 
HETATM   12  C   UNL     1       3.549  30.344  50.464  1.00  0.00     0.042 C 
HETATM   13  C   UNL     1       3.189  29.544  51.711  1.00  0.00     0.237 C 
HETATM   14  H   UNL     1       5.082  29.396  52.536  1.00  0.00     0.281 HD
BRANCH  11  15
HETATM   15  C   UNL     1       3.206  28.525  48.744  1.00  0.00     0.221 C 
HETATM   16  N   UNL     1       3.748  27.666  47.824  1.00  0.00    -0.361 N 
HETATM   17  H   UNL     1       4.653  27.870  47.416  1.00  0.00     0.162 HD
HETATM   18  O   UNL     1       2.049  28.451  49.149  1.00  0.00    -0.273 OA
BRANCH  16  19
HETATM   19  C   UNL     1       2.938  26.670  47.143  1.00  0.00     0.118 C 
HETATM   20  C   UNL     1       3.091  25.295  47.767  1.00  0.00     0.026 C 
ENDBRANCH  16  19
ENDBRANCH  11  15
ENDBRANCH   7   8
ENDBRANCH   1   7
BRANCH   3  21
HETATM   21  C   UNL     1       7.943  26.844  56.128  1.00  0.00     0.315 C 
BRANCH  21  22
HETATM   22  N   UNL     1       8.052  28.283  56.647  1.00  0.00    -0.064 N 
HETATM   23  H   UNL     1       7.757  28.885  55.864  1.00  0.00     0.280 HD
HETATM   24  C   UNL     1       7.115  28.565  57.801  1.00  0.00     0.235 C 
HETATM   25  C   UNL     1       7.169  30.049  58.136  1.00  0.00     0.028 C 
HETATM   26  C   UNL     1       8.589  30.500  58.459  1.00  0.00     0.003 C 
HETATM   27  C   UNL     1       9.557  30.125  57.342  1.00  0.00     0.028 C 
HETATM   28  C   UNL     1       9.481  28.646  56.996  1.00  0.00     0.235 C 
ENDBRANCH  21  22
ENDBRANCH   3  21
BRANCH   4  29
HETATM   29  C   UNL     1       7.256  24.276  54.613  1.00  0.00     0.043 A 
HETATM   30  C   UNL     1       7.202  23.541  55.804  1.00  0.00     0.030 A 
HETATM   31  C   UNL     1       7.915  22.348  55.936  1.00  0.00     0.002 A 
HETATM   32  C   UNL     1       8.687  21.873  54.879  1.00  0.00     0.000 A 
HETATM   33  C   UNL     1       8.743  22.586  53.687  1.00  0.00     0.002 A 
HETATM   34  C   UNL     1       8.032  23.782  53.552  1.00  0.00     0.030 A 
ENDBRANCH   4  29
TORSDOF 7
ENDMDL
MODEL 7
REMARK VINA RESULT:      -8.0      4.298      8.081
REMARK  7 active torsions:
REMARK  status: ('A' for Active; 'I' for Inactive)
REMARK    1  A    between atoms: C_2  and  N_3 
REMARK       I    between atoms: N_3  and  C_4 
REMARK    2  A    between atoms: C_4  and  C_5 
REMARK    3  A    between atoms: N_8  and  C_10 
REMARK    4  A    between atoms: C_10  and  N_11 
REMARK    5  A    between atoms: C_13  and  C_14 
REMARK    6  A    between atoms: C_14  and  N_15 
REMARK    7  A    between atoms: N_22  and  C_23 
ROOT
HETATM    1  N   UNL     1       6.561  29.591  56.934  1.00  0.00    -0.216 N 
HETATM    2  N   UNL     1       7.572  30.139  57.700  1.00  0.00    -0.153 NA
HETATM    3  C   UNL     1       7.021  31.172  58.283  1.00  0.00     0.160 A 
HETATM    4  N   UNL     1       5.709  31.354  57.990  1.00  0.00    -0.272 N 
HETATM    5  C   UNL     1       5.383  30.346  57.087  1.00  0.00     0.204 A 
HETATM    6  S   UNL     1       3.927  29.945  56.384  1.00  0.00    -0.038 SA
ENDROOT
BRANCH   1   7
HETATM    7  C   UNL     1       6.818  28.513  55.991  1.00  0.00     0.388 C 
BRANCH   7   8
HETATM    8  N   UNL     1       6.729  27.162  56.645  1.00  0.00    -0.053 N 
HETATM    9  C   UNL     1       5.882  26.247  55.792  1.00  0.00     0.237 C 
HETATM   10  C   UNL     1       5.750  24.875  56.441  1.00  0.00     0.042 C 
HETATM   11  C   UNL     1       7.116  24.242  56.704  1.00  0.00     0.081 C 
HETATM   12  C   UNL     1       7.973  25.191  57.547  1.00  0.00     0.042 C 
HETATM   13  C   UNL     1       8.088  26.597  56.969  1.00  0.00     0.237 C 
HETATM   14  H   UNL     1       6.230  27.312  57.533  1.00  0.00     0.281 HD
BRANCH  11  15
HETATM   15  C   UNL     1       7.788  23.911  55.376  1.00  0.00     0.221 C 
HETATM   16  N   UNL     1       6.944  23.894  54.296  1.00  0.00    -0.361 N 
HETATM   17  H   UNL     1       5.942  23.841  54.442  1.00  0.00     0.162 HD
HETATM   18  O   UNL     1       9.007  23.792  55.291  1.00  0.00    -0.273 OA
BRANCH  16  19
HETATM   19  C   UNL     1       7.424  23.591  52.959  1.00  0.00     0.118 C 
HETATM   20  C   UNL     1       7.639  24.848  52.137  1.00  0.00     0.026 C 
ENDBRANCH  16  19
ENDBRANCH  11  15
ENDBRANCH   7   8
ENDBRANCH   1   7
BRANCH   3  21
HETATM   21  C   UNL     1       7.837  32.117  59.161  1.00  0.00     0.315 C 
BRANCH  21  22
HETATM   22  N   UNL     1       7.562  31.926  60.657  1.00  0.00    -0.064 N 
HETATM   23  H   UNL     1       6.796  31.237  60.715  1.00  0.00     0.280 HD
HETATM   24  C   UNL     1       8.742  31.339  61.402  1.00  0.00     0.235 C 
HETATM   25  C   UNL     1       8.324  31.029  62.833  1.00  0.00     0.028 C 
HETATM   26  C   UNL     1       7.787  32.267  63.542  1.00  0.00     0.003 C 
HETATM   27  C   UNL     1       6.666  32.921  62.743  1.00  0.00     0.028 C 
HETATM   28  C   UNL     1       7.082  33.206  61.307  1.00  0.00     0.235 C 
ENDBRANCH  21  22
ENDBRANCH   3  21
BRANCH   4  29
HETATM   29  C   UNL     1       4.854  32.348  58.520  1.00  0.00     0.043 A 
HETATM   30  C   UNL     1       4.800  33.628  57.954  1.00  0.00     0.030 A 
HETATM   31  C   UNL     1       3.966  34.609  58.494  1.00  0.00     0.002 A 
HETATM   32  C   UNL     1       3.174  34.322  59.602  1.00  0.00     0.000 A 
HETATM   33  C   UNL     1       3.209  33.053  60.169  1.00  0.00     0.002 A 
HETATM   34  C   UNL     1       4.044  32.069  59.632  1.00  0.00     0.030 A 
ENDBRANCH   4  29
TORSDOF 7
ENDMDL
MODEL 8
REMARK VINA RESULT:      -7.6      3.502      7.988
REMARK  7 active torsions:
REMARK  status: ('A' for Active; 'I' for Inactive)
REMARK    1  A    between atoms: C_2  and  N_3 
REMARK       I    between atoms: N_3  and  C_4 
REMARK    2  A    between atoms: C_4  and  C_5 
REMARK    3  A    between atoms: N_8  and  C_10 
REMARK    4  A    between atoms: C_10  and  N_11 
REMARK    5  A    between atoms: C_13  and  C_14 
REMARK    6  A    between atoms: C_14  and  N_15 
REMARK    7  A    between atoms: N_22  and  C_23 
ROOT
HETATM    1  N   UNL     1       5.708  28.448  55.634  1.00  0.00    -0.216 N 
HETATM    2  N   UNL     1       6.827  27.664  55.430  1.00  0.00    -0.153 NA
HETATM    3  C   UNL     1       6.791  27.361  54.157  1.00  0.00     0.160 A 
HETATM    4  N   UNL     1       5.746  27.898  53.478  1.00  0.00    -0.272 N 
HETATM    5  C   UNL     1       5.002  28.598  54.424  1.00  0.00     0.204 A 
HETATM    6  S   UNL     1       3.643  29.545  54.254  1.00  0.00    -0.038 SA
ENDROOT
BRANCH   1   7
HETATM    7  C   UNL     1       5.293  28.852  56.968  1.00  0.00     0.388 C 
BRANCH   7   8
HETATM    8  N   UNL     1       5.706  30.264  57.281  1.00  0.00    -0.053 N 
HETATM    9  C   UNL     1       4.476  31.096  57.558  1.00  0.00     0.237 C 
HETATM   10  C   UNL     1       4.859  32.540  57.853  1.00  0.00     0.042 C 
HETATM   11  C   UNL     1       5.839  32.636  59.022  1.00  0.00     0.081 C 
HETATM   12  C   UNL     1       7.068  31.768  58.740  1.00  0.00     0.042 C 
HETATM   13  C   UNL     1       6.735  30.324  58.381  1.00  0.00     0.237 C 
HETATM   14  H   UNL     1       6.142  30.626  56.421  1.00  0.00     0.281 HD
BRANCH  11  15
HETATM   15  C   UNL     1       5.138  32.215  60.309  1.00  0.00     0.221 C 
HETATM   16  N   UNL     1       5.970  32.056  61.387  1.00  0.00    -0.361 N 
HETATM   17  H   UNL     1       6.970  31.970  61.243  1.00  0.00     0.162 HD
HETATM   18  O   UNL     1       3.914  32.147  60.376  1.00  0.00    -0.273 OA
BRANCH  16  19
HETATM   19  C   UNL     1       5.462  31.653  62.687  1.00  0.00     0.118 C 
HETATM   20  C   UNL     1       5.628  32.749  63.724  1.00  0.00     0.026 C 
ENDBRANCH  16  19
ENDBRANCH  11  15
ENDBRANCH   7   8
ENDBRANCH   1   7
BRANCH   3  21
HETATM   21  C   UNL     1       7.818  26.419  53.536  1.00  0.00     0.315 C 
BRANCH  21  22
HETATM   22  N   UNL     1       7.490  24.940  53.773  1.00  0.00    -0.064 N 
HETATM   23  H   UNL     1       6.462  24.869  53.712  1.00  0.00     0.280 HD
HETATM   24  C   UNL     1       8.062  24.031  52.707  1.00  0.00     0.235 C 
HETATM   25  C   UNL     1       7.547  22.616  52.931  1.00  0.00     0.028 C 
HETATM   26  C   UNL     1       7.889  22.108  54.327  1.00  0.00     0.003 C 
HETATM   27  C   UNL     1       7.404  23.074  55.402  1.00  0.00     0.028 C 
HETATM   28  C   UNL     1       7.901  24.491  55.160  1.00  0.00     0.235 C 
ENDBRANCH  21  22
ENDBRANCH   3  21
BRANCH   4  29
HETATM   29  C   UNL     1       5.492  27.786  52.091  1.00  0.00     0.043 A 
HETATM   30  C   UNL     1       5.096  26.567  51.528  1.00  0.00     0.030 A 
HETATM   31  C   UNL     1       4.865  26.460  50.154  1.00  0.00     0.002 A 
HETATM   32  C   UNL     1       5.022  27.570  49.330  1.00  0.00     0.000 A 
HETATM   33  C   UNL     1       5.405  28.790  49.876  1.00  0.00     0.002 A 
HETATM   34  C   UNL     1       5.640  28.900  51.250  1.00  0.00     0.030 A 
ENDBRANCH   4  29
TORSDOF 7
ENDMDL
MODEL 9
REMARK VINA RESULT:      -7.6      3.461      8.706
REMARK  7 active torsions:
REMARK  status: ('A' for Active; 'I' for Inactive)
REMARK    1  A    between atoms: C_2  and  N_3 
REMARK       I    between atoms: N_3  and  C_4 
REMARK    2  A    between atoms: C_4  and  C_5 
REMARK    3  A    between atoms: N_8  and  C_10 
REMARK    4  A    between atoms: C_10  and  N_11 
REMARK    5  A    between atoms: C_13  and  C_14 
REMARK    6  A    between atoms: C_14  and  N_15 
REMARK    7  A    between atoms: N_22  and  C_23 
ROOT
HETATM    1  N   UNL     1       5.138  27.764  56.261  1.00  0.00    -0.216 N 
HETATM    2  N   UNL     1       4.502  28.071  55.074  1.00  0.00    -0.153 NA
HETATM    3  C   UNL     1       5.038  27.266  54.193  1.00  0.00     0.160 A 
HETATM    4  N   UNL     1       5.973  26.421  54.695  1.00  0.00    -0.272 N 
HETATM    5  C   UNL     1       6.080  26.739  56.046  1.00  0.00     0.204 A 
HETATM    6  S   UNL     1       6.986  26.042  57.258  1.00  0.00    -0.038 SA
ENDROOT
BRANCH   1   7
HETATM    7  C   UNL     1       4.943  28.563  57.461  1.00  0.00     0.388 C 
BRANCH   7   8
HETATM    8  N   UNL     1       5.775  29.815  57.442  1.00  0.00    -0.053 N 
HETATM    9  C   UNL     1       4.945  30.976  57.938  1.00  0.00     0.237 C 
HETATM   10  C   UNL     1       5.753  32.267  57.908  1.00  0.00     0.042 C 
HETATM   11  C   UNL     1       7.039  32.147  58.724  1.00  0.00     0.081 C 
HETATM   12  C   UNL     1       7.857  30.952  58.228  1.00  0.00     0.042 C 
HETATM   13  C   UNL     1       7.076  29.643  58.185  1.00  0.00     0.237 C 
HETATM   14  H   UNL     1       5.998  29.990  56.452  1.00  0.00     0.281 HD
BRANCH  11  15
HETATM   15  C   UNL     1       6.693  32.014  60.203  1.00  0.00     0.221 C 
HETATM   16  N   UNL     1       7.655  31.401  60.963  1.00  0.00    -0.361 N 
HETATM   17  H   UNL     1       8.385  30.861  60.511  1.00  0.00     0.162 HD
HETATM   18  O   UNL     1       5.681  32.531  60.669  1.00  0.00    -0.273 OA
BRANCH  16  19
HETATM   19  C   UNL     1       7.479  31.191  62.390  1.00  0.00     0.118 C 
HETATM   20  C   UNL     1       8.073  32.325  63.205  1.00  0.00     0.026 C 
ENDBRANCH  16  19
ENDBRANCH  11  15
ENDBRANCH   7   8
ENDBRANCH   1   7
BRANCH   3  21
HETATM   21  C   UNL     1       4.668  27.348  52.714  1.00  0.00     0.315 C 
BRANCH  21  22
HETATM   22  N   UNL     1       4.550  28.790  52.209  1.00  0.00    -0.064 N 
HETATM   23  H   UNL     1       4.917  29.383  52.969  1.00  0.00     0.280 HD
HETATM   24  C   UNL     1       5.402  29.058  50.987  1.00  0.00     0.235 C 
HETATM   25  C   UNL     1       5.353  30.545  50.662  1.00  0.00     0.028 C 
HETATM   26  C   UNL     1       3.922  31.026  50.449  1.00  0.00     0.003 C 
HETATM   27  C   UNL     1       3.035  30.666  51.636  1.00  0.00     0.028 C 
HETATM   28  C   UNL     1       3.107  29.184  51.972  1.00  0.00     0.235 C 
ENDBRANCH  21  22
ENDBRANCH   3  21
BRANCH   4  29
HETATM   29  C   UNL     1       6.667  25.412  53.988  1.00  0.00     0.043 A 
HETATM   30  C   UNL     1       6.553  24.066  54.356  1.00  0.00     0.030 A 
HETATM   31  C   UNL     1       7.256  23.077  53.664  1.00  0.00     0.002 A 
HETATM   32  C   UNL     1       8.077  23.421  52.594  1.00  0.00     0.000 A 
HETATM   33  C   UNL     1       8.192  24.753  52.209  1.00  0.00     0.002 A 
HETATM   34  C   UNL     1       7.492  25.745  52.902  1.00  0.00     0.030 A 
ENDBRANCH   4  29
TORSDOF 7
ENDMDL
MODEL 10
REMARK VINA RESULT:      -7.5      3.401      7.711
REMARK  7 active torsions:
REMARK  status: ('A' for Active; 'I' for Inactive)
REMARK    1  A    between atoms: C_2  and  N_3 
REMARK       I    between atoms: N_3  and  C_4 
REMARK    2  A    between atoms: C_4  and  C_5 
REMARK    3  A    between atoms: N_8  and  C_10 
REMARK    4  A    between atoms: C_10  and  N_11 
REMARK    5  A    between atoms: C_13  and  C_14 
REMARK    6  A    between atoms: C_14  and  N_15 
REMARK    7  A    between atoms: N_22  and  C_23 
ROOT
HETATM    1  N   UNL     1       5.074  27.389  55.182  1.00  0.00    -0.216 N 
HETATM    2  N   UNL     1       5.531  27.748  53.929  1.00  0.00    -0.153 NA
HETATM    3  C   UNL     1       6.317  26.765  53.571  1.00  0.00     0.160 A 
HETATM    4  N   UNL     1       6.410  25.757  54.474  1.00  0.00    -0.272 N 
HETATM    5  C   UNL     1       5.624  26.148  55.555  1.00  0.00     0.204 A 
HETATM    6  S   UNL     1       5.240  25.349  56.965  1.00  0.00    -0.038 SA
ENDROOT
BRANCH   1   7
HETATM    7  C   UNL     1       4.299  28.308  56.003  1.00  0.00     0.388 C 
BRANCH   7   8
HETATM    8  N   UNL     1       5.040  29.591  56.260  1.00  0.00    -0.053 N 
HETATM    9  C   UNL     1       4.125  30.761  55.985  1.00  0.00     0.237 C 
HETATM   10  C   UNL     1       4.854  32.079  56.212  1.00  0.00     0.042 C 
HETATM   11  C   UNL     1       5.424  32.172  57.627  1.00  0.00     0.081 C 
HETATM   12  C   UNL     1       6.328  30.967  57.901  1.00  0.00     0.042 C 
HETATM   13  C   UNL     1       5.662  29.622  57.633  1.00  0.00     0.237 C 
HETATM   14  H   UNL     1       5.801  29.620  55.567  1.00  0.00     0.281 HD
BRANCH  11  15
HETATM   15  C   UNL     1       4.281  32.255  58.632  1.00  0.00     0.221 C 
HETATM   16  N   UNL     1       4.640  31.999  59.930  1.00  0.00    -0.361 N 
HETATM   17  H   UNL     1       5.522  31.540  60.127  1.00  0.00     0.162 HD
HETATM   18  O   UNL     1       3.164  32.639  58.296  1.00  0.00    -0.273 OA
BRANCH  16  19
HETATM   19  C   UNL     1       3.669  32.032  61.009  1.00  0.00     0.118 C 
HETATM   20  C   UNL     1       3.775  33.306  61.827  1.00  0.00     0.026 C 
ENDBRANCH  16  19
ENDBRANCH  11  15
ENDBRANCH   7   8
ENDBRANCH   1   7
BRANCH   3  21
HETATM   21  C   UNL     1       7.106  26.814  52.265  1.00  0.00     0.315 C 
BRANCH  21  22
HETATM   22  N   UNL     1       6.208  26.972  51.032  1.00  0.00    -0.064 N 
HETATM   23  H   UNL     1       6.822  26.815  50.218  1.00  0.00     0.280 HD
HETATM   24  C   UNL     1       5.110  25.933  50.967  1.00  0.00     0.235 C 
HETATM   25  C   UNL     1       4.381  26.061  49.637  1.00  0.00     0.028 C 
HETATM   26  C   UNL     1       3.821  27.465  49.436  1.00  0.00     0.003 C 
HETATM   27  C   UNL     1       4.906  28.522  49.603  1.00  0.00     0.028 C 
HETATM   28  C   UNL     1       5.647  28.374  50.924  1.00  0.00     0.235 C 
ENDBRANCH  21  22
ENDBRANCH   3  21
BRANCH   4  29
HETATM   29  C   UNL     1       7.135  24.552  54.325  1.00  0.00     0.043 A 
HETATM   30  C   UNL     1       8.153  24.209  55.223  1.00  0.00     0.030 A 
HETATM   31  C   UNL     1       8.877  23.025  55.058  1.00  0.00     0.002 A 
HETATM   32  C   UNL     1       8.588  22.170  53.999  1.00  0.00     0.000 A 
HETATM   33  C   UNL     1       7.574  22.492  53.105  1.00  0.00     0.002 A 
HETATM   34  C   UNL     1       6.849  23.677  53.265  1.00  0.00     0.030 A 
ENDBRANCH   4  29
TORSDOF 7
ENDMDL
