MODEL 1
REMARK VINA RESULT:     -11.6      0.000      0.000
REMARK  5 active torsions:
REMARK  status: ('A' for Active; 'I' for Inactive)
REMARK    1  A    between atoms: C_6  and  N_7 
REMARK       I    between atoms: N_7  and  C_8 
REMARK    2  A    between atoms: C_8  and  C_9 
REMARK    3  A    between atoms: C_10  and  N_11 
REMARK    4  A    between atoms: N_12  and  N_13 
REMARK    5  A    between atoms: C_14  and  C_15 
ROOT
HETATM    1  C   UNL     1       6.330  27.977  56.015  1.00  0.00     0.099 C 
HETATM    2  C   UNL     1       7.453  28.832  55.799  1.00  0.00     0.101 C 
HETATM    3  N   UNL     1       7.183  29.784  56.719  1.00  0.00    -0.107 NA
HETATM    4  C   UNL     1       5.898  29.915  56.239  1.00  0.00     0.162 C 
HETATM    5  C   UNL     1       5.212  28.762  56.709  1.00  0.00     0.118 C 
HETATM    6  N   UNL     1       4.201  29.509  57.341  1.00  0.00    -0.242 NA
HETATM    7  C   UNL     1       3.707  30.668  56.620  1.00  0.00     0.086 C 
HETATM    8  C   UNL     1       4.080  30.678  55.309  1.00  0.00     0.087 C 
HETATM    9  N   UNL     1       5.383  30.491  55.107  1.00  0.00    -0.230 NA
HETATM   10  C   UNL     1       3.170  31.969  56.926  1.00  0.00     0.034 C 
HETATM   11  C   UNL     1       2.728  32.866  55.912  1.00  0.00     0.002 C 
HETATM   12  C   UNL     1       2.637  32.405  54.608  1.00  0.00     0.002 C 
HETATM   13  C   UNL     1       3.286  31.226  54.319  1.00  0.00     0.034 C 
ENDROOT
BRANCH   1  14
HETATM   14  C   UNL     1       6.456  26.691  55.267  1.00  0.00     0.261 C 
HETATM   15  N   UNL     1       7.611  26.223  54.630  1.00  0.00    -0.323 N 
HETATM   16  H   UNL     1       8.243  26.892  54.216  1.00  0.00     0.169 HD
HETATM   17  O   UNL     1       5.438  25.985  55.228  1.00  0.00    -0.267 OA
BRANCH  15  18
HETATM   18  C   UNL     1       7.728  24.819  54.275  1.00  0.00     0.035 C 
HETATM   19  C   UNL     1       8.242  23.892  55.196  1.00  0.00     0.037 C 
HETATM   20  C   UNL     1       8.223  22.506  54.994  1.00  0.00    -0.054 C 
HETATM   21  C   UNL     1       8.071  22.033  53.696  1.00  0.00    -0.056 C 
HETATM   22  C   UNL     1       8.106  21.635  56.219  1.00  0.00     0.049 C 
HETATM   23  C   UNL     1       8.560  20.658  53.319  1.00  0.00     0.049 C 
HETATM   24  C   UNL     1       7.596  22.937  52.726  1.00  0.00     0.009 C 
HETATM   25  C   UNL     1       7.352  24.304  53.032  1.00  0.00     0.030 C 
ENDBRANCH  15  18
ENDBRANCH   1  14
BRANCH   2  26
HETATM   26  N   UNL     1       8.524  28.929  54.967  1.00  0.00    -0.291 NA
HETATM   27  H   UNL     1       8.267  29.052  53.983  1.00  0.00     0.125 HD
HETATM   28  H   UNL     1       9.171  29.680  55.226  1.00  0.00     0.125 HD
ENDBRANCH   2  26
BRANCH   3  29
HETATM   29  N   UNL     1       7.628  29.696  58.055  1.00  0.00    -0.198 NA
HETATM   30  C   UNL     1       7.445  30.807  58.712  1.00  0.00     0.147 C 
BRANCH  30  31
HETATM   31  C   UNL     1       8.005  31.061  60.031  1.00  0.00     0.010 A 
HETATM   32  C   UNL     1       7.479  31.962  61.032  1.00  0.00     0.004 A 
HETATM   33  C   UNL     1       8.313  31.885  62.149  1.00  0.00     0.043 A 
HETATM   34  C   UNL     1       6.368  32.837  61.102  1.00  0.00     0.014 A 
HETATM   35  C   UNL     1       8.074  32.596  63.335  1.00  0.00     0.030 A 
HETATM   36  N   UNL     1       9.336  31.024  61.826  1.00  0.00    -0.364 N 
HETATM   37  C   UNL     1       6.956  33.434  63.381  1.00  0.00     0.002 A 
HETATM   38  C   UNL     1       6.120  33.564  62.276  1.00  0.00     0.001 A 
HETATM   39  H   UNL     1      10.104  30.796  62.442  1.00  0.00     0.165 HD
HETATM   40  C   UNL     1       9.171  30.537  60.555  1.00  0.00     0.102 A 
ENDBRANCH  30  31
ENDBRANCH   3  29
TORSDOF 5
ENDMDL
MODEL 2
REMARK VINA RESULT:     -10.8      4.134      7.687
REMARK  5 active torsions:
REMARK  status: ('A' for Active; 'I' for Inactive)
REMARK    1  A    between atoms: C_6  and  N_7 
REMARK       I    between atoms: N_7  and  C_8 
REMARK    2  A    between atoms: C_8  and  C_9 
REMARK    3  A    between atoms: C_10  and  N_11 
REMARK    4  A    between atoms: N_12  and  N_13 
REMARK    5  A    between atoms: C_14  and  C_15 
ROOT
HETATM    1  C   UNL     1       5.872  26.580  52.045  1.00  0.00     0.099 C 
HETATM    2  C   UNL     1       4.938  26.623  53.125  1.00  0.00     0.101 C 
HETATM    3  N   UNL     1       5.803  26.582  54.162  1.00  0.00    -0.107 NA
HETATM    4  C   UNL     1       6.438  25.486  53.618  1.00  0.00     0.162 C 
HETATM    5  C   UNL     1       7.203  26.005  52.538  1.00  0.00     0.118 C 
HETATM    6  N   UNL     1       8.412  25.470  53.018  1.00  0.00    -0.242 NA
HETATM    7  C   UNL     1       8.352  24.127  53.568  1.00  0.00     0.086 C 
HETATM    8  C   UNL     1       7.196  23.475  53.254  1.00  0.00     0.087 C 
HETATM    9  N   UNL     1       6.088  24.165  53.516  1.00  0.00    -0.230 NA
HETATM   10  C   UNL     1       9.020  23.357  54.586  1.00  0.00     0.034 C 
HETATM   11  C   UNL     1       8.711  21.988  54.828  1.00  0.00     0.002 C 
HETATM   12  C   UNL     1       7.880  21.326  53.938  1.00  0.00     0.002 C 
HETATM   13  C   UNL     1       7.146  22.106  53.073  1.00  0.00     0.034 C 
ENDROOT
BRANCH   1  14
HETATM   14  C   UNL     1       5.212  26.825  50.728  1.00  0.00     0.261 C 
HETATM   15  N   UNL     1       4.338  25.951  50.072  1.00  0.00    -0.323 N 
HETATM   16  H   UNL     1       4.479  24.956  50.174  1.00  0.00     0.169 HD
HETATM   17  O   UNL     1       5.466  27.913  50.190  1.00  0.00    -0.267 OA
BRANCH  15  18
HETATM   18  C   UNL     1       3.475  26.442  49.013  1.00  0.00     0.035 C 
HETATM   19  C   UNL     1       2.677  27.580  49.216  1.00  0.00     0.037 C 
HETATM   20  C   UNL     1       1.957  28.214  48.195  1.00  0.00    -0.054 C 
HETATM   21  C   UNL     1       1.682  27.494  47.038  1.00  0.00    -0.056 C 
HETATM   22  C   UNL     1       1.761  29.704  48.316  1.00  0.00     0.049 C 
HETATM   23  C   UNL     1       0.515  27.867  46.162  1.00  0.00     0.049 C 
HETATM   24  C   UNL     1       2.430  26.321  46.810  1.00  0.00     0.009 C 
HETATM   25  C   UNL     1       3.376  25.841  47.757  1.00  0.00     0.030 C 
ENDBRANCH  15  18
ENDBRANCH   1  14
BRANCH   2  26
HETATM   26  N   UNL     1       3.593  26.627  53.319  1.00  0.00    -0.291 NA
HETATM   27  H   UNL     1       3.248  25.792  53.803  1.00  0.00     0.125 HD
HETATM   28  H   UNL     1       3.259  27.453  53.826  1.00  0.00     0.125 HD
ENDBRANCH   2  26
BRANCH   3  29
HETATM   29  N   UNL     1       6.367  27.745  54.727  1.00  0.00    -0.198 NA
HETATM   30  C   UNL     1       6.697  27.579  55.977  1.00  0.00     0.147 C 
BRANCH  30  31
HETATM   31  C   UNL     1       7.093  28.671  56.855  1.00  0.00     0.010 A 
HETATM   32  C   UNL     1       8.428  29.200  57.023  1.00  0.00     0.004 A 
HETATM   33  C   UNL     1       8.353  30.248  57.943  1.00  0.00     0.043 A 
HETATM   34  C   UNL     1       9.698  28.894  56.478  1.00  0.00     0.014 A 
HETATM   35  C   UNL     1       9.462  31.025  58.311  1.00  0.00     0.030 A 
HETATM   36  N   UNL     1       7.046  30.317  58.365  1.00  0.00    -0.364 N 
HETATM   37  C   UNL     1      10.699  30.713  57.738  1.00  0.00     0.002 A 
HETATM   38  C   UNL     1      10.820  29.654  56.843  1.00  0.00     0.001 A 
HETATM   39  H   UNL     1       6.705  30.973  59.055  1.00  0.00     0.165 HD
HETATM   40  C   UNL     1       6.286  29.367  57.733  1.00  0.00     0.102 A 
ENDBRANCH  30  31
ENDBRANCH   3  29
TORSDOF 5
ENDMDL
MODEL 3
REMARK VINA RESULT:     -10.7      1.468      2.305
REMARK  5 active torsions:
REMARK  status: ('A' for Active; 'I' for Inactive)
REMARK    1  A    between atoms: C_6  and  N_7 
REMARK       I    between atoms: N_7  and  C_8 
REMARK    2  A    between atoms: C_8  and  C_9 
REMARK    3  A    between atoms: C_10  and  N_11 
REMARK    4  A    between atoms: N_12  and  N_13 
REMARK    5  A    between atoms: C_14  and  C_15 
ROOT
HETATM    1  C   UNL     1       5.437  28.562  56.650  1.00  0.00     0.099 C 
HETATM    2  C   UNL     1       6.604  29.382  56.591  1.00  0.00     0.101 C 
HETATM    3  N   UNL     1       6.080  30.541  57.046  1.00  0.00    -0.107 NA
HETATM    4  C   UNL     1       5.043  30.453  56.140  1.00  0.00     0.162 C 
HETATM    5  C   UNL     1       4.186  29.446  56.663  1.00  0.00     0.118 C 
HETATM    6  N   UNL     1       3.056  30.283  56.667  1.00  0.00    -0.242 NA
HETATM    7  C   UNL     1       2.891  31.154  55.517  1.00  0.00     0.086 C 
HETATM    8  C   UNL     1       3.690  30.807  54.468  1.00  0.00     0.087 C 
HETATM    9  N   UNL     1       4.974  30.647  54.786  1.00  0.00    -0.230 NA
HETATM   10  C   UNL     1       2.341  32.454  55.230  1.00  0.00     0.034 C 
HETATM   11  C   UNL     1       2.315  32.994  53.913  1.00  0.00     0.002 C 
HETATM   12  C   UNL     1       2.655  32.172  52.850  1.00  0.00     0.002 C 
HETATM   13  C   UNL     1       3.309  31.000  53.154  1.00  0.00     0.034 C 
ENDROOT
BRANCH   1  14
HETATM   14  C   UNL     1       5.753  27.124  56.398  1.00  0.00     0.261 C 
HETATM   15  N   UNL     1       6.779  26.642  55.578  1.00  0.00    -0.323 N 
HETATM   16  H   UNL     1       7.034  27.170  54.756  1.00  0.00     0.169 HD
HETATM   17  O   UNL     1       5.037  26.301  56.986  1.00  0.00    -0.267 OA
BRANCH  15  18
HETATM   18  C   UNL     1       7.230  25.267  55.708  1.00  0.00     0.035 C 
HETATM   19  C   UNL     1       6.943  24.326  54.705  1.00  0.00     0.037 C 
HETATM   20  C   UNL     1       7.488  23.036  54.674  1.00  0.00    -0.054 C 
HETATM   21  C   UNL     1       8.002  22.510  55.853  1.00  0.00    -0.056 C 
HETATM   22  C   UNL     1       7.714  22.419  53.317  1.00  0.00     0.049 C 
HETATM   23  C   UNL     1       8.102  21.019  56.048  1.00  0.00     0.049 C 
HETATM   24  C   UNL     1       8.268  23.410  56.904  1.00  0.00     0.009 C 
HETATM   25  C   UNL     1       7.956  24.794  56.803  1.00  0.00     0.030 C 
ENDBRANCH  15  18
ENDBRANCH   1  14
BRANCH   2  26
HETATM   26  N   UNL     1       7.899  29.298  56.183  1.00  0.00    -0.291 NA
HETATM   27  H   UNL     1       8.090  28.477  55.600  1.00  0.00     0.125 HD
HETATM   28  H   UNL     1       8.220  30.131  55.680  1.00  0.00     0.125 HD
ENDBRANCH   2  26
BRANCH   3  29
HETATM   29  N   UNL     1       6.036  30.868  58.417  1.00  0.00    -0.198 NA
HETATM   30  C   UNL     1       5.622  32.087  58.623  1.00  0.00     0.147 C 
BRANCH  30  31
HETATM   31  C   UNL     1       5.687  32.750  59.917  1.00  0.00     0.010 A 
HETATM   32  C   UNL     1       6.618  32.463  60.986  1.00  0.00     0.004 A 
HETATM   33  C   UNL     1       6.340  33.343  62.034  1.00  0.00     0.043 A 
HETATM   34  C   UNL     1       7.677  31.541  61.166  1.00  0.00     0.014 A 
HETATM   35  C   UNL     1       7.085  33.378  63.222  1.00  0.00     0.030 A 
HETATM   36  N   UNL     1       5.252  34.092  61.650  1.00  0.00    -0.364 N 
HETATM   37  C   UNL     1       8.140  32.471  63.361  1.00  0.00     0.002 A 
HETATM   38  C   UNL     1       8.426  31.555  62.353  1.00  0.00     0.001 A 
HETATM   39  H   UNL     1       4.815  34.797  62.227  1.00  0.00     0.165 HD
HETATM   40  C   UNL     1       4.843  33.734  60.391  1.00  0.00     0.102 A 
ENDBRANCH  30  31
ENDBRANCH   3  29
TORSDOF 5
ENDMDL
MODEL 4
REMARK VINA RESULT:     -10.6      2.357      3.523
REMARK  5 active torsions:
REMARK  status: ('A' for Active; 'I' for Inactive)
REMARK    1  A    between atoms: C_6  and  N_7 
REMARK       I    between atoms: N_7  and  C_8 
REMARK    2  A    between atoms: C_8  and  C_9 
REMARK    3  A    between atoms: C_10  and  N_11 
REMARK    4  A    between atoms: N_12  and  N_13 
REMARK    5  A    between atoms: C_14  and  C_15 
ROOT
HETATM    1  C   UNL     1       5.455  27.176  54.379  1.00  0.00     0.099 C 
HETATM    2  C   UNL     1       6.513  28.112  54.590  1.00  0.00     0.101 C 
HETATM    3  N   UNL     1       5.795  29.256  54.591  1.00  0.00    -0.107 NA
HETATM    4  C   UNL     1       5.184  28.900  53.407  1.00  0.00     0.162 C 
HETATM    5  C   UNL     1       4.248  27.893  53.767  1.00  0.00     0.118 C 
HETATM    6  N   UNL     1       3.157  28.577  53.200  1.00  0.00    -0.242 NA
HETATM    7  C   UNL     1       3.394  29.228  51.924  1.00  0.00     0.086 C 
HETATM    8  C   UNL     1       4.548  28.818  51.324  1.00  0.00     0.087 C 
HETATM    9  N   UNL     1       5.622  28.867  52.109  1.00  0.00    -0.230 NA
HETATM   10  C   UNL     1       2.925  30.390  51.213  1.00  0.00     0.034 C 
HETATM   11  C   UNL     1       3.371  30.706  49.898  1.00  0.00     0.002 C 
HETATM   12  C   UNL     1       4.131  29.773  49.210  1.00  0.00     0.002 C 
HETATM   13  C   UNL     1       4.682  28.752  49.950  1.00  0.00     0.034 C 
ENDROOT
BRANCH   1  14
HETATM   14  C   UNL     1       5.919  25.766  54.540  1.00  0.00     0.261 C 
HETATM   15  N   UNL     1       6.941  25.150  53.809  1.00  0.00    -0.323 N 
HETATM   16  H   UNL     1       7.081  25.419  52.846  1.00  0.00     0.169 HD
HETATM   17  O   UNL     1       5.340  25.102  55.412  1.00  0.00    -0.267 OA
BRANCH  15  18
HETATM   18  C   UNL     1       7.554  23.929  54.302  1.00  0.00     0.035 C 
HETATM   19  C   UNL     1       7.362  22.713  53.626  1.00  0.00     0.037 C 
HETATM   20  C   UNL     1       8.056  21.536  53.935  1.00  0.00    -0.054 C 
HETATM   21  C   UNL     1       8.652  21.433  55.187  1.00  0.00    -0.056 C 
HETATM   22  C   UNL     1       8.328  20.580  52.801  1.00  0.00     0.049 C 
HETATM   23  C   UNL     1       8.933  20.082  55.793  1.00  0.00     0.049 C 
HETATM   24  C   UNL     1       8.830  22.622  55.921  1.00  0.00     0.009 C 
HETATM   25  C   UNL     1       8.353  23.874  55.446  1.00  0.00     0.030 C 
ENDBRANCH  15  18
ENDBRANCH   1  14
BRANCH   2  26
HETATM   26  N   UNL     1       7.868  28.121  54.703  1.00  0.00    -0.291 NA
HETATM   27  H   UNL     1       8.220  28.854  55.326  1.00  0.00     0.125 HD
HETATM   28  H   UNL     1       8.255  27.224  55.011  1.00  0.00     0.125 HD
ENDBRANCH   2  26
BRANCH   3  29
HETATM   29  N   UNL     1       5.218  29.789  55.763  1.00  0.00    -0.198 NA
HETATM   30  C   UNL     1       6.013  30.622  56.372  1.00  0.00     0.147 C 
BRANCH  30  31
HETATM   31  C   UNL     1       5.760  31.145  57.707  1.00  0.00     0.010 A 
HETATM   32  C   UNL     1       6.752  31.504  58.694  1.00  0.00     0.004 A 
HETATM   33  C   UNL     1       6.074  31.977  59.820  1.00  0.00     0.043 A 
HETATM   34  C   UNL     1       8.167  31.479  58.743  1.00  0.00     0.014 A 
HETATM   35  C   UNL     1       6.730  32.460  60.963  1.00  0.00     0.030 A 
HETATM   36  N   UNL     1       4.729  31.855  59.558  1.00  0.00    -0.364 N 
HETATM   37  C   UNL     1       8.128  32.444  60.971  1.00  0.00     0.002 A 
HETATM   38  C   UNL     1       8.839  31.949  59.882  1.00  0.00     0.001 A 
HETATM   39  H   UNL     1       3.998  32.101  60.211  1.00  0.00     0.165 HD
HETATM   40  C   UNL     1       4.529  31.343  58.302  1.00  0.00     0.102 A 
ENDBRANCH  30  31
ENDBRANCH   3  29
TORSDOF 5
ENDMDL
MODEL 5
REMARK VINA RESULT:     -10.6      3.404      9.992
REMARK  5 active torsions:
REMARK  status: ('A' for Active; 'I' for Inactive)
REMARK    1  A    between atoms: C_6  and  N_7 
REMARK       I    between atoms: N_7  and  C_8 
REMARK    2  A    between atoms: C_8  and  C_9 
REMARK    3  A    between atoms: C_10  and  N_11 
REMARK    4  A    between atoms: N_12  and  N_13 
REMARK    5  A    between atoms: C_14  and  C_15 
ROOT
HETATM    1  C   UNL     1       6.662  28.075  55.481  1.00  0.00     0.099 C 
HETATM    2  C   UNL     1       7.657  28.565  54.581  1.00  0.00     0.101 C 
HETATM    3  N   UNL     1       7.232  27.974  53.443  1.00  0.00    -0.107 NA
HETATM    4  C   UNL     1       7.172  26.750  54.076  1.00  0.00     0.162 C 
HETATM    5  C   UNL     1       6.012  26.818  54.895  1.00  0.00     0.118 C 
HETATM    6  N   UNL     1       5.437  25.664  54.334  1.00  0.00    -0.242 NA
HETATM    7  C   UNL     1       6.337  24.556  54.069  1.00  0.00     0.086 C 
HETATM    8  C   UNL     1       7.544  24.692  54.689  1.00  0.00     0.087 C 
HETATM    9  N   UNL     1       8.136  25.867  54.485  1.00  0.00    -0.230 NA
HETATM   10  C   UNL     1       6.457  23.477  53.123  1.00  0.00     0.034 C 
HETATM   11  C   UNL     1       7.497  22.508  53.202  1.00  0.00     0.002 C 
HETATM   12  C   UNL     1       8.307  22.491  54.327  1.00  0.00     0.002 C 
HETATM   13  C   UNL     1       8.273  23.605  55.135  1.00  0.00     0.034 C 
ENDROOT
BRANCH   1  14
HETATM   14  C   UNL     1       6.744  28.739  56.817  1.00  0.00     0.261 C 
HETATM   15  N   UNL     1       7.769  29.587  57.250  1.00  0.00    -0.323 N 
HETATM   16  H   UNL     1       8.709  29.420  56.922  1.00  0.00     0.169 HD
HETATM   17  O   UNL     1       5.804  28.512  57.592  1.00  0.00    -0.267 OA
BRANCH  15  18
HETATM   18  C   UNL     1       7.557  30.461  58.391  1.00  0.00     0.035 C 
HETATM   19  C   UNL     1       8.315  30.298  59.562  1.00  0.00     0.037 C 
HETATM   20  C   UNL     1       8.293  31.202  60.631  1.00  0.00    -0.054 C 
HETATM   21  C   UNL     1       7.212  32.069  60.738  1.00  0.00    -0.056 C 
HETATM   22  C   UNL     1       9.562  31.348  61.433  1.00  0.00     0.049 C 
HETATM   23  C   UNL     1       6.837  32.665  62.070  1.00  0.00     0.049 C 
HETATM   24  C   UNL     1       6.397  32.235  59.601  1.00  0.00     0.009 C 
HETATM   25  C   UNL     1       6.616  31.492  58.408  1.00  0.00     0.030 C 
ENDBRANCH  15  18
ENDBRANCH   1  14
BRANCH   2  26
HETATM   26  N   UNL     1       8.792  29.314  54.614  1.00  0.00    -0.291 NA
HETATM   27  H   UNL     1       9.387  29.189  53.790  1.00  0.00     0.125 HD
HETATM   28  H   UNL     1       8.612  30.317  54.732  1.00  0.00     0.125 HD
ENDBRANCH   2  26
BRANCH   3  29
HETATM   29  N   UNL     1       6.292  28.575  52.581  1.00  0.00    -0.198 NA
HETATM   30  C   UNL     1       6.058  27.852  51.522  1.00  0.00     0.147 C 
BRANCH  30  31
HETATM   31  C   UNL     1       5.303  28.331  50.373  1.00  0.00     0.010 A 
HETATM   32  C   UNL     1       4.575  27.522  49.422  1.00  0.00     0.004 A 
HETATM   33  C   UNL     1       3.985  28.386  48.498  1.00  0.00     0.043 A 
HETATM   34  C   UNL     1       4.353  26.133  49.257  1.00  0.00     0.014 A 
HETATM   35  C   UNL     1       3.159  27.942  47.453  1.00  0.00     0.030 A 
HETATM   36  N   UNL     1       4.383  29.660  48.830  1.00  0.00    -0.364 N 
HETATM   37  C   UNL     1       2.941  26.567  47.330  1.00  0.00     0.002 A 
HETATM   38  C   UNL     1       3.539  25.671  48.211  1.00  0.00     0.001 A 
HETATM   39  H   UNL     1       4.123  30.489  48.314  1.00  0.00     0.165 HD
HETATM   40  C   UNL     1       5.185  29.638  49.941  1.00  0.00     0.102 A 
ENDBRANCH  30  31
ENDBRANCH   3  29
TORSDOF 5
ENDMDL
MODEL 6
REMARK VINA RESULT:     -10.2      2.633      4.046
REMARK  5 active torsions:
REMARK  status: ('A' for Active; 'I' for Inactive)
REMARK    1  A    between atoms: C_6  and  N_7 
REMARK       I    between atoms: N_7  and  C_8 
REMARK    2  A    between atoms: C_8  and  C_9 
REMARK    3  A    between atoms: C_10  and  N_11 
REMARK    4  A    between atoms: N_12  and  N_13 
REMARK    5  A    between atoms: C_14  and  C_15 
ROOT
HETATM    1  C   UNL     1       5.413  31.008  57.816  1.00  0.00     0.099 C 
HETATM    2  C   UNL     1       6.337  31.857  58.499  1.00  0.00     0.101 C 
HETATM    3  N   UNL     1       5.470  32.765  58.998  1.00  0.00    -0.107 NA
HETATM    4  C   UNL     1       4.900  32.937  57.755  1.00  0.00     0.162 C 
HETATM    5  C   UNL     1       4.113  31.772  57.547  1.00  0.00     0.118 C 
HETATM    6  N   UNL     1       2.934  32.500  57.309  1.00  0.00    -0.242 NA
HETATM    7  C   UNL     1       3.066  33.701  56.504  1.00  0.00     0.086 C 
HETATM    8  C   UNL     1       4.258  33.771  55.845  1.00  0.00     0.087 C 
HETATM    9  N   UNL     1       5.325  33.577  56.619  1.00  0.00    -0.230 NA
HETATM   10  C   UNL     1       2.437  34.992  56.397  1.00  0.00     0.034 C 
HETATM   11  C   UNL     1       2.820  35.945  55.410  1.00  0.00     0.002 C 
HETATM   12  C   UNL     1       3.693  35.551  54.407  1.00  0.00     0.002 C 
HETATM   13  C   UNL     1       4.386  34.379  54.611  1.00  0.00     0.034 C 
ENDROOT
BRANCH   1  14
HETATM   14  C   UNL     1       6.066  29.759  57.322  1.00  0.00     0.261 C 
HETATM   15  N   UNL     1       5.801  28.461  57.772  1.00  0.00    -0.323 N 
HETATM   16  H   UNL     1       5.552  28.324  58.741  1.00  0.00     0.169 HD
HETATM   17  O   UNL     1       6.908  29.908  56.424  1.00  0.00    -0.267 OA
BRANCH  15  18
HETATM   18  C   UNL     1       6.202  27.317  56.972  1.00  0.00     0.035 C 
HETATM   19  C   UNL     1       7.455  26.714  57.168  1.00  0.00     0.037 C 
HETATM   20  C   UNL     1       7.840  25.511  56.564  1.00  0.00    -0.054 C 
HETATM   21  C   UNL     1       7.150  25.093  55.431  1.00  0.00    -0.056 C 
HETATM   22  C   UNL     1       8.793  24.631  57.332  1.00  0.00     0.049 C 
HETATM   23  C   UNL     1       7.797  24.158  54.442  1.00  0.00     0.049 C 
HETATM   24  C   UNL     1       5.905  25.698  55.169  1.00  0.00     0.009 C 
HETATM   25  C   UNL     1       5.398  26.750  55.980  1.00  0.00     0.030 C 
ENDBRANCH  15  18
ENDBRANCH   1  14
BRANCH   2  26
HETATM   26  N   UNL     1       7.679  31.981  58.678  1.00  0.00    -0.291 NA
HETATM   27  H   UNL     1       8.082  31.245  59.267  1.00  0.00     0.125 HD
HETATM   28  H   UNL     1       8.203  32.011  57.797  1.00  0.00     0.125 HD
ENDBRANCH   2  26
BRANCH   3  29
HETATM   29  N   UNL     1       4.839  32.604  60.249  1.00  0.00    -0.198 NA
HETATM   30  C   UNL     1       4.866  33.695  60.962  1.00  0.00     0.147 C 
BRANCH  30  31
HETATM   31  C   UNL     1       4.484  33.748  62.366  1.00  0.00     0.010 A 
HETATM   32  C   UNL     1       5.378  33.751  63.502  1.00  0.00     0.004 A 
HETATM   33  C   UNL     1       4.593  33.828  64.655  1.00  0.00     0.043 A 
HETATM   34  C   UNL     1       6.783  33.700  63.667  1.00  0.00     0.014 A 
HETATM   35  C   UNL     1       5.136  33.900  65.947  1.00  0.00     0.030 A 
HETATM   36  N   UNL     1       3.280  33.811  64.247  1.00  0.00    -0.364 N 
HETATM   37  C   UNL     1       6.527  33.871  66.076  1.00  0.00     0.002 A 
HETATM   38  C   UNL     1       7.342  33.760  64.953  1.00  0.00     0.001 A 
HETATM   39  H   UNL     1       2.489  33.832  64.876  1.00  0.00     0.165 HD
HETATM   40  C   UNL     1       3.202  33.746  62.880  1.00  0.00     0.102 A 
ENDBRANCH  30  31
ENDBRANCH   3  29
TORSDOF 5
ENDMDL
MODEL 7
REMARK VINA RESULT:      -9.7      2.535      8.889
REMARK  5 active torsions:
REMARK  status: ('A' for Active; 'I' for Inactive)
REMARK    1  A    between atoms: C_6  and  N_7 
REMARK       I    between atoms: N_7  and  C_8 
REMARK    2  A    between atoms: C_8  and  C_9 
REMARK    3  A    between atoms: C_10  and  N_11 
REMARK    4  A    between atoms: N_12  and  N_13 
REMARK    5  A    between atoms: C_14  and  C_15 
ROOT
HETATM    1  C   UNL     1       4.964  31.774  57.393  1.00  0.00     0.099 C 
HETATM    2  C   UNL     1       4.117  30.676  57.736  1.00  0.00     0.101 C 
HETATM    3  N   UNL     1       3.921  30.159  56.503  1.00  0.00    -0.107 NA
HETATM    4  C   UNL     1       3.567  31.398  56.015  1.00  0.00     0.162 C 
HETATM    5  C   UNL     1       4.790  32.113  55.909  1.00  0.00     0.118 C 
HETATM    6  N   UNL     1       4.607  32.406  54.546  1.00  0.00    -0.242 NA
HETATM    7  C   UNL     1       3.263  32.776  54.139  1.00  0.00     0.086 C 
HETATM    8  C   UNL     1       2.454  33.083  55.193  1.00  0.00     0.087 C 
HETATM    9  N   UNL     1       2.441  32.167  56.160  1.00  0.00    -0.230 NA
HETATM   10  C   UNL     1       2.426  32.655  52.973  1.00  0.00     0.034 C 
HETATM   11  C   UNL     1       1.114  33.204  52.919  1.00  0.00     0.002 C 
HETATM   12  C   UNL     1       0.699  34.039  53.944  1.00  0.00     0.002 C 
HETATM   13  C   UNL     1       1.444  34.022  55.101  1.00  0.00     0.034 C 
ENDROOT
BRANCH   1  14
HETATM   14  C   UNL     1       5.535  32.436  58.603  1.00  0.00     0.261 C 
HETATM   15  N   UNL     1       4.814  32.852  59.728  1.00  0.00    -0.323 N 
HETATM   16  H   UNL     1       3.868  33.183  59.604  1.00  0.00     0.169 HD
HETATM   17  O   UNL     1       6.762  32.614  58.595  1.00  0.00    -0.267 OA
BRANCH  15  18
HETATM   18  C   UNL     1       5.505  33.124  60.976  1.00  0.00     0.035 C 
HETATM   19  C   UNL     1       6.281  32.129  61.592  1.00  0.00     0.037 C 
HETATM   20  C   UNL     1       7.112  32.364  62.694  1.00  0.00    -0.054 C 
HETATM   21  C   UNL     1       6.877  33.496  63.466  1.00  0.00    -0.056 C 
HETATM   22  C   UNL     1       8.357  31.521  62.808  1.00  0.00     0.049 C 
HETATM   23  C   UNL     1       7.327  33.551  64.903  1.00  0.00     0.049 C 
HETATM   24  C   UNL     1       6.069  34.506  62.907  1.00  0.00     0.009 C 
HETATM   25  C   UNL     1       5.450  34.353  61.636  1.00  0.00     0.030 C 
ENDBRANCH  15  18
ENDBRANCH   1  14
BRANCH   2  26
HETATM   26  N   UNL     1       3.506  30.155  58.833  1.00  0.00    -0.291 NA
HETATM   27  H   UNL     1       3.825  29.210  59.068  1.00  0.00     0.125 HD
HETATM   28  H   UNL     1       3.600  30.743  59.667  1.00  0.00     0.125 HD
ENDBRANCH   2  26
BRANCH   3  29
HETATM   29  N   UNL     1       4.782  29.195  55.939  1.00  0.00    -0.198 NA
HETATM   30  C   UNL     1       4.508  27.987  56.345  1.00  0.00     0.147 C 
BRANCH  30  31
HETATM   31  C   UNL     1       5.368  26.840  56.092  1.00  0.00     0.010 A 
HETATM   32  C   UNL     1       5.495  26.115  54.848  1.00  0.00     0.004 A 
HETATM   33  C   UNL     1       6.439  25.105  55.042  1.00  0.00     0.043 A 
HETATM   34  C   UNL     1       4.902  26.221  53.566  1.00  0.00     0.014 A 
HETATM   35  C   UNL     1       6.848  24.231  54.022  1.00  0.00     0.030 A 
HETATM   36  N   UNL     1       6.826  25.168  56.360  1.00  0.00    -0.364 N 
HETATM   37  C   UNL     1       6.260  24.376  52.762  1.00  0.00     0.002 A 
HETATM   38  C   UNL     1       5.291  25.349  52.538  1.00  0.00     0.001 A 
HETATM   39  H   UNL     1       7.488  24.536  56.790  1.00  0.00     0.165 HD
HETATM   40  C   UNL     1       6.180  26.192  57.003  1.00  0.00     0.102 A 
ENDBRANCH  30  31
ENDBRANCH   3  29
TORSDOF 5
ENDMDL
MODEL 8
REMARK VINA RESULT:      -9.7      3.117      9.459
REMARK  5 active torsions:
REMARK  status: ('A' for Active; 'I' for Inactive)
REMARK    1  A    between atoms: C_6  and  N_7 
REMARK       I    between atoms: N_7  and  C_8 
REMARK    2  A    between atoms: C_8  and  C_9 
REMARK    3  A    between atoms: C_10  and  N_11 
REMARK    4  A    between atoms: N_12  and  N_13 
REMARK    5  A    between atoms: C_14  and  C_15 
ROOT
HETATM    1  C   UNL     1       4.442  32.774  59.214  1.00  0.00     0.099 C 
HETATM    2  C   UNL     1       3.784  31.512  59.090  1.00  0.00     0.101 C 
HETATM    3  N   UNL     1       4.255  31.139  57.879  1.00  0.00    -0.107 NA
HETATM    4  C   UNL     1       3.892  32.355  57.339  1.00  0.00     0.162 C 
HETATM    5  C   UNL     1       4.859  33.275  57.828  1.00  0.00     0.118 C 
HETATM    6  N   UNL     1       5.226  33.712  56.542  1.00  0.00    -0.242 NA
HETATM    7  C   UNL     1       4.145  33.900  55.590  1.00  0.00     0.086 C 
HETATM    8  C   UNL     1       2.916  33.921  56.179  1.00  0.00     0.087 C 
HETATM    9  N   UNL     1       2.681  32.894  56.995  1.00  0.00    -0.230 NA
HETATM   10  C   UNL     1       3.942  33.796  54.168  1.00  0.00     0.034 C 
HETATM   11  C   UNL     1       2.698  34.116  53.553  1.00  0.00     0.002 C 
HETATM   12  C   UNL     1       1.714  34.724  54.317  1.00  0.00     0.002 C 
HETATM   13  C   UNL     1       1.871  34.679  55.684  1.00  0.00     0.034 C 
ENDROOT
BRANCH   1  14
HETATM   14  C   UNL     1       4.279  33.355  60.580  1.00  0.00     0.261 C 
HETATM   15  N   UNL     1       3.842  32.667  61.717  1.00  0.00    -0.323 N 
HETATM   16  H   UNL     1       3.165  31.926  61.607  1.00  0.00     0.169 HD
HETATM   17  O   UNL     1       4.573  34.553  60.696  1.00  0.00    -0.267 OA
BRANCH  15  18
HETATM   18  C   UNL     1       4.085  33.217  63.039  1.00  0.00     0.035 C 
HETATM   19  C   UNL     1       5.250  32.880  63.747  1.00  0.00     0.037 C 
HETATM   20  C   UNL     1       5.639  33.500  64.941  1.00  0.00    -0.054 C 
HETATM   21  C   UNL     1       4.673  34.178  65.675  1.00  0.00    -0.056 C 
HETATM   22  C   UNL     1       7.119  33.610  65.208  1.00  0.00     0.049 C 
HETATM   23  C   UNL     1       4.848  34.396  67.156  1.00  0.00     0.049 C 
HETATM   24  C   UNL     1       3.469  34.503  65.020  1.00  0.00     0.009 C 
HETATM   25  C   UNL     1       3.208  34.092  63.684  1.00  0.00     0.030 C 
ENDBRANCH  15  18
ENDBRANCH   1  14
BRANCH   2  26
HETATM   26  N   UNL     1       2.884  30.752  59.769  1.00  0.00    -0.291 NA
HETATM   27  H   UNL     1       2.784  31.021  60.753  1.00  0.00     0.125 HD
HETATM   28  H   UNL     1       1.953  30.747  59.341  1.00  0.00     0.125 HD
ENDBRANCH   2  26
BRANCH   3  29
HETATM   29  N   UNL     1       5.457  30.420  57.721  1.00  0.00    -0.198 NA
HETATM   30  C   UNL     1       5.271  29.259  57.158  1.00  0.00     0.147 C 
BRANCH  30  31
HETATM   31  C   UNL     1       6.299  28.232  57.075  1.00  0.00     0.010 A 
HETATM   32  C   UNL     1       6.256  27.033  56.269  1.00  0.00     0.004 A 
HETATM   33  C   UNL     1       7.452  26.343  56.475  1.00  0.00     0.043 A 
HETATM   34  C   UNL     1       5.316  26.465  55.375  1.00  0.00     0.014 A 
HETATM   35  C   UNL     1       7.773  25.149  55.810  1.00  0.00     0.030 A 
HETATM   36  N   UNL     1       8.167  27.054  57.410  1.00  0.00    -0.364 N 
HETATM   37  C   UNL     1       6.834  24.625  54.917  1.00  0.00     0.002 A 
HETATM   38  C   UNL     1       5.616  25.266  54.709  1.00  0.00     0.001 A 
HETATM   39  H   UNL     1       9.069  26.772  57.771  1.00  0.00     0.165 HD
HETATM   40  C   UNL     1       7.480  28.178  57.789  1.00  0.00     0.102 A 
ENDBRANCH  30  31
ENDBRANCH   3  29
TORSDOF 5
ENDMDL
MODEL 9
REMARK VINA RESULT:      -9.7      5.720     10.227
REMARK  5 active torsions:
REMARK  status: ('A' for Active; 'I' for Inactive)
REMARK    1  A    between atoms: C_6  and  N_7 
REMARK       I    between atoms: N_7  and  C_8 
REMARK    2  A    between atoms: C_8  and  C_9 
REMARK    3  A    between atoms: C_10  and  N_11 
REMARK    4  A    between atoms: N_12  and  N_13 
REMARK    5  A    between atoms: C_14  and  C_15 
ROOT
HETATM    1  C   UNL     1       5.352  29.799  50.404  1.00  0.00     0.099 C 
HETATM    2  C   UNL     1       4.480  29.627  51.523  1.00  0.00     0.101 C 
HETATM    3  N   UNL     1       4.449  28.278  51.570  1.00  0.00    -0.107 NA
HETATM    4  C   UNL     1       4.146  28.216  50.226  1.00  0.00     0.162 C 
HETATM    5  C   UNL     1       5.366  28.519  49.562  1.00  0.00     0.118 C 
HETATM    6  N   UNL     1       5.354  27.333  48.806  1.00  0.00    -0.242 NA
HETATM    7  C   UNL     1       4.070  26.920  48.270  1.00  0.00     0.086 C 
HETATM    8  C   UNL     1       3.129  27.906  48.323  1.00  0.00     0.087 C 
HETATM    9  N   UNL     1       3.003  28.480  49.518  1.00  0.00    -0.230 NA
HETATM   10  C   UNL     1       3.390  25.691  47.948  1.00  0.00     0.034 C 
HETATM   11  C   UNL     1       2.089  25.672  47.369  1.00  0.00     0.002 C 
HETATM   12  C   UNL     1       1.538  26.865  46.930  1.00  0.00     0.002 C 
HETATM   13  C   UNL     1       2.130  28.026  47.376  1.00  0.00     0.034 C 
ENDROOT
BRANCH   1  14
HETATM   14  C   UNL     1       5.757  31.225  50.227  1.00  0.00     0.261 C 
HETATM   15  N   UNL     1       5.034  32.342  50.659  1.00  0.00    -0.323 N 
HETATM   16  H   UNL     1       4.026  32.299  50.661  1.00  0.00     0.169 HD
HETATM   17  O   UNL     1       6.838  31.413  49.651  1.00  0.00    -0.267 OA
BRANCH  15  18
HETATM   18  C   UNL     1       5.690  33.633  50.776  1.00  0.00     0.035 C 
HETATM   19  C   UNL     1       6.051  34.355  49.626  1.00  0.00     0.037 C 
HETATM   20  C   UNL     1       6.523  35.673  49.654  1.00  0.00    -0.054 C 
HETATM   21  C   UNL     1       7.040  36.161  50.849  1.00  0.00    -0.056 C 
HETATM   22  C   UNL     1       6.199  36.544  48.468  1.00  0.00     0.049 C 
HETATM   23  C   UNL     1       8.020  37.305  50.849  1.00  0.00     0.049 C 
HETATM   24  C   UNL     1       6.739  35.448  52.026  1.00  0.00     0.009 C 
HETATM   25  C   UNL     1       6.002  34.232  51.998  1.00  0.00     0.030 C 
ENDBRANCH  15  18
ENDBRANCH   1  14
BRANCH   2  26
HETATM   26  N   UNL     1       3.739  30.388  52.373  1.00  0.00    -0.291 NA
HETATM   27  H   UNL     1       4.271  31.146  52.811  1.00  0.00     0.125 HD
HETATM   28  H   UNL     1       2.907  30.792  51.932  1.00  0.00     0.125 HD
ENDBRANCH   2  26
BRANCH   3  29
HETATM   29  N   UNL     1       5.385  27.522  52.305  1.00  0.00    -0.198 NA
HETATM   30  C   UNL     1       4.816  26.612  53.045  1.00  0.00     0.147 C 
BRANCH  30  31
HETATM   31  C   UNL     1       5.523  25.844  54.060  1.00  0.00     0.010 A 
HETATM   32  C   UNL     1       6.419  24.733  53.831  1.00  0.00     0.004 A 
HETATM   33  C   UNL     1       6.888  24.306  55.075  1.00  0.00     0.043 A 
HETATM   34  C   UNL     1       6.886  24.047  52.683  1.00  0.00     0.014 A 
HETATM   35  C   UNL     1       7.821  23.268  55.228  1.00  0.00     0.030 A 
HETATM   36  N   UNL     1       6.260  25.078  56.025  1.00  0.00    -0.364 N 
HETATM   37  C   UNL     1       8.280  22.626  54.074  1.00  0.00     0.002 A 
HETATM   38  C   UNL     1       7.811  23.000  52.818  1.00  0.00     0.001 A 
HETATM   39  H   UNL     1       6.393  24.972  57.022  1.00  0.00     0.165 HD
HETATM   40  C   UNL     1       5.429  25.991  55.430  1.00  0.00     0.102 A 
ENDBRANCH  30  31
ENDBRANCH   3  29
TORSDOF 5
ENDMDL
MODEL 10
REMARK VINA RESULT:      -9.7      4.690      9.060
REMARK  5 active torsions:
REMARK  status: ('A' for Active; 'I' for Inactive)
REMARK    1  A    between atoms: C_6  and  N_7 
REMARK       I    between atoms: N_7  and  C_8 
REMARK    2  A    between atoms: C_8  and  C_9 
REMARK    3  A    between atoms: C_10  and  N_11 
REMARK    4  A    between atoms: N_12  and  N_13 
REMARK    5  A    between atoms: C_14  and  C_15 
ROOT
HETATM    1  C   UNL     1       5.462  33.045  62.098  1.00  0.00     0.099 C 
HETATM    2  C   UNL     1       4.309  32.251  62.382  1.00  0.00     0.101 C 
HETATM    3  N   UNL     1       3.489  33.217  62.851  1.00  0.00    -0.107 NA
HETATM    4  C   UNL     1       4.467  33.656  63.718  1.00  0.00     0.162 C 
HETATM    5  C   UNL     1       5.399  34.349  62.899  1.00  0.00     0.118 C 
HETATM    6  N   UNL     1       5.317  35.534  63.652  1.00  0.00    -0.242 NA
HETATM    7  C   UNL     1       5.264  35.383  65.095  1.00  0.00     0.086 C 
HETATM    8  C   UNL     1       5.612  34.132  65.511  1.00  0.00     0.087 C 
HETATM    9  N   UNL     1       4.968  33.147  64.888  1.00  0.00    -0.230 NA
HETATM   10  C   UNL     1       4.686  36.068  66.222  1.00  0.00     0.034 C 
HETATM   11  C   UNL     1       4.891  35.633  67.562  1.00  0.00     0.002 C 
HETATM   12  C   UNL     1       5.824  34.636  67.804  1.00  0.00     0.002 C 
HETATM   13  C   UNL     1       6.247  33.904  66.718  1.00  0.00     0.034 C 
ENDROOT
BRANCH   1  14
HETATM   14  C   UNL     1       6.500  32.273  61.352  1.00  0.00     0.261 C 
HETATM   15  N   UNL     1       6.373  31.774  60.051  1.00  0.00    -0.323 N 
HETATM   16  H   UNL     1       5.465  31.469  59.733  1.00  0.00     0.169 HD
HETATM   17  O   UNL     1       7.565  32.077  61.954  1.00  0.00    -0.267 OA
BRANCH  15  18
HETATM   18  C   UNL     1       7.556  31.385  59.302  1.00  0.00     0.035 C 
HETATM   19  C   UNL     1       7.539  30.242  58.487  1.00  0.00     0.037 C 
HETATM   20  C   UNL     1       8.572  29.902  57.605  1.00  0.00    -0.054 C 
HETATM   21  C   UNL     1       9.827  30.465  57.814  1.00  0.00    -0.056 C 
HETATM   22  C   UNL     1       8.189  29.163  56.348  1.00  0.00     0.049 C 
HETATM   23  C   UNL     1      11.067  29.786  57.294  1.00  0.00     0.049 C 
HETATM   24  C   UNL     1       9.901  31.591  58.657  1.00  0.00     0.009 C 
HETATM   25  C   UNL     1       8.758  32.095  59.336  1.00  0.00     0.030 C 
ENDBRANCH  15  18
ENDBRANCH   1  14
BRANCH   2  26
HETATM   26  N   UNL     1       3.930  30.945  62.357  1.00  0.00    -0.291 NA
HETATM   27  H   UNL     1       3.109  30.770  61.769  1.00  0.00     0.125 HD
HETATM   28  H   UNL     1       4.680  30.312  62.061  1.00  0.00     0.125 HD
ENDBRANCH   2  26
BRANCH   3  29
HETATM   29  N   UNL     1       2.645  33.971  62.009  1.00  0.00    -0.198 NA
HETATM   30  C   UNL     1       2.875  33.745  60.746  1.00  0.00     0.147 C 
BRANCH  30  31
HETATM   31  C   UNL     1       2.304  34.543  59.670  1.00  0.00     0.010 A 
HETATM   32  C   UNL     1       2.929  34.858  58.406  1.00  0.00     0.004 A 
HETATM   33  C   UNL     1       2.025  35.627  57.669  1.00  0.00     0.043 A 
HETATM   34  C   UNL     1       4.177  34.560  57.808  1.00  0.00     0.014 A 
HETATM   35  C   UNL     1       2.285  36.073  56.364  1.00  0.00     0.030 A 
HETATM   36  N   UNL     1       0.924  35.826  58.469  1.00  0.00    -0.364 N 
HETATM   37  C   UNL     1       3.517  35.744  55.793  1.00  0.00     0.002 A 
HETATM   38  C   UNL     1       4.458  35.007  56.507  1.00  0.00     0.001 A 
HETATM   39  H   UNL     1       0.117  36.372  58.200  1.00  0.00     0.165 HD
HETATM   40  C   UNL     1       1.086  35.196  59.675  1.00  0.00     0.102 A 
ENDBRANCH  30  31
ENDBRANCH   3  29
TORSDOF 5
ENDMDL
