MODEL 1
REMARK VINA RESULT:      -9.8      0.000      0.000
REMARK  4 active torsions:
REMARK  status: ('A' for Active; 'I' for Inactive)
REMARK    1  A    between atoms: C_6  and  C_7 
REMARK    2  A    between atoms: C_7  and  N_8 
REMARK    3  A    between atoms: C_11  and  C_12 
REMARK    4  A    between atoms: C_12  and  C_13 
ROOT
HETATM    1  N   UNL     1       6.853  27.326  55.959  1.00  0.00    -0.064 N 
HETATM    2  H   UNL     1       7.770  27.102  56.380  1.00  0.00     0.280 HD
HETATM    3  C   UNL     1       6.336  26.029  55.365  1.00  0.00     0.247 C 
HETATM    4  C   UNL     1       7.315  25.532  54.296  1.00  0.00     0.086 C 
HETATM    5  C   UNL     1       7.508  26.605  53.222  1.00  0.00     0.016 C 
HETATM    6  C   UNL     1       7.961  27.926  53.838  1.00  0.00     0.029 C 
HETATM    7  C   UNL     1       7.018  28.405  54.933  1.00  0.00     0.235 C 
ENDROOT
BRANCH   1   8
HETATM    8  C   UNL     1       6.037  27.768  57.164  1.00  0.00     0.313 C 
BRANCH   8   9
HETATM    9  C   UNL     1       6.750  28.862  57.880  1.00  0.00     0.131 A 
HETATM   10  N   UNL     1       8.014  28.807  58.258  1.00  0.00    -0.232 NA
HETATM   11  C   UNL     1       8.252  30.000  58.901  1.00  0.00     0.085 A 
HETATM   12  C   UNL     1       7.118  30.804  58.884  1.00  0.00     0.062 A 
HETATM   13  C   UNL     1       9.415  30.466  59.531  1.00  0.00     0.034 A 
HETATM   14  C   UNL     1       7.073  32.076  59.457  1.00  0.00     0.032 A 
HETATM   15  N   UNL     1       6.174  30.060  58.222  1.00  0.00    -0.341 N 
HETATM   16  C   UNL     1       8.242  32.526  60.081  1.00  0.00     0.002 A 
HETATM   17  C   UNL     1       9.394  31.737  60.120  1.00  0.00     0.002 A 
HETATM   18  H   UNL     1       5.226  30.360  58.040  1.00  0.00     0.167 HD
ENDBRANCH   8   9
ENDBRANCH   1   8
BRANCH   4  19
HETATM   19  C   UNL     1       6.742  24.260  53.691  1.00  0.00     0.165 C 
HETATM   20  O   UNL     1       5.750  24.319  52.966  1.00  0.00    -0.292 OA
BRANCH  19  21
HETATM   21  C   UNL     1       7.376  22.933  53.970  1.00  0.00     0.012 A 
HETATM   22  C   UNL     1       7.577  22.572  55.309  1.00  0.00     0.039 A 
HETATM   23  C   UNL     1       8.167  21.349  55.623  1.00  0.00     0.035 A 
HETATM   24 CL   UNL     1       8.417  20.919  57.270  1.00  0.00    -0.084 Cl
HETATM   25  C   UNL     1       8.557  20.473  54.614  1.00  0.00     0.024 A 
HETATM   26  C   UNL     1       8.359  20.824  53.280  1.00  0.00     0.003 A 
HETATM   27  C   UNL     1       7.772  22.050  52.956  1.00  0.00     0.015 A 
ENDBRANCH  19  21
ENDBRANCH   4  19
TORSDOF 4
ENDMDL
MODEL 2
REMARK VINA RESULT:      -9.4      2.062      2.966
REMARK  4 active torsions:
REMARK  status: ('A' for Active; 'I' for Inactive)
REMARK    1  A    between atoms: C_6  and  C_7 
REMARK    2  A    between atoms: C_7  and  N_8 
REMARK    3  A    between atoms: C_11  and  C_12 
REMARK    4  A    between atoms: C_12  and  C_13 
ROOT
HETATM    1  N   UNL     1       6.061  27.220  54.046  1.00  0.00    -0.064 N 
HETATM    2  H   UNL     1       6.923  27.288  53.480  1.00  0.00     0.280 HD
HETATM    3  C   UNL     1       6.391  26.299  55.205  1.00  0.00     0.247 C 
HETATM    4  C   UNL     1       6.793  24.923  54.665  1.00  0.00     0.086 C 
HETATM    5  C   UNL     1       5.669  24.352  53.797  1.00  0.00     0.016 C 
HETATM    6  C   UNL     1       5.297  25.317  52.674  1.00  0.00     0.029 C 
HETATM    7  C   UNL     1       4.940  26.701  53.199  1.00  0.00     0.235 C 
ENDROOT
BRANCH   1   8
HETATM    8  C   UNL     1       5.851  28.657  54.498  1.00  0.00     0.313 C 
BRANCH   8   9
HETATM    9  C   UNL     1       6.971  29.071  55.388  1.00  0.00     0.131 A 
HETATM   10  N   UNL     1       6.819  29.511  56.624  1.00  0.00    -0.232 NA
HETATM   11  C   UNL     1       8.090  29.805  57.063  1.00  0.00     0.085 A 
HETATM   12  C   UNL     1       9.031  29.508  56.084  1.00  0.00     0.062 A 
HETATM   13  C   UNL     1       8.517  30.335  58.289  1.00  0.00     0.034 A 
HETATM   14  C   UNL     1      10.402  29.699  56.257  1.00  0.00     0.032 A 
HETATM   15  N   UNL     1       8.295  29.035  55.026  1.00  0.00    -0.341 N 
HETATM   16  C   UNL     1      10.813  30.227  57.486  1.00  0.00     0.002 A 
HETATM   17  C   UNL     1       9.889  30.543  58.486  1.00  0.00     0.002 A 
HETATM   18  H   UNL     1       8.682  28.730  54.143  1.00  0.00     0.167 HD
ENDBRANCH   8   9
ENDBRANCH   1   8
BRANCH   4  19
HETATM   19  C   UNL     1       7.070  24.015  55.854  1.00  0.00     0.165 C 
HETATM   20  O   UNL     1       6.772  24.384  56.989  1.00  0.00    -0.292 OA
BRANCH  19  21
HETATM   21  C   UNL     1       7.703  22.674  55.655  1.00  0.00     0.012 A 
HETATM   22  C   UNL     1       7.757  22.162  54.351  1.00  0.00     0.039 A 
HETATM   23  C   UNL     1       8.332  20.916  54.111  1.00  0.00     0.035 A 
HETATM   24 CL   UNL     1       8.387  20.294  52.509  1.00  0.00    -0.084 Cl
HETATM   25  C   UNL     1       8.861  20.168  55.160  1.00  0.00     0.024 A 
HETATM   26  C   UNL     1       8.812  20.671  56.459  1.00  0.00     0.003 A 
HETATM   27  C   UNL     1       8.234  21.918  56.709  1.00  0.00     0.015 A 
ENDBRANCH  19  21
ENDBRANCH   4  19
TORSDOF 4
ENDMDL
MODEL 3
REMARK VINA RESULT:      -9.3      4.223      7.530
REMARK  4 active torsions:
REMARK  status: ('A' for Active; 'I' for Inactive)
REMARK    1  A    between atoms: C_6  and  C_7 
REMARK    2  A    between atoms: C_7  and  N_8 
REMARK    3  A    between atoms: C_11  and  C_12 
REMARK    4  A    between atoms: C_12  and  C_13 
ROOT
HETATM    1  N   UNL     1       5.343  28.059  53.038  1.00  0.00    -0.064 N 
HETATM    2  H   UNL     1       4.587  27.415  52.750  1.00  0.00     0.280 HD
HETATM    3  C   UNL     1       6.471  27.179  53.545  1.00  0.00     0.247 C 
HETATM    4  C   UNL     1       5.978  26.355  54.739  1.00  0.00     0.086 C 
HETATM    5  C   UNL     1       5.453  27.284  55.836  1.00  0.00     0.016 C 
HETATM    6  C   UNL     1       4.368  28.213  55.298  1.00  0.00     0.029 C 
HETATM    7  C   UNL     1       4.834  29.002  54.083  1.00  0.00     0.235 C 
ENDROOT
BRANCH   1   8
HETATM    8  C   UNL     1       5.701  28.750  51.732  1.00  0.00     0.313 C 
BRANCH   8   9
HETATM    9  C   UNL     1       4.857  28.211  50.630  1.00  0.00     0.131 A 
HETATM   10  N   UNL     1       3.619  28.599  50.380  1.00  0.00    -0.232 NA
HETATM   11  C   UNL     1       3.209  27.834  49.311  1.00  0.00     0.085 A 
HETATM   12  C   UNL     1       4.230  26.990  48.888  1.00  0.00     0.062 A 
HETATM   13  C   UNL     1       1.974  27.803  48.650  1.00  0.00     0.034 A 
HETATM   14  C   UNL     1       4.098  26.107  47.816  1.00  0.00     0.032 A 
HETATM   15  N   UNL     1       5.273  27.253  49.740  1.00  0.00    -0.341 N 
HETATM   16  C   UNL     1       2.858  26.089  47.166  1.00  0.00     0.002 A 
HETATM   17  C   UNL     1       1.812  26.920  47.575  1.00  0.00     0.002 A 
HETATM   18  H   UNL     1       6.176  26.799  49.704  1.00  0.00     0.167 HD
ENDBRANCH   8   9
ENDBRANCH   1   8
BRANCH   4  19
HETATM   19  C   UNL     1       7.145  25.524  55.249  1.00  0.00     0.165 C 
HETATM   20  O   UNL     1       7.876  25.971  56.132  1.00  0.00    -0.292 OA
BRANCH  19  21
HETATM   21  C   UNL     1       7.413  24.164  54.686  1.00  0.00     0.012 A 
HETATM   22  C   UNL     1       7.421  23.078  55.573  1.00  0.00     0.039 A 
HETATM   23  C   UNL     1       7.670  21.790  55.100  1.00  0.00     0.035 A 
HETATM   24 CL   UNL     1       7.686  20.466  56.198  1.00  0.00    -0.084 Cl
HETATM   25  C   UNL     1       7.908  21.568  53.746  1.00  0.00     0.024 A 
HETATM   26  C   UNL     1       7.899  22.642  52.859  1.00  0.00     0.003 A 
HETATM   27  C   UNL     1       7.655  23.937  53.324  1.00  0.00     0.015 A 
ENDBRANCH  19  21
ENDBRANCH   4  19
TORSDOF 4
ENDMDL
MODEL 4
REMARK VINA RESULT:      -9.3      3.404      8.372
REMARK  4 active torsions:
REMARK  status: ('A' for Active; 'I' for Inactive)
REMARK    1  A    between atoms: C_6  and  C_7 
REMARK    2  A    between atoms: C_7  and  N_8 
REMARK    3  A    between atoms: C_11  and  C_12 
REMARK    4  A    between atoms: C_12  and  C_13 
ROOT
HETATM    1  N   UNL     1       7.365  25.453  57.721  1.00  0.00    -0.064 N 
HETATM    2  H   UNL     1       7.119  25.562  58.720  1.00  0.00     0.280 HD
HETATM    3  C   UNL     1       7.732  26.840  57.227  1.00  0.00     0.247 C 
HETATM    4  C   UNL     1       6.528  27.774  57.388  1.00  0.00     0.086 C 
HETATM    5  C   UNL     1       5.322  27.209  56.634  1.00  0.00     0.016 C 
HETATM    6  C   UNL     1       5.004  25.787  57.090  1.00  0.00     0.029 C 
HETATM    7  C   UNL     1       6.208  24.863  56.976  1.00  0.00     0.235 C 
ENDROOT
BRANCH   1   8
HETATM    8  C   UNL     1       8.572  24.529  57.780  1.00  0.00     0.313 C 
BRANCH   8   9
HETATM    9  C   UNL     1       8.498  23.536  56.673  1.00  0.00     0.131 A 
HETATM   10  N   UNL     1       8.399  22.231  56.846  1.00  0.00    -0.232 NA
HETATM   11  C   UNL     1       8.391  21.696  55.578  1.00  0.00     0.085 A 
HETATM   12  C   UNL     1       8.455  22.701  54.619  1.00  0.00     0.062 A 
HETATM   13  C   UNL     1       8.334  20.357  55.167  1.00  0.00     0.034 A 
HETATM   14  C   UNL     1       8.455  22.450  53.246  1.00  0.00     0.032 A 
HETATM   15  N   UNL     1       8.517  23.867  55.340  1.00  0.00    -0.341 N 
HETATM   16  C   UNL     1       8.398  21.108  52.853  1.00  0.00     0.002 A 
HETATM   17  C   UNL     1       8.341  20.077  53.794  1.00  0.00     0.002 A 
HETATM   18  H   UNL     1       8.575  24.793  54.938  1.00  0.00     0.167 HD
ENDBRANCH   8   9
ENDBRANCH   1   8
BRANCH   4  19
HETATM   19  C   UNL     1       6.917  29.138  56.840  1.00  0.00     0.165 C 
HETATM   20  O   UNL     1       6.121  29.769  56.145  1.00  0.00    -0.292 OA
BRANCH  19  21
HETATM   21  C   UNL     1       8.261  29.723  57.138  1.00  0.00     0.012 A 
HETATM   22  C   UNL     1       8.390  30.516  58.287  1.00  0.00     0.039 A 
HETATM   23  C   UNL     1       9.620  31.087  58.608  1.00  0.00     0.035 A 
HETATM   24 CL   UNL     1       9.766  32.065  60.016  1.00  0.00    -0.084 Cl
HETATM   25  C   UNL     1      10.732  30.875  57.797  1.00  0.00     0.024 A 
HETATM   26  C   UNL     1      10.612  30.087  56.654  1.00  0.00     0.003 A 
HETATM   27  C   UNL     1       9.382  29.513  56.322  1.00  0.00     0.015 A 
ENDBRANCH  19  21
ENDBRANCH   4  19
TORSDOF 4
ENDMDL
MODEL 5
REMARK VINA RESULT:      -9.2      3.264      8.204
REMARK  4 active torsions:
REMARK  status: ('A' for Active; 'I' for Inactive)
REMARK    1  A    between atoms: C_6  and  C_7 
REMARK    2  A    between atoms: C_7  and  N_8 
REMARK    3  A    between atoms: C_11  and  C_12 
REMARK    4  A    between atoms: C_12  and  C_13 
ROOT
HETATM    1  N   UNL     1       6.558  26.599  53.951  1.00  0.00    -0.064 N 
HETATM    2  H   UNL     1       5.737  26.063  54.282  1.00  0.00     0.280 HD
HETATM    3  C   UNL     1       7.507  26.683  55.131  1.00  0.00     0.247 C 
HETATM    4  C   UNL     1       6.817  27.410  56.290  1.00  0.00     0.086 C 
HETATM    5  C   UNL     1       6.358  28.799  55.839  1.00  0.00     0.016 C 
HETATM    6  C   UNL     1       5.459  28.708  54.608  1.00  0.00     0.029 C 
HETATM    7  C   UNL     1       6.119  27.947  53.467  1.00  0.00     0.235 C 
ENDROOT
BRANCH   1   8
HETATM    8  C   UNL     1       7.102  25.714  52.841  1.00  0.00     0.313 C 
BRANCH   8   9
HETATM    9  C   UNL     1       7.399  24.358  53.379  1.00  0.00     0.131 A 
HETATM   10  N   UNL     1       7.085  23.952  54.596  1.00  0.00    -0.232 NA
HETATM   11  C   UNL     1       7.562  22.665  54.684  1.00  0.00     0.085 A 
HETATM   12  C   UNL     1       8.149  22.274  53.485  1.00  0.00     0.062 A 
HETATM   13  C   UNL     1       7.535  21.767  55.760  1.00  0.00     0.034 A 
HETATM   14  C   UNL     1       8.712  21.013  53.284  1.00  0.00     0.032 A 
HETATM   15  N   UNL     1       8.028  23.368  52.666  1.00  0.00    -0.341 N 
HETATM   16  C   UNL     1       8.675  20.128  54.368  1.00  0.00     0.002 A 
HETATM   17  C   UNL     1       8.100  20.496  55.587  1.00  0.00     0.002 A 
HETATM   18  H   UNL     1       8.360  23.415  51.712  1.00  0.00     0.167 HD
ENDBRANCH   8   9
ENDBRANCH   1   8
BRANCH   4  19
HETATM   19  C   UNL     1       7.813  27.517  57.435  1.00  0.00     0.165 C 
HETATM   20  O   UNL     1       7.881  26.620  58.274  1.00  0.00    -0.292 OA
BRANCH  19  21
HETATM   21  C   UNL     1       8.712  28.707  57.551  1.00  0.00     0.012 A 
HETATM   22  C   UNL     1       8.356  29.712  58.462  1.00  0.00     0.039 A 
HETATM   23  C   UNL     1       9.157  30.843  58.605  1.00  0.00     0.035 A 
HETATM   24 CL   UNL     1       8.706  32.073  59.720  1.00  0.00    -0.084 Cl
HETATM   25  C   UNL     1      10.319  30.986  57.852  1.00  0.00     0.024 A 
HETATM   26  C   UNL     1      10.681  29.991  56.946  1.00  0.00     0.003 A 
HETATM   27  C   UNL     1       9.881  28.856  56.792  1.00  0.00     0.015 A 
ENDBRANCH  19  21
ENDBRANCH   4  19
TORSDOF 4
ENDMDL
MODEL 6
REMARK VINA RESULT:      -9.2      1.912      2.592
REMARK  4 active torsions:
REMARK  status: ('A' for Active; 'I' for Inactive)
REMARK    1  A    between atoms: C_6  and  C_7 
REMARK    2  A    between atoms: C_7  and  N_8 
REMARK    3  A    between atoms: C_11  and  C_12 
REMARK    4  A    between atoms: C_12  and  C_13 
ROOT
HETATM    1  N   UNL     1       7.601  28.704  56.593  1.00  0.00    -0.064 N 
HETATM    2  H   UNL     1       7.345  28.834  55.599  1.00  0.00     0.280 HD
HETATM    3  C   UNL     1       8.273  27.346  56.678  1.00  0.00     0.247 C 
HETATM    4  C   UNL     1       7.291  26.261  56.225  1.00  0.00     0.086 C 
HETATM    5  C   UNL     1       6.022  26.314  57.080  1.00  0.00     0.016 C 
HETATM    6  C   UNL     1       5.391  27.703  57.043  1.00  0.00     0.029 C 
HETATM    7  C   UNL     1       6.374  28.793  57.447  1.00  0.00     0.235 C 
ENDROOT
BRANCH   1   8
HETATM    8  C   UNL     1       8.579  29.843  56.832  1.00  0.00     0.313 C 
BRANCH   8   9
HETATM    9  C   UNL     1       8.420  30.360  58.219  1.00  0.00     0.131 A 
HETATM   10  N   UNL     1       9.091  29.913  59.264  1.00  0.00    -0.232 NA
HETATM   11  C   UNL     1       8.618  30.637  60.336  1.00  0.00     0.085 A 
HETATM   12  C   UNL     1       7.665  31.561  59.923  1.00  0.00     0.062 A 
HETATM   13  C   UNL     1       8.955  30.557  61.694  1.00  0.00     0.034 A 
HETATM   14  C   UNL     1       7.020  32.438  60.797  1.00  0.00     0.032 A 
HETATM   15  N   UNL     1       7.559  31.371  58.568  1.00  0.00    -0.341 N 
HETATM   16  C   UNL     1       7.368  32.345  62.150  1.00  0.00     0.002 A 
HETATM   17  C   UNL     1       8.317  31.420  62.594  1.00  0.00     0.002 A 
HETATM   18  H   UNL     1       6.941  31.890  57.959  1.00  0.00     0.167 HD
ENDBRANCH   8   9
ENDBRANCH   1   8
BRANCH   4  19
HETATM   19  C   UNL     1       7.982  24.914  56.369  1.00  0.00     0.165 C 
HETATM   20  O   UNL     1       8.548  24.625  57.423  1.00  0.00    -0.292 OA
BRANCH  19  21
HETATM   21  C   UNL     1       7.981  23.934  55.239  1.00  0.00     0.012 A 
HETATM   22  C   UNL     1       8.210  22.584  55.541  1.00  0.00     0.039 A 
HETATM   23  C   UNL     1       8.223  21.631  54.524  1.00  0.00     0.035 A 
HETATM   24 CL   UNL     1       8.513  19.980  54.906  1.00  0.00    -0.084 Cl
HETATM   25  C   UNL     1       8.005  22.007  53.202  1.00  0.00     0.024 A 
HETATM   26  C   UNL     1       7.774  23.346  52.893  1.00  0.00     0.003 A 
HETATM   27  C   UNL     1       7.764  24.309  53.905  1.00  0.00     0.015 A 
ENDBRANCH  19  21
ENDBRANCH   4  19
TORSDOF 4
ENDMDL
MODEL 7
REMARK VINA RESULT:      -9.1      2.143      3.390
REMARK  4 active torsions:
REMARK  status: ('A' for Active; 'I' for Inactive)
REMARK    1  A    between atoms: C_6  and  C_7 
REMARK    2  A    between atoms: C_7  and  N_8 
REMARK    3  A    between atoms: C_11  and  C_12 
REMARK    4  A    between atoms: C_12  and  C_13 
ROOT
HETATM    1  N   UNL     1       7.162  29.579  57.833  1.00  0.00    -0.064 N 
HETATM    2  H   UNL     1       7.359  29.312  58.813  1.00  0.00     0.280 HD
HETATM    3  C   UNL     1       6.218  28.521  57.293  1.00  0.00     0.247 C 
HETATM    4  C   UNL     1       6.898  27.149  57.354  1.00  0.00     0.086 C 
HETATM    5  C   UNL     1       8.213  27.181  56.571  1.00  0.00     0.016 C 
HETATM    6  C   UNL     1       9.128  28.294  57.077  1.00  0.00     0.029 C 
HETATM    7  C   UNL     1       8.444  29.654  57.062  1.00  0.00     0.235 C 
ENDROOT
BRANCH   1   8
HETATM    8  C   UNL     1       6.480  30.928  57.990  1.00  0.00     0.313 C 
BRANCH   8   9
HETATM    9  C   UNL     1       6.708  31.449  59.366  1.00  0.00     0.131 A 
HETATM   10  N   UNL     1       6.148  32.541  59.854  1.00  0.00    -0.232 NA
HETATM   11  C   UNL     1       6.650  32.668  61.129  1.00  0.00     0.085 A 
HETATM   12  C   UNL     1       7.507  31.615  61.428  1.00  0.00     0.062 A 
HETATM   13  C   UNL     1       6.422  33.662  62.091  1.00  0.00     0.034 A 
HETATM   14  C   UNL     1       8.155  31.481  62.657  1.00  0.00     0.032 A 
HETATM   15  N   UNL     1       7.524  30.846  60.292  1.00  0.00    -0.341 N 
HETATM   16  C   UNL     1       7.916  32.482  63.606  1.00  0.00     0.002 A 
HETATM   17  C   UNL     1       7.066  33.556  63.330  1.00  0.00     0.002 A 
HETATM   18  H   UNL     1       8.059  29.996  60.177  1.00  0.00     0.167 HD
ENDBRANCH   8   9
ENDBRANCH   1   8
BRANCH   4  19
HETATM   19  C   UNL     1       5.942  26.125  56.762  1.00  0.00     0.165 C 
HETATM   20  O   UNL     1       4.748  26.160  57.056  1.00  0.00    -0.292 OA
BRANCH  19  21
HETATM   21  C   UNL     1       6.442  25.074  55.823  1.00  0.00     0.012 A 
HETATM   22  C   UNL     1       7.013  23.919  56.376  1.00  0.00     0.039 A 
HETATM   23  C   UNL     1       7.498  22.910  55.546  1.00  0.00     0.035 A 
HETATM   24 CL   UNL     1       8.204  21.502  56.235  1.00  0.00    -0.084 Cl
HETATM   25  C   UNL     1       7.417  23.036  54.161  1.00  0.00     0.024 A 
HETATM   26  C   UNL     1       6.850  24.179  53.603  1.00  0.00     0.003 A 
HETATM   27  C   UNL     1       6.365  25.198  54.429  1.00  0.00     0.015 A 
ENDBRANCH  19  21
ENDBRANCH   4  19
TORSDOF 4
ENDMDL
MODEL 8
REMARK VINA RESULT:      -9.0      3.124      8.867
REMARK  4 active torsions:
REMARK  status: ('A' for Active; 'I' for Inactive)
REMARK    1  A    between atoms: C_6  and  C_7 
REMARK    2  A    between atoms: C_7  and  N_8 
REMARK    3  A    between atoms: C_11  and  C_12 
REMARK    4  A    between atoms: C_12  and  C_13 
ROOT
HETATM    1  N   UNL     1       6.955  26.833  55.357  1.00  0.00    -0.064 N 
HETATM    2  H   UNL     1       7.216  26.069  56.004  1.00  0.00     0.280 HD
HETATM    3  C   UNL     1       7.776  28.037  55.780  1.00  0.00     0.247 C 
HETATM    4  C   UNL     1       7.429  28.409  57.226  1.00  0.00     0.086 C 
HETATM    5  C   UNL     1       5.928  28.679  57.352  1.00  0.00     0.016 C 
HETATM    6  C   UNL     1       5.111  27.487  56.859  1.00  0.00     0.029 C 
HETATM    7  C   UNL     1       5.481  27.083  55.439  1.00  0.00     0.235 C 
ENDROOT
BRANCH   1   8
HETATM    8  C   UNL     1       7.395  26.287  54.008  1.00  0.00     0.313 C 
BRANCH   8   9
HETATM    9  C   UNL     1       7.587  24.813  54.101  1.00  0.00     0.131 A 
HETATM   10  N   UNL     1       7.793  24.021  53.065  1.00  0.00    -0.232 NA
HETATM   11  C   UNL     1       7.885  22.752  53.591  1.00  0.00     0.085 A 
HETATM   12  C   UNL     1       7.764  22.784  54.976  1.00  0.00     0.062 A 
HETATM   13  C   UNL     1       8.069  21.522  52.945  1.00  0.00     0.034 A 
HETATM   14  C   UNL     1       7.827  21.642  55.776  1.00  0.00     0.032 A 
HETATM   15  N   UNL     1       7.581  24.109  55.279  1.00  0.00    -0.341 N 
HETATM   16  C   UNL     1       8.011  20.421  55.115  1.00  0.00     0.002 A 
HETATM   17  C   UNL     1       8.128  20.359  53.725  1.00  0.00     0.002 A 
HETATM   18  H   UNL     1       7.455  24.476  56.213  1.00  0.00     0.167 HD
ENDBRANCH   8   9
ENDBRANCH   1   8
BRANCH   4  19
HETATM   19  C   UNL     1       8.233  29.645  57.598  1.00  0.00     0.165 C 
HETATM   20  O   UNL     1       9.267  29.911  56.986  1.00  0.00    -0.292 OA
BRANCH  19  21
HETATM   21  C   UNL     1       7.776  30.544  58.703  1.00  0.00     0.012 A 
HETATM   22  C   UNL     1       8.377  30.393  59.961  1.00  0.00     0.039 A 
HETATM   23  C   UNL     1       7.985  31.202  61.026  1.00  0.00     0.035 A 
HETATM   24 CL   UNL     1       8.723  31.003  62.566  1.00  0.00    -0.084 Cl
HETATM   25  C   UNL     1       6.999  32.170  60.852  1.00  0.00     0.024 A 
HETATM   26  C   UNL     1       6.398  32.328  59.605  1.00  0.00     0.003 A 
HETATM   27  C   UNL     1       6.782  31.518  58.533  1.00  0.00     0.015 A 
ENDBRANCH  19  21
ENDBRANCH   4  19
TORSDOF 4
ENDMDL
MODEL 9
REMARK VINA RESULT:      -8.9      3.355      6.526
REMARK  4 active torsions:
REMARK  status: ('A' for Active; 'I' for Inactive)
REMARK    1  A    between atoms: C_6  and  C_7 
REMARK    2  A    between atoms: C_7  and  N_8 
REMARK    3  A    between atoms: C_11  and  C_12 
REMARK    4  A    between atoms: C_12  and  C_13 
ROOT
HETATM    1  N   UNL     1       5.015  27.178  54.220  1.00  0.00    -0.064 N 
HETATM    2  H   UNL     1       4.451  26.579  54.847  1.00  0.00     0.280 HD
HETATM    3  C   UNL     1       5.855  26.232  53.383  1.00  0.00     0.247 C 
HETATM    4  C   UNL     1       6.761  25.405  54.301  1.00  0.00     0.086 C 
HETATM    5  C   UNL     1       7.635  26.333  55.149  1.00  0.00     0.016 C 
HETATM    6  C   UNL     1       6.783  27.326  55.935  1.00  0.00     0.029 C 
HETATM    7  C   UNL     1       5.846  28.120  55.035  1.00  0.00     0.235 C 
ENDROOT
BRANCH   1   8
HETATM    8  C   UNL     1       3.951  27.882  53.394  1.00  0.00     0.313 C 
BRANCH   8   9
HETATM    9  C   UNL     1       4.335  27.858  51.955  1.00  0.00     0.131 A 
HETATM   10  N   UNL     1       4.974  28.833  51.336  1.00  0.00    -0.232 NA
HETATM   11  C   UNL     1       5.098  28.416  50.031  1.00  0.00     0.085 A 
HETATM   12  C   UNL     1       4.549  27.149  49.865  1.00  0.00     0.062 A 
HETATM   13  C   UNL     1       5.664  29.069  48.927  1.00  0.00     0.034 A 
HETATM   14  C   UNL     1       4.540  26.473  48.644  1.00  0.00     0.032 A 
HETATM   15  N   UNL     1       4.074  26.810  51.107  1.00  0.00    -0.341 N 
HETATM   16  C   UNL     1       5.111  27.138  47.553  1.00  0.00     0.002 A 
HETATM   17  C   UNL     1       5.662  28.415  47.688  1.00  0.00     0.002 A 
HETATM   18  H   UNL     1       3.608  25.941  51.330  1.00  0.00     0.167 HD
ENDBRANCH   8   9
ENDBRANCH   1   8
BRANCH   4  19
HETATM   19  C   UNL     1       7.621  24.506  53.425  1.00  0.00     0.165 C 
HETATM   20  O   UNL     1       8.159  24.965  52.419  1.00  0.00    -0.292 OA
BRANCH  19  21
HETATM   21  C   UNL     1       7.818  23.065  53.778  1.00  0.00     0.012 A 
HETATM   22  C   UNL     1       7.964  22.737  55.133  1.00  0.00     0.039 A 
HETATM   23  C   UNL     1       8.154  21.410  55.515  1.00  0.00     0.035 A 
HETATM   24 CL   UNL     1       8.339  21.018  57.179  1.00  0.00    -0.084 Cl
HETATM   25  C   UNL     1       8.197  20.399  54.558  1.00  0.00     0.024 A 
HETATM   26  C   UNL     1       8.052  20.717  53.210  1.00  0.00     0.003 A 
HETATM   27  C   UNL     1       7.865  22.045  52.817  1.00  0.00     0.015 A 
ENDBRANCH  19  21
ENDBRANCH   4  19
TORSDOF 4
ENDMDL
MODEL 10
REMARK VINA RESULT:      -8.8      3.499      7.268
REMARK  4 active torsions:
REMARK  status: ('A' for Active; 'I' for Inactive)
REMARK    1  A    between atoms: C_6  and  C_7 
REMARK    2  A    between atoms: C_7  and  N_8 
REMARK    3  A    between atoms: C_11  and  C_12 
REMARK    4  A    between atoms: C_12  and  C_13 
ROOT
HETATM    1  N   UNL     1       8.047  26.639  56.767  1.00  0.00    -0.064 N 
HETATM    2  H   UNL     1       8.786  26.498  56.058  1.00  0.00     0.280 HD
HETATM    3  C   UNL     1       6.732  26.629  56.009  1.00  0.00     0.247 C 
HETATM    4  C   UNL     1       6.725  27.768  54.984  1.00  0.00     0.086 C 
HETATM    5  C   UNL     1       6.957  29.108  55.687  1.00  0.00     0.016 C 
HETATM    6  C   UNL     1       8.248  29.084  56.503  1.00  0.00     0.029 C 
HETATM    7  C   UNL     1       8.283  27.928  57.493  1.00  0.00     0.235 C 
ENDROOT
BRANCH   1   8
HETATM    8  C   UNL     1       8.204  25.416  57.655  1.00  0.00     0.313 C 
BRANCH   8   9
HETATM    9  C   UNL     1       8.312  24.193  56.812  1.00  0.00     0.131 A 
HETATM   10  N   UNL     1       8.533  24.201  55.510  1.00  0.00    -0.232 NA
HETATM   11  C   UNL     1       8.529  22.877  55.133  1.00  0.00     0.085 A 
HETATM   12  C   UNL     1       8.331  22.052  56.235  1.00  0.00     0.062 A 
HETATM   13  C   UNL     1       8.682  22.303  53.864  1.00  0.00     0.034 A 
HETATM   14  C   UNL     1       8.289  20.660  56.150  1.00  0.00     0.032 A 
HETATM   15  N   UNL     1       8.202  22.913  57.295  1.00  0.00    -0.341 N 
HETATM   16  C   UNL     1       8.445  20.103  54.876  1.00  0.00     0.002 A 
HETATM   17  C   UNL     1       8.636  20.908  53.750  1.00  0.00     0.002 A 
HETATM   18  H   UNL     1       8.044  22.630  58.253  1.00  0.00     0.167 HD
ENDBRANCH   8   9
ENDBRANCH   1   8
BRANCH   4  19
HETATM   19  C   UNL     1       5.377  27.756  54.279  1.00  0.00     0.165 C 
HETATM   20  O   UNL     1       4.396  28.260  54.824  1.00  0.00    -0.292 OA
BRANCH  19  21
HETATM   21  C   UNL     1       5.233  27.135  52.925  1.00  0.00     0.012 A 
HETATM   22  C   UNL     1       5.338  27.973  51.806  1.00  0.00     0.039 A 
HETATM   23  C   UNL     1       5.207  27.447  50.523  1.00  0.00     0.035 A 
HETATM   24 CL   UNL     1       5.329  28.485  49.157  1.00  0.00    -0.084 Cl
HETATM   25  C   UNL     1       4.976  26.086  50.337  1.00  0.00     0.024 A 
HETATM   26  C   UNL     1       4.872  25.246  51.444  1.00  0.00     0.003 A 
HETATM   27  C   UNL     1       4.997  25.767  52.736  1.00  0.00     0.015 A 
ENDBRANCH  19  21
ENDBRANCH   4  19
TORSDOF 4
ENDMDL
