MODEL 1
REMARK VINA RESULT:      -8.8      0.000      0.000
REMARK  6 active torsions:
REMARK  status: ('A' for Active; 'I' for Inactive)
REMARK    1  A    between atoms: C_2  and  C_3 
REMARK    2  A    between atoms: C_3  and  C_4 
REMARK    3  A    between atoms: C_4  and  N_5 
REMARK       I    between atoms: N_5  and  C_6 
REMARK       I    between atoms: C_6  and  N_7 
REMARK    4  A    between atoms: N_7  and  C_8 
REMARK    5  A    between atoms: N_11  and  C_12 
REMARK    6  A    between atoms: C_15  and  O_16 
ROOT
HETATM    1  C   UNL     1       6.636  28.769  56.477  1.00  0.00     0.123 C 
HETATM    2  C   UNL     1       7.203  27.411  56.703  1.00  0.00     0.009 A 
HETATM    3  C   UNL     1       6.927  26.309  55.912  1.00  0.00     0.047 A 
HETATM    4  N   UNL     1       7.741  25.273  56.362  1.00  0.00    -0.238 N 
HETATM    5  N   UNL     1       8.487  25.692  57.427  1.00  0.00    -0.179 NA
HETATM    6  C   UNL     1       8.170  26.970  57.609  1.00  0.00     0.150 A 
HETATM    7  C   UNL     1       5.974  26.317  54.759  1.00  0.00     0.069 C 
HETATM    8  C   UNL     1       5.548  27.765  54.352  1.00  0.00    -0.040 C 
HETATM    9  C   UNL     1       4.205  27.690  53.599  1.00  0.00     0.015 C 
HETATM   10  C   UNL     1       6.595  28.372  53.396  1.00  0.00     0.015 C 
HETATM   11  C   UNL     1       5.367  28.676  55.601  1.00  0.00     0.039 C 
ENDROOT
BRANCH   1  12
HETATM   12  N   UNL     1       6.340  29.391  57.750  1.00  0.00    -0.334 N 
HETATM   13  C   UNL     1       7.219  30.303  58.276  1.00  0.00     0.316 C 
HETATM   14  N   UNL     1       6.718  30.891  59.410  1.00  0.00    -0.343 N 
HETATM   15  O   UNL     1       8.316  30.550  57.793  1.00  0.00    -0.247 OA
HETATM   16  H   UNL     1       6.065  30.311  59.915  1.00  0.00     0.164 HD
HETATM   17  H   UNL     1       5.369  29.507  57.993  1.00  0.00     0.165 HD
BRANCH  14  18
HETATM   18  C   UNL     1       7.549  31.761  60.222  1.00  0.00     0.124 C 
BRANCH  18  19
HETATM   19  C   UNL     1       7.752  31.296  61.665  1.00  0.00     0.019 C 
BRANCH  19  20
HETATM   20  C   UNL     1       8.599  32.263  62.494  1.00  0.00    -0.003 C 
HETATM   21  C   UNL     1       7.852  32.717  63.739  1.00  0.00     0.005 C 
ENDBRANCH  19  20
ENDBRANCH  18  19
ENDBRANCH  14  18
ENDBRANCH   1  12
BRANCH   4  22
HETATM   22  C   UNL     1       7.933  23.941  55.872  1.00  0.00     0.058 A 
HETATM   23  C   UNL     1       8.009  23.741  54.483  1.00  0.00     0.034 A 
HETATM   24  C   UNL     1       8.121  22.453  53.949  1.00  0.00     0.039 A 
HETATM   25  C   UNL     1       8.163  21.340  54.786  1.00  0.00     0.068 A 
HETATM   26  C   UNL     1       8.139  21.532  56.166  1.00  0.00     0.039 A 
HETATM   27  C   UNL     1       8.031  22.824  56.707  1.00  0.00     0.034 A 
BRANCH  25  28
HETATM   28  O   UNL     1       8.244  20.137  54.144  1.00  0.00    -0.356 OA
HETATM   29  C   UNL     1       8.517  20.177  52.748  1.00  0.00     0.210 C 
ENDBRANCH  25  28
ENDBRANCH   4  22
TORSDOF 6
ENDMDL
MODEL 2
REMARK VINA RESULT:      -8.1      4.485      9.461
REMARK  6 active torsions:
REMARK  status: ('A' for Active; 'I' for Inactive)
REMARK    1  A    between atoms: C_2  and  C_3 
REMARK    2  A    between atoms: C_3  and  C_4 
REMARK    3  A    between atoms: C_4  and  N_5 
REMARK       I    between atoms: N_5  and  C_6 
REMARK       I    between atoms: C_6  and  N_7 
REMARK    4  A    between atoms: N_7  and  C_8 
REMARK    5  A    between atoms: N_11  and  C_12 
REMARK    6  A    between atoms: C_15  and  O_16 
ROOT
HETATM    1  C   UNL     1       5.529  26.033  51.241  1.00  0.00     0.123 C 
HETATM    2  C   UNL     1       5.569  27.091  52.287  1.00  0.00     0.009 A 
HETATM    3  C   UNL     1       6.154  26.934  53.532  1.00  0.00     0.047 A 
HETATM    4  N   UNL     1       6.104  28.174  54.163  1.00  0.00    -0.238 N 
HETATM    5  N   UNL     1       5.477  29.084  53.359  1.00  0.00    -0.179 NA
HETATM    6  C   UNL     1       5.179  28.432  52.240  1.00  0.00     0.150 A 
HETATM    7  C   UNL     1       6.770  25.661  54.019  1.00  0.00     0.069 C 
HETATM    8  C   UNL     1       6.954  24.615  52.872  1.00  0.00    -0.040 C 
HETATM    9  C   UNL     1       7.039  23.208  53.497  1.00  0.00     0.015 C 
HETATM   10  C   UNL     1       8.276  24.883  52.124  1.00  0.00     0.015 C 
HETATM   11  C   UNL     1       5.756  24.645  51.879  1.00  0.00     0.039 C 
ENDROOT
BRANCH   1  12
HETATM   12  N   UNL     1       4.258  26.082  50.549  1.00  0.00    -0.334 N 
HETATM   13  C   UNL     1       4.229  26.381  49.211  1.00  0.00     0.316 C 
HETATM   14  N   UNL     1       2.966  26.248  48.692  1.00  0.00    -0.343 N 
HETATM   15  O   UNL     1       5.209  26.731  48.569  1.00  0.00    -0.247 OA
HETATM   16  H   UNL     1       2.230  26.395  49.367  1.00  0.00     0.164 HD
HETATM   17  H   UNL     1       3.521  25.490  50.896  1.00  0.00     0.165 HD
BRANCH  14  18
HETATM   18  C   UNL     1       2.674  26.676  47.336  1.00  0.00     0.124 C 
BRANCH  18  19
HETATM   19  C   UNL     1       2.354  28.164  47.185  1.00  0.00     0.019 C 
BRANCH  19  20
HETATM   20  C   UNL     1       0.856  28.445  47.051  1.00  0.00    -0.003 C 
HETATM   21  C   UNL     1       0.188  27.433  46.133  1.00  0.00     0.005 C 
ENDBRANCH  19  20
ENDBRANCH  18  19
ENDBRANCH  14  18
ENDBRANCH   1  12
BRANCH   4  22
HETATM   22  C   UNL     1       6.622  28.615  55.423  1.00  0.00     0.058 A 
HETATM   23  C   UNL     1       8.013  28.588  55.623  1.00  0.00     0.034 A 
HETATM   24  C   UNL     1       8.567  28.938  56.859  1.00  0.00     0.039 A 
HETATM   25  C   UNL     1       7.749  29.324  57.919  1.00  0.00     0.068 A 
HETATM   26  C   UNL     1       6.373  29.401  57.716  1.00  0.00     0.039 A 
HETATM   27  C   UNL     1       5.812  29.055  56.474  1.00  0.00     0.034 A 
BRANCH  25  28
HETATM   28  O   UNL     1       8.407  29.612  59.081  1.00  0.00    -0.356 OA
HETATM   29  C   UNL     1       8.040  30.820  59.738  1.00  0.00     0.210 C 
ENDBRANCH  25  28
ENDBRANCH   4  22
TORSDOF 6
ENDMDL
MODEL 3
REMARK VINA RESULT:      -8.1      2.072      8.902
REMARK  6 active torsions:
REMARK  status: ('A' for Active; 'I' for Inactive)
REMARK    1  A    between atoms: C_2  and  C_3 
REMARK    2  A    between atoms: C_3  and  C_4 
REMARK    3  A    between atoms: C_4  and  N_5 
REMARK       I    between atoms: N_5  and  C_6 
REMARK       I    between atoms: C_6  and  N_7 
REMARK    4  A    between atoms: N_7  and  C_8 
REMARK    5  A    between atoms: N_11  and  C_12 
REMARK    6  A    between atoms: C_15  and  O_16 
ROOT
HETATM    1  C   UNL     1       6.318  27.512  55.055  1.00  0.00     0.123 C 
HETATM    2  C   UNL     1       7.032  28.070  56.236  1.00  0.00     0.009 A 
HETATM    3  C   UNL     1       6.769  29.311  56.791  1.00  0.00     0.047 A 
HETATM    4  N   UNL     1       7.543  29.411  57.944  1.00  0.00    -0.238 N 
HETATM    5  N   UNL     1       8.299  28.283  58.101  1.00  0.00    -0.179 NA
HETATM    6  C   UNL     1       7.973  27.487  57.087  1.00  0.00     0.150 A 
HETATM    7  C   UNL     1       5.776  30.286  56.244  1.00  0.00     0.069 C 
HETATM    8  C   UNL     1       4.851  29.643  55.160  1.00  0.00    -0.040 C 
HETATM    9  C   UNL     1       4.281  30.766  54.270  1.00  0.00     0.015 C 
HETATM   10  C   UNL     1       3.665  28.927  55.838  1.00  0.00     0.015 C 
HETATM   11  C   UNL     1       5.638  28.648  54.259  1.00  0.00     0.039 C 
ENDROOT
BRANCH   1  12
HETATM   12  N   UNL     1       7.249  26.783  54.222  1.00  0.00    -0.334 N 
HETATM   13  C   UNL     1       7.000  25.469  53.920  1.00  0.00     0.316 C 
HETATM   14  N   UNL     1       7.907  24.978  53.014  1.00  0.00    -0.343 N 
HETATM   15  O   UNL     1       6.086  24.818  54.407  1.00  0.00    -0.247 OA
HETATM   16  H   UNL     1       8.805  25.437  53.048  1.00  0.00     0.164 HD
HETATM   17  H   UNL     1       7.773  27.312  53.542  1.00  0.00     0.165 HD
BRANCH  14  18
HETATM   18  C   UNL     1       7.932  23.565  52.683  1.00  0.00     0.124 C 
BRANCH  18  19
HETATM   19  C   UNL     1       8.632  22.674  53.711  1.00  0.00     0.019 C 
BRANCH  19  20
HETATM   20  C   UNL     1       7.939  21.325  53.905  1.00  0.00    -0.003 C 
HETATM   21  C   UNL     1       8.288  20.362  52.780  1.00  0.00     0.005 C 
ENDBRANCH  19  20
ENDBRANCH  18  19
ENDBRANCH  14  18
ENDBRANCH   1  12
BRANCH   4  22
HETATM   22  C   UNL     1       7.618  30.430  58.946  1.00  0.00     0.058 A 
HETATM   23  C   UNL     1       8.705  30.417  59.838  1.00  0.00     0.034 A 
HETATM   24  C   UNL     1       8.789  31.344  60.881  1.00  0.00     0.039 A 
HETATM   25  C   UNL     1       7.795  32.305  61.057  1.00  0.00     0.068 A 
HETATM   26  C   UNL     1       6.739  32.358  60.150  1.00  0.00     0.039 A 
HETATM   27  C   UNL     1       6.653  31.431  59.097  1.00  0.00     0.034 A 
BRANCH  25  28
HETATM   28  O   UNL     1       7.975  33.134  62.129  1.00  0.00    -0.356 OA
HETATM   29  C   UNL     1       7.691  32.588  63.412  1.00  0.00     0.210 C 
ENDBRANCH  25  28
ENDBRANCH   4  22
TORSDOF 6
ENDMDL
MODEL 4
REMARK VINA RESULT:      -8.0      4.005      8.363
REMARK  6 active torsions:
REMARK  status: ('A' for Active; 'I' for Inactive)
REMARK    1  A    between atoms: C_2  and  C_3 
REMARK    2  A    between atoms: C_3  and  C_4 
REMARK    3  A    between atoms: C_4  and  N_5 
REMARK       I    between atoms: N_5  and  C_6 
REMARK       I    between atoms: C_6  and  N_7 
REMARK    4  A    between atoms: N_7  and  C_8 
REMARK    5  A    between atoms: N_11  and  C_12 
REMARK    6  A    between atoms: C_15  and  O_16 
ROOT
HETATM    1  C   UNL     1       6.895  25.454  55.301  1.00  0.00     0.123 C 
HETATM    2  C   UNL     1       6.591  25.571  53.849  1.00  0.00     0.009 A 
HETATM    3  C   UNL     1       5.884  26.618  53.283  1.00  0.00     0.047 A 
HETATM    4  N   UNL     1       5.924  26.435  51.903  1.00  0.00    -0.238 N 
HETATM    5  N   UNL     1       6.608  25.291  51.602  1.00  0.00    -0.179 NA
HETATM    6  C   UNL     1       7.014  24.796  52.767  1.00  0.00     0.150 A 
HETATM    7  C   UNL     1       5.275  27.741  54.060  1.00  0.00     0.069 C 
HETATM    8  C   UNL     1       5.772  27.774  55.542  1.00  0.00    -0.040 C 
HETATM    9  C   UNL     1       4.735  28.535  56.392  1.00  0.00     0.015 C 
HETATM   10  C   UNL     1       7.110  28.536  55.631  1.00  0.00     0.015 C 
HETATM   11  C   UNL     1       5.929  26.337  56.120  1.00  0.00     0.039 C 
ENDROOT
BRANCH   1  12
HETATM   12  N   UNL     1       6.799  24.068  55.708  1.00  0.00    -0.334 N 
HETATM   13  C   UNL     1       7.939  23.312  55.808  1.00  0.00     0.316 C 
HETATM   14  N   UNL     1       7.678  22.073  56.336  1.00  0.00    -0.343 N 
HETATM   15  O   UNL     1       9.046  23.699  55.459  1.00  0.00    -0.247 OA
HETATM   16  H   UNL     1       6.740  21.744  56.159  1.00  0.00     0.164 HD
HETATM   17  H   UNL     1       6.036  23.818  56.317  1.00  0.00     0.165 HD
BRANCH  14  18
HETATM   18  C   UNL     1       8.709  21.052  56.372  1.00  0.00     0.124 C 
BRANCH  18  19
HETATM   19  C   UNL     1       8.543  19.931  55.345  1.00  0.00     0.019 C 
BRANCH  19  20
HETATM   20  C   UNL     1       9.007  20.329  53.943  1.00  0.00    -0.003 C 
HETATM   21  C   UNL     1       7.822  20.642  53.042  1.00  0.00     0.005 C 
ENDBRANCH  19  20
ENDBRANCH  18  19
ENDBRANCH  14  18
ENDBRANCH   1  12
BRANCH   4  22
HETATM   22  C   UNL     1       5.432  27.243  50.828  1.00  0.00     0.058 A 
HETATM   23  C   UNL     1       4.781  26.609  49.756  1.00  0.00     0.034 A 
HETATM   24  C   UNL     1       4.347  27.341  48.646  1.00  0.00     0.039 A 
HETATM   25  C   UNL     1       4.550  28.718  48.582  1.00  0.00     0.068 A 
HETATM   26  C   UNL     1       5.150  29.363  49.661  1.00  0.00     0.039 A 
HETATM   27  C   UNL     1       5.583  28.632  50.781  1.00  0.00     0.034 A 
BRANCH  25  28
HETATM   28  O   UNL     1       4.108  29.314  47.435  1.00  0.00    -0.356 OA
HETATM   29  C   UNL     1       2.755  29.068  47.069  1.00  0.00     0.210 C 
ENDBRANCH  25  28
ENDBRANCH   4  22
TORSDOF 6
ENDMDL
MODEL 5
REMARK VINA RESULT:      -8.0      2.097      8.259
REMARK  6 active torsions:
REMARK  status: ('A' for Active; 'I' for Inactive)
REMARK    1  A    between atoms: C_2  and  C_3 
REMARK    2  A    between atoms: C_3  and  C_4 
REMARK    3  A    between atoms: C_4  and  N_5 
REMARK       I    between atoms: N_5  and  C_6 
REMARK       I    between atoms: C_6  and  N_7 
REMARK    4  A    between atoms: N_7  and  C_8 
REMARK    5  A    between atoms: N_11  and  C_12 
REMARK    6  A    between atoms: C_15  and  O_16 
ROOT
HETATM    1  C   UNL     1       5.478  25.625  54.387  1.00  0.00     0.123 C 
HETATM    2  C   UNL     1       6.356  26.144  55.472  1.00  0.00     0.009 A 
HETATM    3  C   UNL     1       6.873  27.427  55.510  1.00  0.00     0.047 A 
HETATM    4  N   UNL     1       7.526  27.566  56.732  1.00  0.00    -0.238 N 
HETATM    5  N   UNL     1       7.455  26.396  57.436  1.00  0.00    -0.179 NA
HETATM    6  C   UNL     1       6.742  25.565  56.683  1.00  0.00     0.150 A 
HETATM    7  C   UNL     1       6.672  28.449  54.436  1.00  0.00     0.069 C 
HETATM    8  C   UNL     1       5.572  28.022  53.410  1.00  0.00    -0.040 C 
HETATM    9  C   UNL     1       5.807  28.783  52.091  1.00  0.00     0.015 C 
HETATM   10  C   UNL     1       4.178  28.412  53.942  1.00  0.00     0.015 C 
HETATM   11  C   UNL     1       5.631  26.493  53.119  1.00  0.00     0.039 C 
ENDROOT
BRANCH   1  12
HETATM   12  N   UNL     1       5.810  24.244  54.111  1.00  0.00    -0.334 N 
HETATM   13  C   UNL     1       7.051  23.932  53.619  1.00  0.00     0.316 C 
HETATM   14  N   UNL     1       7.239  22.575  53.547  1.00  0.00    -0.343 N 
HETATM   15  O   UNL     1       7.880  24.766  53.280  1.00  0.00    -0.247 OA
HETATM   16  H   UNL     1       6.386  22.051  53.425  1.00  0.00     0.164 HD
HETATM   17  H   UNL     1       5.355  23.539  54.669  1.00  0.00     0.165 HD
BRANCH  14  18
HETATM   18  C   UNL     1       8.416  22.024  52.898  1.00  0.00     0.124 C 
BRANCH  18  19
HETATM   19  C   UNL     1       8.888  20.679  53.453  1.00  0.00     0.019 C 
BRANCH  19  20
HETATM   20  C   UNL     1       8.191  20.292  54.758  1.00  0.00    -0.003 C 
HETATM   21  C   UNL     1       9.119  20.474  55.950  1.00  0.00     0.005 C 
ENDBRANCH  19  20
ENDBRANCH  18  19
ENDBRANCH  14  18
ENDBRANCH   1  12
BRANCH   4  22
HETATM   22  C   UNL     1       8.171  28.692  57.337  1.00  0.00     0.058 A 
HETATM   23  C   UNL     1       7.419  29.517  58.191  1.00  0.00     0.034 A 
HETATM   24  C   UNL     1       7.979  30.671  58.749  1.00  0.00     0.039 A 
HETATM   25  C   UNL     1       9.298  31.025  58.471  1.00  0.00     0.068 A 
HETATM   26  C   UNL     1      10.066  30.187  57.665  1.00  0.00     0.039 A 
HETATM   27  C   UNL     1       9.509  29.024  57.106  1.00  0.00     0.034 A 
BRANCH  25  28
HETATM   28  O   UNL     1       9.719  32.188  59.052  1.00  0.00    -0.356 OA
HETATM   29  C   UNL     1       9.335  32.399  60.406  1.00  0.00     0.210 C 
ENDBRANCH  25  28
ENDBRANCH   4  22
TORSDOF 6
ENDMDL
MODEL 6
REMARK VINA RESULT:      -7.9      3.869     11.279
REMARK  6 active torsions:
REMARK  status: ('A' for Active; 'I' for Inactive)
REMARK    1  A    between atoms: C_2  and  C_3 
REMARK    2  A    between atoms: C_3  and  C_4 
REMARK    3  A    between atoms: C_4  and  N_5 
REMARK       I    between atoms: N_5  and  C_6 
REMARK       I    between atoms: C_6  and  N_7 
REMARK    4  A    between atoms: N_7  and  C_8 
REMARK    5  A    between atoms: N_11  and  C_12 
REMARK    6  A    between atoms: C_15  and  O_16 
ROOT
HETATM    1  C   UNL     1       7.229  31.739  59.925  1.00  0.00     0.123 C 
HETATM    2  C   UNL     1       6.460  32.356  61.039  1.00  0.00     0.009 A 
HETATM    3  C   UNL     1       6.841  32.308  62.370  1.00  0.00     0.047 A 
HETATM    4  N   UNL     1       5.944  33.104  63.077  1.00  0.00    -0.238 N 
HETATM    5  N   UNL     1       5.003  33.617  62.229  1.00  0.00    -0.179 NA
HETATM    6  C   UNL     1       5.331  33.178  61.018  1.00  0.00     0.150 A 
HETATM    7  C   UNL     1       8.043  31.576  62.876  1.00  0.00     0.069 C 
HETATM    8  C   UNL     1       8.991  31.122  61.719  1.00  0.00    -0.040 C 
HETATM    9  C   UNL     1       9.849  29.943  62.219  1.00  0.00     0.015 C 
HETATM   10  C   UNL     1       9.943  32.274  61.338  1.00  0.00     0.015 C 
HETATM   11  C   UNL     1       8.183  30.655  60.473  1.00  0.00     0.039 C 
ENDROOT
BRANCH   1  12
HETATM   12  N   UNL     1       6.314  31.177  58.954  1.00  0.00    -0.334 N 
HETATM   13  C   UNL     1       6.810  30.534  57.850  1.00  0.00     0.316 C 
HETATM   14  N   UNL     1       5.811  29.949  57.114  1.00  0.00    -0.343 N 
HETATM   15  O   UNL     1       7.998  30.499  57.558  1.00  0.00    -0.247 OA
HETATM   16  H   UNL     1       4.917  30.409  57.202  1.00  0.00     0.164 HD
HETATM   17  H   UNL     1       5.416  30.869  59.291  1.00  0.00     0.165 HD
BRANCH  14  18
HETATM   18  C   UNL     1       6.094  29.361  55.817  1.00  0.00     0.124 C 
BRANCH  18  19
HETATM   19  C   UNL     1       6.172  27.833  55.805  1.00  0.00     0.019 C 
BRANCH  19  20
HETATM   20  C   UNL     1       7.590  27.304  56.021  1.00  0.00    -0.003 C 
HETATM   21  C   UNL     1       7.799  26.865  57.462  1.00  0.00     0.005 C 
ENDBRANCH  19  20
ENDBRANCH  18  19
ENDBRANCH  14  18
ENDBRANCH   1  12
BRANCH   4  22
HETATM   22  C   UNL     1       5.899  33.479  64.458  1.00  0.00     0.058 A 
HETATM   23  C   UNL     1       4.643  33.636  65.070  1.00  0.00     0.034 A 
HETATM   24  C   UNL     1       4.541  34.072  66.395  1.00  0.00     0.039 A 
HETATM   25  C   UNL     1       5.684  34.358  67.138  1.00  0.00     0.068 A 
HETATM   26  C   UNL     1       6.934  34.158  66.556  1.00  0.00     0.039 A 
HETATM   27  C   UNL     1       7.042  33.715  65.227  1.00  0.00     0.034 A 
BRANCH  25  28
HETATM   28  O   UNL     1       5.451  34.803  68.409  1.00  0.00    -0.356 OA
HETATM   29  C   UNL     1       5.939  33.988  69.469  1.00  0.00     0.210 C 
ENDBRANCH  25  28
ENDBRANCH   4  22
TORSDOF 6
ENDMDL
MODEL 7
REMARK VINA RESULT:      -7.9      3.004      8.323
REMARK  6 active torsions:
REMARK  status: ('A' for Active; 'I' for Inactive)
REMARK    1  A    between atoms: C_2  and  C_3 
REMARK    2  A    between atoms: C_3  and  C_4 
REMARK    3  A    between atoms: C_4  and  N_5 
REMARK       I    between atoms: N_5  and  C_6 
REMARK       I    between atoms: C_6  and  N_7 
REMARK    4  A    between atoms: N_7  and  C_8 
REMARK    5  A    between atoms: N_11  and  C_12 
REMARK    6  A    between atoms: C_15  and  O_16 
ROOT
HETATM    1  C   UNL     1       7.999  25.929  56.659  1.00  0.00     0.123 C 
HETATM    2  C   UNL     1       7.098  26.270  55.524  1.00  0.00     0.009 A 
HETATM    3  C   UNL     1       6.583  27.533  55.289  1.00  0.00     0.047 A 
HETATM    4  N   UNL     1       5.903  27.475  54.075  1.00  0.00    -0.238 N 
HETATM    5  N   UNL     1       5.955  26.206  53.570  1.00  0.00    -0.179 NA
HETATM    6  C   UNL     1       6.682  25.504  54.432  1.00  0.00     0.150 A 
HETATM    7  C   UNL     1       6.812  28.715  56.177  1.00  0.00     0.069 C 
HETATM    8  C   UNL     1       7.933  28.453  57.234  1.00  0.00    -0.040 C 
HETATM    9  C   UNL     1       7.731  29.421  58.417  1.00  0.00     0.015 C 
HETATM   10  C   UNL     1       9.316  28.742  56.616  1.00  0.00     0.015 C 
HETATM   11  C   UNL     1       7.877  26.993  57.772  1.00  0.00     0.039 C 
ENDROOT
BRANCH   1  12
HETATM   12  N   UNL     1       7.670  24.613  57.164  1.00  0.00    -0.334 N 
HETATM   13  C   UNL     1       8.384  23.526  56.732  1.00  0.00     0.316 C 
HETATM   14  N   UNL     1       8.032  22.388  57.413  1.00  0.00    -0.343 N 
HETATM   15  O   UNL     1       9.223  23.570  55.843  1.00  0.00    -0.247 OA
HETATM   16  H   UNL     1       7.084  22.397  57.760  1.00  0.00     0.164 HD
HETATM   17  H   UNL     1       7.281  24.559  58.092  1.00  0.00     0.165 HD
BRANCH  14  18
HETATM   18  C   UNL     1       8.541  21.092  57.002  1.00  0.00     0.124 C 
BRANCH  18  19
HETATM   19  C   UNL     1       7.773  20.431  55.855  1.00  0.00     0.019 C 
BRANCH  19  20
HETATM   20  C   UNL     1       8.627  20.219  54.605  1.00  0.00    -0.003 C 
HETATM   21  C   UNL     1       7.886  20.660  53.353  1.00  0.00     0.005 C 
ENDBRANCH  19  20
ENDBRANCH  18  19
ENDBRANCH  14  18
ENDBRANCH   1  12
BRANCH   4  22
HETATM   22  C   UNL     1       5.248  28.491  53.309  1.00  0.00     0.058 A 
HETATM   23  C   UNL     1       4.137  29.145  53.872  1.00  0.00     0.034 A 
HETATM   24  C   UNL     1       3.416  30.092  53.139  1.00  0.00     0.039 A 
HETATM   25  C   UNL     1       3.785  30.411  51.834  1.00  0.00     0.068 A 
HETATM   26  C   UNL     1       4.913  29.805  51.285  1.00  0.00     0.039 A 
HETATM   27  C   UNL     1       5.644  28.856  52.019  1.00  0.00     0.034 A 
BRANCH  25  28
HETATM   28  O   UNL     1       2.984  31.328  51.214  1.00  0.00    -0.356 OA
HETATM   29  C   UNL     1       3.508  31.942  50.042  1.00  0.00     0.210 C 
ENDBRANCH  25  28
ENDBRANCH   4  22
TORSDOF 6
ENDMDL
MODEL 8
REMARK VINA RESULT:      -7.8      2.801      9.403
REMARK  6 active torsions:
REMARK  status: ('A' for Active; 'I' for Inactive)
REMARK    1  A    between atoms: C_2  and  C_3 
REMARK    2  A    between atoms: C_3  and  C_4 
REMARK    3  A    between atoms: C_4  and  N_5 
REMARK       I    between atoms: N_5  and  C_6 
REMARK       I    between atoms: C_6  and  N_7 
REMARK    4  A    between atoms: N_7  and  C_8 
REMARK    5  A    between atoms: N_11  and  C_12 
REMARK    6  A    between atoms: C_15  and  O_16 
ROOT
HETATM    1  C   UNL     1       5.878  29.770  56.233  1.00  0.00     0.123 C 
HETATM    2  C   UNL     1       6.696  30.046  57.445  1.00  0.00     0.009 A 
HETATM    3  C   UNL     1       6.455  31.084  58.329  1.00  0.00     0.047 A 
HETATM    4  N   UNL     1       7.344  30.929  59.389  1.00  0.00    -0.238 N 
HETATM    5  N   UNL     1       8.149  29.846  59.171  1.00  0.00    -0.179 NA
HETATM    6  C   UNL     1       7.742  29.320  58.020  1.00  0.00     0.150 A 
HETATM    7  C   UNL     1       5.377  32.106  58.154  1.00  0.00     0.069 C 
HETATM    8  C   UNL     1       4.362  31.712  57.033  1.00  0.00    -0.040 C 
HETATM    9  C   UNL     1       3.665  32.990  56.527  1.00  0.00     0.015 C 
HETATM   10  C   UNL     1       3.280  30.776  57.609  1.00  0.00     0.015 C 
HETATM   11  C   UNL     1       5.080  31.030  55.831  1.00  0.00     0.039 C 
ENDROOT
BRANCH   1  12
HETATM   12  N   UNL     1       6.738  29.336  55.153  1.00  0.00    -0.334 N 
HETATM   13  C   UNL     1       6.847  27.999  54.872  1.00  0.00     0.316 C 
HETATM   14  N   UNL     1       7.590  27.780  53.739  1.00  0.00    -0.343 N 
HETATM   15  O   UNL     1       6.350  27.115  55.556  1.00  0.00    -0.247 OA
HETATM   16  H   UNL     1       8.271  28.501  53.552  1.00  0.00     0.164 HD
HETATM   17  H   UNL     1       6.867  29.972  54.382  1.00  0.00     0.165 HD
BRANCH  14  18
HETATM   18  C   UNL     1       7.973  26.434  53.353  1.00  0.00     0.124 C 
BRANCH  18  19
HETATM   19  C   UNL     1       7.072  25.783  52.303  1.00  0.00     0.019 C 
BRANCH  19  20
HETATM   20  C   UNL     1       7.620  24.453  51.784  1.00  0.00    -0.003 C 
HETATM   21  C   UNL     1       7.704  23.422  52.899  1.00  0.00     0.005 C 
ENDBRANCH  19  20
ENDBRANCH  18  19
ENDBRANCH  14  18
ENDBRANCH   1  12
BRANCH   4  22
HETATM   22  C   UNL     1       7.494  31.658  60.612  1.00  0.00     0.058 A 
HETATM   23  C   UNL     1       8.435  31.206  61.552  1.00  0.00     0.034 A 
HETATM   24  C   UNL     1       8.569  31.837  62.793  1.00  0.00     0.039 A 
HETATM   25  C   UNL     1       7.772  32.931  63.122  1.00  0.00     0.068 A 
HETATM   26  C   UNL     1       6.871  33.418  62.178  1.00  0.00     0.039 A 
HETATM   27  C   UNL     1       6.736  32.790  60.927  1.00  0.00     0.034 A 
BRANCH  25  28
HETATM   28  O   UNL     1       7.978  33.441  64.373  1.00  0.00    -0.356 OA
HETATM   29  C   UNL     1       6.863  33.427  65.258  1.00  0.00     0.210 C 
ENDBRANCH  25  28
ENDBRANCH   4  22
TORSDOF 6
ENDMDL
MODEL 9
REMARK VINA RESULT:      -7.7      3.317     11.127
REMARK  6 active torsions:
REMARK  status: ('A' for Active; 'I' for Inactive)
REMARK    1  A    between atoms: C_2  and  C_3 
REMARK    2  A    between atoms: C_3  and  C_4 
REMARK    3  A    between atoms: C_4  and  N_5 
REMARK       I    between atoms: N_5  and  C_6 
REMARK       I    between atoms: C_6  and  N_7 
REMARK    4  A    between atoms: N_7  and  C_8 
REMARK    5  A    between atoms: N_11  and  C_12 
REMARK    6  A    between atoms: C_15  and  O_16 
ROOT
HETATM    1  C   UNL     1       7.421  31.078  58.880  1.00  0.00     0.123 C 
HETATM    2  C   UNL     1       6.487  31.990  59.594  1.00  0.00     0.009 A 
HETATM    3  C   UNL     1       6.636  32.383  60.913  1.00  0.00     0.047 A 
HETATM    4  N   UNL     1       5.647  33.330  61.168  1.00  0.00    -0.238 N 
HETATM    5  N   UNL     1       4.872  33.509  60.057  1.00  0.00    -0.179 NA
HETATM    6  C   UNL     1       5.392  32.719  59.123  1.00  0.00     0.150 A 
HETATM    7  C   UNL     1       7.722  31.897  61.819  1.00  0.00     0.069 C 
HETATM    8  C   UNL     1       8.844  31.134  61.043  1.00  0.00    -0.040 C 
HETATM    9  C   UNL     1       9.583  30.209  62.030  1.00  0.00     0.015 C 
HETATM   10  C   UNL     1       9.867  32.138  60.476  1.00  0.00     0.015 C 
HETATM   11  C   UNL     1       8.250  30.263  59.897  1.00  0.00     0.039 C 
ENDROOT
BRANCH   1  12
HETATM   12  N   UNL     1       6.673  30.203  58.003  1.00  0.00    -0.334 N 
HETATM   13  C   UNL     1       7.313  29.582  56.962  1.00  0.00     0.316 C 
HETATM   14  N   UNL     1       6.490  28.689  56.324  1.00  0.00    -0.343 N 
HETATM   15  O   UNL     1       8.472  29.809  56.641  1.00  0.00    -0.247 OA
HETATM   16  H   UNL     1       5.510  28.921  56.387  1.00  0.00     0.164 HD
HETATM   17  H   UNL     1       5.881  29.722  58.398  1.00  0.00     0.165 HD
BRANCH  14  18
HETATM   18  C   UNL     1       6.908  28.046  55.091  1.00  0.00     0.124 C 
BRANCH  18  19
HETATM   19  C   UNL     1       7.335  26.585  55.238  1.00  0.00     0.019 C 
BRANCH  19  20
HETATM   20  C   UNL     1       7.250  25.801  53.928  1.00  0.00    -0.003 C 
HETATM   21  C   UNL     1       7.311  24.302  54.181  1.00  0.00     0.005 C 
ENDBRANCH  19  20
ENDBRANCH  18  19
ENDBRANCH  14  18
ENDBRANCH   1  12
BRANCH   4  22
HETATM   22  C   UNL     1       5.375  34.123  62.329  1.00  0.00     0.058 A 
HETATM   23  C   UNL     1       4.669  33.537  63.393  1.00  0.00     0.034 A 
HETATM   24  C   UNL     1       4.313  34.288  64.518  1.00  0.00     0.039 A 
HETATM   25  C   UNL     1       4.654  35.636  64.608  1.00  0.00     0.068 A 
HETATM   26  C   UNL     1       5.397  36.214  63.580  1.00  0.00     0.039 A 
HETATM   27  C   UNL     1       5.761  35.462  62.450  1.00  0.00     0.034 A 
BRANCH  25  28
HETATM   28  O   UNL     1       4.225  36.266  65.741  1.00  0.00    -0.356 OA
HETATM   29  C   UNL     1       3.370  35.521  66.600  1.00  0.00     0.210 C 
ENDBRANCH  25  28
ENDBRANCH   4  22
TORSDOF 6
ENDMDL
MODEL 10
REMARK VINA RESULT:      -7.7      3.598      6.656
REMARK  6 active torsions:
REMARK  status: ('A' for Active; 'I' for Inactive)
REMARK    1  A    between atoms: C_2  and  C_3 
REMARK    2  A    between atoms: C_3  and  C_4 
REMARK    3  A    between atoms: C_4  and  N_5 
REMARK       I    between atoms: N_5  and  C_6 
REMARK       I    between atoms: C_6  and  N_7 
REMARK    4  A    between atoms: N_7  and  C_8 
REMARK    5  A    between atoms: N_11  and  C_12 
REMARK    6  A    between atoms: C_15  and  O_16 
ROOT
HETATM    1  C   UNL     1       5.650  28.274  53.803  1.00  0.00     0.123 C 
HETATM    2  C   UNL     1       6.046  26.916  53.340  1.00  0.00     0.009 A 
HETATM    3  C   UNL     1       6.683  25.977  54.133  1.00  0.00     0.047 A 
HETATM    4  N   UNL     1       6.762  24.804  53.387  1.00  0.00    -0.238 N 
HETATM    5  N   UNL     1       6.221  24.999  52.147  1.00  0.00    -0.179 NA
HETATM    6  C   UNL     1       5.784  26.254  52.138  1.00  0.00     0.150 A 
HETATM    7  C   UNL     1       7.117  26.220  55.544  1.00  0.00     0.069 C 
HETATM    8  C   UNL     1       6.512  27.536  56.131  1.00  0.00    -0.040 C 
HETATM    9  C   UNL     1       7.401  28.008  57.299  1.00  0.00     0.015 C 
HETATM   10  C   UNL     1       5.101  27.263  56.689  1.00  0.00     0.015 C 
HETATM   11  C   UNL     1       6.460  28.665  55.060  1.00  0.00     0.039 C 
ENDROOT
BRANCH   1  12
HETATM   12  N   UNL     1       5.857  29.232  52.738  1.00  0.00    -0.334 N 
HETATM   13  C   UNL     1       4.777  29.711  52.041  1.00  0.00     0.316 C 
HETATM   14  N   UNL     1       5.141  30.705  51.168  1.00  0.00    -0.343 N 
HETATM   15  O   UNL     1       3.636  29.293  52.180  1.00  0.00    -0.247 OA
HETATM   16  H   UNL     1       6.094  30.634  50.844  1.00  0.00     0.164 HD
HETATM   17  H   UNL     1       6.653  29.845  52.816  1.00  0.00     0.165 HD
BRANCH  14  18
HETATM   18  C   UNL     1       4.186  31.235  50.212  1.00  0.00     0.124 C 
BRANCH  18  19
HETATM   19  C   UNL     1       4.410  30.793  48.764  1.00  0.00     0.019 C 
BRANCH  19  20
HETATM   20  C   UNL     1       3.891  29.383  48.482  1.00  0.00    -0.003 C 
HETATM   21  C   UNL     1       4.881  28.592  47.640  1.00  0.00     0.005 C 
ENDBRANCH  19  20
ENDBRANCH  18  19
ENDBRANCH  14  18
ENDBRANCH   1  12
BRANCH   4  22
HETATM   22  C   UNL     1       7.247  23.500  53.726  1.00  0.00     0.058 A 
HETATM   23  C   UNL     1       7.254  23.116  55.078  1.00  0.00     0.034 A 
HETATM   24  C   UNL     1       7.786  21.883  55.471  1.00  0.00     0.039 A 
HETATM   25  C   UNL     1       8.317  21.007  54.527  1.00  0.00     0.068 A 
HETATM   26  C   UNL     1       8.269  21.357  53.179  1.00  0.00     0.039 A 
HETATM   27  C   UNL     1       7.732  22.592  52.779  1.00  0.00     0.034 A 
BRANCH  25  28
HETATM   28  O   UNL     1       8.831  19.849  55.038  1.00  0.00    -0.356 OA
HETATM   29  C   UNL     1       9.573  19.961  56.248  1.00  0.00     0.210 C 
ENDBRANCH  25  28
ENDBRANCH   4  22
TORSDOF 6
ENDMDL
