MODEL 1
REMARK VINA RESULT:     -11.2      0.000      0.000
REMARK  7 active torsions:
REMARK  status: ('A' for Active; 'I' for Inactive)
REMARK    1  A    between atoms: O_2  and  C_3 
REMARK    2  A    between atoms: C_5  and  C_15 
REMARK    3  A    between atoms: C_8  and  C_9 
REMARK       I    between atoms: C_15  and  N_17 
REMARK    4  A    between atoms: N_17  and  C_18 
REMARK    5  A    between atoms: C_18  and  C_19 
REMARK    6  A    between atoms: C_23  and  C_25 
REMARK       I    between atoms: C_25  and  N_27 
REMARK    7  A    between atoms: N_27  and  C_28 
ROOT
HETATM    1  C   UNL     1       7.420  29.673  58.376  1.00  0.00    -0.040 A 
HETATM    2  C   UNL     1       6.452  30.544  57.852  1.00  0.00     0.009 A 
HETATM    3  C   UNL     1       5.569  30.107  56.867  1.00  0.00     0.002 A 
HETATM    4  C   UNL     1       5.647  28.799  56.391  1.00  0.00     0.017 A 
HETATM    5  C   UNL     1       6.616  27.917  56.887  1.00  0.00     0.033 A 
HETATM    6  C   UNL     1       7.498  28.359  57.883  1.00  0.00     0.026 A 
ENDROOT
BRANCH   1   7
HETATM    7  C   UNL     1       8.372  30.142  59.447  1.00  0.00     0.161 C 
BRANCH   7   8
HETATM    8  N   UNL     1       7.681  30.872  60.484  1.00  0.00    -0.353 N 
HETATM    9  C   UNL     1       8.276  31.140  61.697  1.00  0.00     0.252 C 
HETATM   10  O   UNL     1       9.412  30.779  61.989  1.00  0.00    -0.268 OA
HETATM   11  H   UNL     1       6.862  31.395  60.211  1.00  0.00     0.163 HD
BRANCH   9  12
HETATM   12  C   UNL     1       7.469  31.943  62.662  1.00  0.00     0.034 A 
HETATM   13  C   UNL     1       6.073  31.947  62.525  1.00  0.00     0.054 A 
HETATM   14  C   UNL     1       5.267  32.690  63.401  1.00  0.00     0.080 A 
HETATM   15  C   UNL     1       5.871  33.450  64.427  1.00  0.00     0.010 A 
HETATM   16  C   UNL     1       7.273  33.453  64.541  1.00  0.00     0.016 A 
HETATM   17  C   UNL     1       8.067  32.710  63.665  1.00  0.00     0.018 A 
BRANCH  14  18
HETATM   18  O   UNL     1       3.897  32.721  63.332  1.00  0.00    -0.355 OA
HETATM   19  C   UNL     1       3.295  33.354  62.210  1.00  0.00     0.210 C 
ENDBRANCH  14  18
BRANCH  15  20
HETATM   20  C   UNL     1       5.089  34.253  65.358  1.00  0.00     0.013 A 
HETATM   21  C   UNL     1       4.539  35.551  65.234  1.00  0.00     0.152 A 
HETATM   22  N   UNL     1       3.887  35.945  66.333  1.00  0.00    -0.187 NA
HETATM   23  N   UNL     1       4.000  34.893  67.157  1.00  0.00    -0.289 N 
HETATM   24  H   UNL     1       3.561  34.949  68.070  1.00  0.00     0.188 HD
HETATM   25  C   UNL     1       4.716  33.858  66.626  1.00  0.00     0.123 A 
ENDBRANCH  15  20
ENDBRANCH   9  12
ENDBRANCH   7   8
ENDBRANCH   1   7
BRANCH   5  26
HETATM   26  C   UNL     1       6.629  26.518  56.357  1.00  0.00     0.257 C 
HETATM   27  O   UNL     1       5.551  26.005  56.081  1.00  0.00    -0.267 OA
HETATM   28  N   UNL     1       7.874  25.949  56.211  1.00  0.00    -0.301 N 
HETATM   29  H   UNL     1       8.720  26.472  56.366  1.00  0.00     0.171 HD
BRANCH  28  30
HETATM   30  C   UNL     1       8.036  24.654  55.799  1.00  0.00     0.174 A 
HETATM   31  N   UNL     1       7.990  24.149  54.591  1.00  0.00    -0.228 NA
HETATM   32  C   UNL     1       8.192  22.790  54.668  1.00  0.00     0.054 A 
HETATM   33  C   UNL     1       8.227  21.917  53.463  1.00  0.00     0.090 C 
HETATM   34  C   UNL     1       8.391  22.289  55.937  1.00  0.00     0.039 A 
HETATM   35  C   UNL     1       8.154  20.431  53.887  1.00  0.00     0.276 C 
HETATM   36  N   UNL     1       9.018  20.102  55.045  1.00  0.00     0.088 N 
HETATM   37  C   UNL     1       8.598  20.849  56.252  1.00  0.00     0.317 C 
HETATM   38  H   UNL     1       9.973  20.385  54.821  1.00  0.00     0.316 HD
HETATM   39  S   UNL     1       8.322  23.548  57.080  1.00  0.00    -0.053 SA
ENDBRANCH  28  30
ENDBRANCH   5  26
TORSDOF 7
ENDMDL
MODEL 2
REMARK VINA RESULT:     -10.4      2.757     12.477
REMARK  7 active torsions:
REMARK  status: ('A' for Active; 'I' for Inactive)
REMARK    1  A    between atoms: O_2  and  C_3 
REMARK    2  A    between atoms: C_5  and  C_15 
REMARK    3  A    between atoms: C_8  and  C_9 
REMARK       I    between atoms: C_15  and  N_17 
REMARK    4  A    between atoms: N_17  and  C_18 
REMARK    5  A    between atoms: C_18  and  C_19 
REMARK    6  A    between atoms: C_23  and  C_25 
REMARK       I    between atoms: C_25  and  N_27 
REMARK    7  A    between atoms: N_27  and  C_28 
ROOT
HETATM    1  C   UNL     1       8.188  29.870  56.975  1.00  0.00    -0.040 A 
HETATM    2  C   UNL     1       9.520  29.733  56.556  1.00  0.00     0.009 A 
HETATM    3  C   UNL     1      10.550  30.343  57.270  1.00  0.00     0.002 A 
HETATM    4  C   UNL     1      10.260  31.100  58.404  1.00  0.00     0.017 A 
HETATM    5  C   UNL     1       8.936  31.264  58.831  1.00  0.00     0.033 A 
HETATM    6  C   UNL     1       7.903  30.643  58.114  1.00  0.00     0.026 A 
ENDROOT
BRANCH   1   7
HETATM    7  C   UNL     1       7.073  29.206  56.208  1.00  0.00     0.161 C 
BRANCH   7   8
HETATM    8  N   UNL     1       7.402  27.839  55.876  1.00  0.00    -0.353 N 
HETATM    9  C   UNL     1       7.552  26.875  56.849  1.00  0.00     0.252 C 
HETATM   10  O   UNL     1       7.429  27.099  58.049  1.00  0.00    -0.268 OA
HETATM   11  H   UNL     1       7.270  27.554  54.916  1.00  0.00     0.163 HD
BRANCH   9  12
HETATM   12  C   UNL     1       7.846  25.494  56.366  1.00  0.00     0.034 A 
HETATM   13  C   UNL     1       7.602  25.190  55.018  1.00  0.00     0.054 A 
HETATM   14  C   UNL     1       7.856  23.906  54.515  1.00  0.00     0.080 A 
HETATM   15  C   UNL     1       8.354  22.905  55.378  1.00  0.00     0.010 A 
HETATM   16  C   UNL     1       8.575  23.217  56.731  1.00  0.00     0.016 A 
HETATM   17  C   UNL     1       8.321  24.499  57.224  1.00  0.00     0.018 A 
BRANCH  14  18
HETATM   18  O   UNL     1       7.656  23.551  53.204  1.00  0.00    -0.355 OA
HETATM   19  C   UNL     1       7.762  24.563  52.211  1.00  0.00     0.210 C 
ENDBRANCH  14  18
BRANCH  15  20
HETATM   20  C   UNL     1       8.623  21.548  54.917  1.00  0.00     0.013 A 
HETATM   21  C   UNL     1       8.733  21.014  53.612  1.00  0.00     0.152 A 
HETATM   22  N   UNL     1       8.980  19.700  53.609  1.00  0.00    -0.187 NA
HETATM   23  N   UNL     1       9.050  19.392  54.912  1.00  0.00    -0.289 N 
HETATM   24  H   UNL     1       9.249  18.431  55.168  1.00  0.00     0.188 HD
HETATM   25  C   UNL     1       8.835  20.460  55.737  1.00  0.00     0.123 A 
ENDBRANCH  15  20
ENDBRANCH   9  12
ENDBRANCH   7   8
ENDBRANCH   1   7
BRANCH   5  26
HETATM   26  C   UNL     1       8.692  32.062  60.072  1.00  0.00     0.257 C 
HETATM   27  O   UNL     1       9.623  32.726  60.512  1.00  0.00    -0.267 OA
HETATM   28  N   UNL     1       7.418  31.984  60.589  1.00  0.00    -0.301 N 
HETATM   29  H   UNL     1       6.679  31.494  60.112  1.00  0.00     0.171 HD
BRANCH  28  30
HETATM   30  C   UNL     1       7.069  32.609  61.755  1.00  0.00     0.174 A 
HETATM   31  N   UNL     1       7.587  32.496  62.953  1.00  0.00    -0.228 NA
HETATM   32  C   UNL     1       6.892  33.307  63.819  1.00  0.00     0.054 A 
HETATM   33  C   UNL     1       7.248  33.432  65.259  1.00  0.00     0.090 C 
HETATM   34  C   UNL     1       5.857  34.026  63.259  1.00  0.00     0.039 A 
HETATM   35  C   UNL     1       6.112  34.154  66.022  1.00  0.00     0.276 C 
HETATM   36  N   UNL     1       5.573  35.334  65.304  1.00  0.00     0.088 N 
HETATM   37  C   UNL     1       4.958  34.939  64.018  1.00  0.00     0.317 C 
HETATM   38  H   UNL     1       6.350  35.964  65.097  1.00  0.00     0.316 HD
HETATM   39  S   UNL     1       5.737  33.681  61.597  1.00  0.00    -0.053 SA
ENDBRANCH  28  30
ENDBRANCH   5  26
TORSDOF 7
ENDMDL
MODEL 3
REMARK VINA RESULT:     -10.3      2.694     12.737
REMARK  7 active torsions:
REMARK  status: ('A' for Active; 'I' for Inactive)
REMARK    1  A    between atoms: O_2  and  C_3 
REMARK    2  A    between atoms: C_5  and  C_15 
REMARK    3  A    between atoms: C_8  and  C_9 
REMARK       I    between atoms: C_15  and  N_17 
REMARK    4  A    between atoms: N_17  and  C_18 
REMARK    5  A    between atoms: C_18  and  C_19 
REMARK    6  A    between atoms: C_23  and  C_25 
REMARK       I    between atoms: C_25  and  N_27 
REMARK    7  A    between atoms: N_27  and  C_28 
ROOT
HETATM    1  C   UNL     1       7.396  29.777  57.202  1.00  0.00    -0.040 A 
HETATM    2  C   UNL     1       8.741  29.467  56.948  1.00  0.00     0.009 A 
HETATM    3  C   UNL     1       9.751  29.998  57.748  1.00  0.00     0.002 A 
HETATM    4  C   UNL     1       9.428  30.847  58.805  1.00  0.00     0.017 A 
HETATM    5  C   UNL     1       8.094  31.184  59.068  1.00  0.00     0.033 A 
HETATM    6  C   UNL     1       7.081  30.642  58.264  1.00  0.00     0.026 A 
ENDROOT
BRANCH   1   7
HETATM    7  C   UNL     1       6.302  29.199  56.341  1.00  0.00     0.161 C 
BRANCH   7   8
HETATM    8  N   UNL     1       6.630  27.864  55.898  1.00  0.00    -0.353 N 
HETATM    9  C   UNL     1       6.785  27.564  54.562  1.00  0.00     0.252 C 
HETATM   10  O   UNL     1       6.651  28.388  53.663  1.00  0.00    -0.268 OA
HETATM   11  H   UNL     1       6.989  27.223  56.591  1.00  0.00     0.163 HD
BRANCH   9  12
HETATM   12  C   UNL     1       7.169  26.157  54.245  1.00  0.00     0.034 A 
HETATM   13  C   UNL     1       7.104  25.199  55.267  1.00  0.00     0.054 A 
HETATM   14  C   UNL     1       7.460  23.864  55.023  1.00  0.00     0.080 A 
HETATM   15  C   UNL     1       7.898  23.484  53.735  1.00  0.00     0.010 A 
HETATM   16  C   UNL     1       7.977  24.458  52.725  1.00  0.00     0.016 A 
HETATM   17  C   UNL     1       7.620  25.785  52.975  1.00  0.00     0.018 A 
BRANCH  14  18
HETATM   18  O   UNL     1       7.400  22.876  55.975  1.00  0.00    -0.355 OA
HETATM   19  C   UNL     1       8.358  22.896  57.024  1.00  0.00     0.210 C 
ENDBRANCH  14  18
BRANCH  15  20
HETATM   20  C   UNL     1       8.295  22.116  53.425  1.00  0.00     0.013 A 
HETATM   21  C   UNL     1       7.614  21.081  52.742  1.00  0.00     0.152 A 
HETATM   22  N   UNL     1       8.324  19.951  52.673  1.00  0.00    -0.187 NA
HETATM   23  N   UNL     1       9.470  20.263  53.296  1.00  0.00    -0.289 N 
HETATM   24  H   UNL     1      10.191  19.552  53.359  1.00  0.00     0.188 HD
HETATM   25  C   UNL     1       9.501  21.543  53.771  1.00  0.00     0.123 A 
ENDBRANCH  15  20
ENDBRANCH   9  12
ENDBRANCH   7   8
ENDBRANCH   1   7
BRANCH   5  26
HETATM   26  C   UNL     1       7.811  32.075  60.235  1.00  0.00     0.257 C 
HETATM   27  O   UNL     1       8.368  33.166  60.265  1.00  0.00    -0.267 OA
HETATM   28  N   UNL     1       6.922  31.578  61.162  1.00  0.00    -0.301 N 
HETATM   29  H   UNL     1       6.429  30.712  61.015  1.00  0.00     0.171 HD
BRANCH  28  30
HETATM   30  C   UNL     1       6.618  32.254  62.312  1.00  0.00     0.174 A 
HETATM   31  N   UNL     1       7.397  32.616  63.300  1.00  0.00    -0.228 NA
HETATM   32  C   UNL     1       6.641  33.259  64.252  1.00  0.00     0.054 A 
HETATM   33  C   UNL     1       7.231  33.823  65.497  1.00  0.00     0.090 C 
HETATM   34  C   UNL     1       5.297  33.375  63.966  1.00  0.00     0.039 A 
HETATM   35  C   UNL     1       6.107  34.192  66.494  1.00  0.00     0.276 C 
HETATM   36  N   UNL     1       4.957  34.880  65.861  1.00  0.00     0.088 N 
HETATM   37  C   UNL     1       4.294  34.006  64.868  1.00  0.00     0.317 C 
HETATM   38  H   UNL     1       5.308  35.701  65.368  1.00  0.00     0.316 HD
HETATM   39  S   UNL     1       4.956  32.657  62.461  1.00  0.00    -0.053 SA
ENDBRANCH  28  30
ENDBRANCH   5  26
TORSDOF 7
ENDMDL
MODEL 4
REMARK VINA RESULT:     -10.1      2.800     12.534
REMARK  7 active torsions:
REMARK  status: ('A' for Active; 'I' for Inactive)
REMARK    1  A    between atoms: O_2  and  C_3 
REMARK    2  A    between atoms: C_5  and  C_15 
REMARK    3  A    between atoms: C_8  and  C_9 
REMARK       I    between atoms: C_15  and  N_17 
REMARK    4  A    between atoms: N_17  and  C_18 
REMARK    5  A    between atoms: C_18  and  C_19 
REMARK    6  A    between atoms: C_23  and  C_25 
REMARK       I    between atoms: C_25  and  N_27 
REMARK    7  A    between atoms: N_27  and  C_28 
ROOT
HETATM    1  C   UNL     1       7.899  30.851  58.647  1.00  0.00    -0.040 A 
HETATM    2  C   UNL     1       9.242  31.215  58.473  1.00  0.00     0.009 A 
HETATM    3  C   UNL     1       9.966  31.773  59.525  1.00  0.00     0.002 A 
HETATM    4  C   UNL     1       9.352  31.979  60.760  1.00  0.00     0.017 A 
HETATM    5  C   UNL     1       8.007  31.639  60.953  1.00  0.00     0.033 A 
HETATM    6  C   UNL     1       7.285  31.071  59.893  1.00  0.00     0.026 A 
ENDROOT
BRANCH   1   7
HETATM    7  C   UNL     1       7.117  30.241  57.511  1.00  0.00     0.161 C 
BRANCH   7   8
HETATM    8  N   UNL     1       7.492  28.863  57.294  1.00  0.00    -0.353 N 
HETATM    9  C   UNL     1       6.550  27.889  57.043  1.00  0.00     0.252 C 
HETATM   10  O   UNL     1       5.344  28.110  56.997  1.00  0.00    -0.268 OA
HETATM   11  H   UNL     1       8.461  28.678  57.077  1.00  0.00     0.163 HD
BRANCH   9  12
HETATM   12  C   UNL     1       7.076  26.516  56.791  1.00  0.00     0.034 A 
HETATM   13  C   UNL     1       6.541  25.780  55.724  1.00  0.00     0.054 A 
HETATM   14  C   UNL     1       6.996  24.482  55.447  1.00  0.00     0.080 A 
HETATM   15  C   UNL     1       7.998  23.907  56.259  1.00  0.00     0.010 A 
HETATM   16  C   UNL     1       8.512  24.649  57.338  1.00  0.00     0.016 A 
HETATM   17  C   UNL     1       8.054  25.940  57.606  1.00  0.00     0.018 A 
BRANCH  14  18
HETATM   18  O   UNL     1       6.527  23.718  54.407  1.00  0.00    -0.355 OA
HETATM   19  C   UNL     1       6.199  24.373  53.188  1.00  0.00     0.210 C 
ENDBRANCH  14  18
BRANCH  15  20
HETATM   20  C   UNL     1       8.501  22.558  56.031  1.00  0.00     0.013 A 
HETATM   21  C   UNL     1       8.313  21.359  56.757  1.00  0.00     0.152 A 
HETATM   22  N   UNL     1       8.960  20.320  56.220  1.00  0.00    -0.187 NA
HETATM   23  N   UNL     1       9.549  20.846  55.136  1.00  0.00    -0.289 N 
HETATM   24  H   UNL     1      10.098  20.233  54.543  1.00  0.00     0.188 HD
HETATM   25  C   UNL     1       9.313  22.182  54.981  1.00  0.00     0.123 A 
ENDBRANCH  15  20
ENDBRANCH   9  12
ENDBRANCH   7   8
ENDBRANCH   1   7
BRANCH   5  26
HETATM   26  C   UNL     1       7.415  31.856  62.309  1.00  0.00     0.257 C 
HETATM   27  O   UNL     1       7.068  30.866  62.943  1.00  0.00    -0.267 OA
HETATM   28  N   UNL     1       7.340  33.168  62.723  1.00  0.00    -0.301 N 
HETATM   29  H   UNL     1       7.739  33.919  62.184  1.00  0.00     0.171 HD
BRANCH  28  30
HETATM   30  C   UNL     1       6.764  33.521  63.912  1.00  0.00     0.174 A 
HETATM   31  N   UNL     1       7.307  33.663  65.096  1.00  0.00    -0.228 NA
HETATM   32  C   UNL     1       6.329  34.011  65.997  1.00  0.00     0.054 A 
HETATM   33  C   UNL     1       6.620  34.276  67.433  1.00  0.00     0.090 C 
HETATM   34  C   UNL     1       5.056  34.131  65.478  1.00  0.00     0.039 A 
HETATM   35  C   UNL     1       5.300  34.331  68.238  1.00  0.00     0.276 C 
HETATM   36  N   UNL     1       4.227  35.099  67.563  1.00  0.00     0.088 N 
HETATM   37  C   UNL     1       3.847  34.469  66.279  1.00  0.00     0.317 C 
HETATM   38  H   UNL     1       4.583  36.033  67.358  1.00  0.00     0.316 HD
HETATM   39  S   UNL     1       5.072  33.795  63.810  1.00  0.00    -0.053 SA
ENDBRANCH  28  30
ENDBRANCH   5  26
TORSDOF 7
ENDMDL
MODEL 5
REMARK VINA RESULT:     -10.0      4.263     12.489
REMARK  7 active torsions:
REMARK  status: ('A' for Active; 'I' for Inactive)
REMARK    1  A    between atoms: O_2  and  C_3 
REMARK    2  A    between atoms: C_5  and  C_15 
REMARK    3  A    between atoms: C_8  and  C_9 
REMARK       I    between atoms: C_15  and  N_17 
REMARK    4  A    between atoms: N_17  and  C_18 
REMARK    5  A    between atoms: C_18  and  C_19 
REMARK    6  A    between atoms: C_23  and  C_25 
REMARK       I    between atoms: C_25  and  N_27 
REMARK    7  A    between atoms: N_27  and  C_28 
ROOT
HETATM    1  C   UNL     1       8.593  28.611  57.431  1.00  0.00    -0.040 A 
HETATM    2  C   UNL     1       9.789  28.826  56.730  1.00  0.00     0.009 A 
HETATM    3  C   UNL     1      10.578  29.942  57.005  1.00  0.00     0.002 A 
HETATM    4  C   UNL     1      10.177  30.856  57.979  1.00  0.00     0.017 A 
HETATM    5  C   UNL     1       8.978  30.670  58.680  1.00  0.00     0.033 A 
HETATM    6  C   UNL     1       8.191  29.542  58.404  1.00  0.00     0.026 A 
ENDROOT
BRANCH   1   7
HETATM    7  C   UNL     1       7.742  27.401  57.139  1.00  0.00     0.161 C 
BRANCH   7   8
HETATM    8  N   UNL     1       7.248  27.420  55.782  1.00  0.00    -0.353 N 
HETATM    9  C   UNL     1       7.256  26.289  54.994  1.00  0.00     0.252 C 
HETATM   10  O   UNL     1       7.684  25.204  55.372  1.00  0.00    -0.268 OA
HETATM   11  H   UNL     1       6.669  28.203  55.514  1.00  0.00     0.163 HD
BRANCH   9  12
HETATM   12  C   UNL     1       6.673  26.437  53.628  1.00  0.00     0.034 A 
HETATM   13  C   UNL     1       5.799  27.506  53.385  1.00  0.00     0.054 A 
HETATM   14  C   UNL     1       5.219  27.686  52.120  1.00  0.00     0.080 A 
HETATM   15  C   UNL     1       5.512  26.773  51.083  1.00  0.00     0.010 A 
HETATM   16  C   UNL     1       6.374  25.694  51.346  1.00  0.00     0.016 A 
HETATM   17  C   UNL     1       6.948  25.522  52.608  1.00  0.00     0.018 A 
BRANCH  14  18
HETATM   18  O   UNL     1       4.372  28.722  51.814  1.00  0.00    -0.355 OA
HETATM   19  C   UNL     1       3.130  28.800  52.501  1.00  0.00     0.210 C 
ENDBRANCH  14  18
BRANCH  15  20
HETATM   20  C   UNL     1       4.929  26.899  49.753  1.00  0.00     0.013 A 
HETATM   21  C   UNL     1       5.079  27.897  48.762  1.00  0.00     0.152 A 
HETATM   22  N   UNL     1       4.356  27.651  47.665  1.00  0.00    -0.187 NA
HETATM   23  N   UNL     1       3.756  26.483  47.941  1.00  0.00    -0.289 N 
HETATM   24  H   UNL     1       3.153  26.075  47.236  1.00  0.00     0.188 HD
HETATM   25  C   UNL     1       4.058  25.995  49.181  1.00  0.00     0.123 A 
ENDBRANCH  15  20
ENDBRANCH   9  12
ENDBRANCH   7   8
ENDBRANCH   1   7
BRANCH   5  26
HETATM   26  C   UNL     1       8.618  31.669  59.734  1.00  0.00     0.257 C 
HETATM   27  O   UNL     1       9.196  32.750  59.712  1.00  0.00    -0.267 OA
HETATM   28  N   UNL     1       7.643  31.273  60.621  1.00  0.00    -0.301 N 
HETATM   29  H   UNL     1       7.144  30.405  60.511  1.00  0.00     0.171 HD
BRANCH  28  30
HETATM   30  C   UNL     1       7.259  32.057  61.675  1.00  0.00     0.174 A 
HETATM   31  N   UNL     1       7.754  32.132  62.885  1.00  0.00    -0.228 NA
HETATM   32  C   UNL     1       7.027  33.050  63.608  1.00  0.00     0.054 A 
HETATM   33  C   UNL     1       7.350  33.394  65.019  1.00  0.00     0.090 C 
HETATM   34  C   UNL     1       5.991  33.657  62.929  1.00  0.00     0.039 A 
HETATM   35  C   UNL     1       6.186  34.199  65.645  1.00  0.00     0.276 C 
HETATM   36  N   UNL     1       5.643  35.248  64.750  1.00  0.00     0.088 N 
HETATM   37  C   UNL     1       5.061  34.654  63.526  1.00  0.00     0.317 C 
HETATM   38  H   UNL     1       6.413  35.855  64.466  1.00  0.00     0.316 HD
HETATM   39  S   UNL     1       5.912  33.066  61.335  1.00  0.00    -0.053 SA
ENDBRANCH  28  30
ENDBRANCH   5  26
TORSDOF 7
ENDMDL
MODEL 6
REMARK VINA RESULT:      -9.8      1.365      2.639
REMARK  7 active torsions:
REMARK  status: ('A' for Active; 'I' for Inactive)
REMARK    1  A    between atoms: O_2  and  C_3 
REMARK    2  A    between atoms: C_5  and  C_15 
REMARK    3  A    between atoms: C_8  and  C_9 
REMARK       I    between atoms: C_15  and  N_17 
REMARK    4  A    between atoms: N_17  and  C_18 
REMARK    5  A    between atoms: C_18  and  C_19 
REMARK    6  A    between atoms: C_23  and  C_25 
REMARK       I    between atoms: C_25  and  N_27 
REMARK    7  A    between atoms: N_27  and  C_28 
ROOT
HETATM    1  C   UNL     1       6.098  29.992  57.870  1.00  0.00    -0.040 A 
HETATM    2  C   UNL     1       7.378  30.363  58.307  1.00  0.00     0.009 A 
HETATM    3  C   UNL     1       8.462  29.506  58.126  1.00  0.00     0.002 A 
HETATM    4  C   UNL     1       8.277  28.268  57.513  1.00  0.00     0.017 A 
HETATM    5  C   UNL     1       7.004  27.868  57.084  1.00  0.00     0.033 A 
HETATM    6  C   UNL     1       5.918  28.737  57.262  1.00  0.00     0.026 A 
ENDROOT
BRANCH   1   7
HETATM    7  C   UNL     1       4.925  30.921  58.059  1.00  0.00     0.161 C 
BRANCH   7   8
HETATM    8  N   UNL     1       4.987  31.594  59.336  1.00  0.00    -0.353 N 
HETATM    9  C   UNL     1       3.946  32.374  59.792  1.00  0.00     0.252 C 
HETATM   10  O   UNL     1       2.912  32.561  59.158  1.00  0.00    -0.268 OA
HETATM   11  H   UNL     1       5.689  31.278  59.989  1.00  0.00     0.163 HD
BRANCH   9  12
HETATM   12  C   UNL     1       4.120  32.974  61.147  1.00  0.00     0.034 A 
HETATM   13  C   UNL     1       5.401  32.976  61.718  1.00  0.00     0.054 A 
HETATM   14  C   UNL     1       5.618  33.522  62.992  1.00  0.00     0.080 A 
HETATM   15  C   UNL     1       4.531  34.067  63.711  1.00  0.00     0.010 A 
HETATM   16  C   UNL     1       3.249  34.040  63.135  1.00  0.00     0.016 A 
HETATM   17  C   UNL     1       3.041  33.495  61.866  1.00  0.00     0.018 A 
BRANCH  14  18
HETATM   18  O   UNL     1       6.849  33.573  63.597  1.00  0.00    -0.355 OA
HETATM   19  C   UNL     1       7.772  32.525  63.330  1.00  0.00     0.210 C 
ENDBRANCH  14  18
BRANCH  15  20
HETATM   20  C   UNL     1       4.691  34.635  65.044  1.00  0.00     0.013 A 
HETATM   21  C   UNL     1       4.774  34.019  66.314  1.00  0.00     0.152 A 
HETATM   22  N   UNL     1       4.910  34.900  67.310  1.00  0.00    -0.187 NA
HETATM   23  N   UNL     1       4.935  36.083  66.679  1.00  0.00    -0.289 N 
HETATM   24  H   UNL     1       5.048  36.922  67.238  1.00  0.00     0.188 HD
HETATM   25  C   UNL     1       4.799  35.982  65.324  1.00  0.00     0.123 A 
ENDBRANCH  15  20
ENDBRANCH   9  12
ENDBRANCH   7   8
ENDBRANCH   1   7
BRANCH   5  26
HETATM   26  C   UNL     1       6.876  26.541  56.406  1.00  0.00     0.257 C 
HETATM   27  O   UNL     1       5.758  26.194  56.044  1.00  0.00    -0.267 OA
HETATM   28  N   UNL     1       8.051  25.844  56.237  1.00  0.00    -0.301 N 
HETATM   29  H   UNL     1       8.945  26.242  56.474  1.00  0.00     0.171 HD
BRANCH  28  30
HETATM   30  C   UNL     1       8.078  24.589  55.692  1.00  0.00     0.174 A 
HETATM   31  N   UNL     1       7.992  24.220  54.438  1.00  0.00    -0.228 NA
HETATM   32  C   UNL     1       8.046  22.848  54.372  1.00  0.00     0.054 A 
HETATM   33  C   UNL     1       8.002  22.106  53.082  1.00  0.00     0.090 C 
HETATM   34  C   UNL     1       8.176  22.198  55.582  1.00  0.00     0.039 A 
HETATM   35  C   UNL     1       7.765  20.600  53.348  1.00  0.00     0.276 C 
HETATM   36  N   UNL     1       8.575  20.061  54.466  1.00  0.00     0.088 N 
HETATM   37  C   UNL     1       8.224  20.719  55.744  1.00  0.00     0.317 C 
HETATM   38  H   UNL     1       9.558  20.261  54.273  1.00  0.00     0.316 HD
HETATM   39  S   UNL     1       8.229  23.331  56.850  1.00  0.00    -0.053 SA
ENDBRANCH  28  30
ENDBRANCH   5  26
TORSDOF 7
ENDMDL
MODEL 7
REMARK VINA RESULT:      -9.7      4.758      7.557
REMARK  7 active torsions:
REMARK  status: ('A' for Active; 'I' for Inactive)
REMARK    1  A    between atoms: O_2  and  C_3 
REMARK    2  A    between atoms: C_5  and  C_15 
REMARK    3  A    between atoms: C_8  and  C_9 
REMARK       I    between atoms: C_15  and  N_17 
REMARK    4  A    between atoms: N_17  and  C_18 
REMARK    5  A    between atoms: C_18  and  C_19 
REMARK    6  A    between atoms: C_23  and  C_25 
REMARK       I    between atoms: C_25  and  N_27 
REMARK    7  A    between atoms: N_27  and  C_28 
ROOT
HETATM    1  C   UNL     1       7.698  24.456  55.619  1.00  0.00    -0.040 A 
HETATM    2  C   UNL     1       8.535  23.441  55.132  1.00  0.00     0.009 A 
HETATM    3  C   UNL     1       8.385  22.964  53.831  1.00  0.00     0.002 A 
HETATM    4  C   UNL     1       7.393  23.492  53.006  1.00  0.00     0.017 A 
HETATM    5  C   UNL     1       6.534  24.494  53.476  1.00  0.00     0.033 A 
HETATM    6  C   UNL     1       6.693  24.975  54.783  1.00  0.00     0.026 A 
ENDROOT
BRANCH   1   7
HETATM    7  C   UNL     1       7.863  24.977  57.024  1.00  0.00     0.161 C 
BRANCH   7   8
HETATM    8  N   UNL     1       7.122  26.200  57.223  1.00  0.00    -0.353 N 
HETATM    9  C   UNL     1       7.757  27.415  57.364  1.00  0.00     0.252 C 
HETATM   10  O   UNL     1       8.976  27.548  57.341  1.00  0.00    -0.268 OA
HETATM   11  H   UNL     1       6.136  26.182  57.004  1.00  0.00     0.163 HD
BRANCH   9  12
HETATM   12  C   UNL     1       6.871  28.606  57.517  1.00  0.00     0.034 A 
HETATM   13  C   UNL     1       7.423  29.790  58.028  1.00  0.00     0.054 A 
HETATM   14  C   UNL     1       6.632  30.936  58.198  1.00  0.00     0.080 A 
HETATM   15  C   UNL     1       5.261  30.892  57.860  1.00  0.00     0.010 A 
HETATM   16  C   UNL     1       4.716  29.693  57.367  1.00  0.00     0.016 A 
HETATM   17  C   UNL     1       5.511  28.557  57.201  1.00  0.00     0.018 A 
BRANCH  14  18
HETATM   18  O   UNL     1       7.115  32.129  58.674  1.00  0.00    -0.355 OA
HETATM   19  C   UNL     1       7.566  32.181  60.021  1.00  0.00     0.210 C 
ENDBRANCH  14  18
BRANCH  15  20
HETATM   20  C   UNL     1       4.385  32.046  58.028  1.00  0.00     0.013 A 
HETATM   21  C   UNL     1       3.672  32.516  59.155  1.00  0.00     0.152 A 
HETATM   22  N   UNL     1       2.961  33.618  58.896  1.00  0.00    -0.187 NA
HETATM   23  N   UNL     1       3.234  33.870  57.607  1.00  0.00    -0.289 N 
HETATM   24  H   UNL     1       2.811  34.686  57.178  1.00  0.00     0.188 HD
HETATM   25  C   UNL     1       4.073  32.955  57.038  1.00  0.00     0.123 A 
ENDBRANCH  15  20
ENDBRANCH   9  12
ENDBRANCH   7   8
ENDBRANCH   1   7
BRANCH   5  26
HETATM   26  C   UNL     1       5.510  25.040  52.532  1.00  0.00     0.257 C 
HETATM   27  O   UNL     1       4.415  24.490  52.501  1.00  0.00    -0.267 OA
HETATM   28  N   UNL     1       5.902  26.138  51.799  1.00  0.00    -0.301 N 
HETATM   29  H   UNL     1       6.786  26.593  51.955  1.00  0.00     0.171 HD
BRANCH  28  30
HETATM   30  C   UNL     1       5.093  26.704  50.851  1.00  0.00     0.174 A 
HETATM   31  N   UNL     1       4.738  26.249  49.676  1.00  0.00    -0.228 NA
HETATM   32  C   UNL     1       3.928  27.177  49.065  1.00  0.00     0.054 A 
HETATM   33  C   UNL     1       3.327  26.954  47.721  1.00  0.00     0.090 C 
HETATM   34  C   UNL     1       3.680  28.322  49.792  1.00  0.00     0.039 A 
HETATM   35  C   UNL     1       2.740  28.280  47.179  1.00  0.00     0.276 C 
HETATM   36  N   UNL     1       1.981  29.050  48.193  1.00  0.00     0.088 N 
HETATM   37  C   UNL     1       2.857  29.466  49.311  1.00  0.00     0.317 C 
HETATM   38  H   UNL     1       1.255  28.443  48.576  1.00  0.00     0.316 HD
HETATM   39  S   UNL     1       4.485  28.248  51.290  1.00  0.00    -0.053 SA
ENDBRANCH  28  30
ENDBRANCH   5  26
TORSDOF 7
ENDMDL
MODEL 8
REMARK VINA RESULT:      -9.5      1.778      2.342
REMARK  7 active torsions:
REMARK  status: ('A' for Active; 'I' for Inactive)
REMARK    1  A    between atoms: O_2  and  C_3 
REMARK    2  A    between atoms: C_5  and  C_15 
REMARK    3  A    between atoms: C_8  and  C_9 
REMARK       I    between atoms: C_15  and  N_17 
REMARK    4  A    between atoms: N_17  and  C_18 
REMARK    5  A    between atoms: C_18  and  C_19 
REMARK    6  A    between atoms: C_23  and  C_25 
REMARK       I    between atoms: C_25  and  N_27 
REMARK    7  A    between atoms: N_27  and  C_28 
ROOT
HETATM    1  C   UNL     1       5.969  29.966  57.780  1.00  0.00    -0.040 A 
HETATM    2  C   UNL     1       7.254  30.384  58.160  1.00  0.00     0.009 A 
HETATM    3  C   UNL     1       8.346  29.531  58.013  1.00  0.00     0.002 A 
HETATM    4  C   UNL     1       8.165  28.251  57.491  1.00  0.00     0.017 A 
HETATM    5  C   UNL     1       6.890  27.806  57.120  1.00  0.00     0.033 A 
HETATM    6  C   UNL     1       5.795  28.671  57.264  1.00  0.00     0.026 A 
ENDROOT
BRANCH   1   7
HETATM    7  C   UNL     1       4.788  30.890  57.932  1.00  0.00     0.161 C 
BRANCH   7   8
HETATM    8  N   UNL     1       4.727  31.454  59.261  1.00  0.00    -0.353 N 
HETATM    9  C   UNL     1       5.174  32.731  59.525  1.00  0.00     0.252 C 
HETATM   10  O   UNL     1       5.656  33.469  58.672  1.00  0.00    -0.268 OA
HETATM   11  H   UNL     1       4.125  30.995  59.929  1.00  0.00     0.163 HD
BRANCH   9  12
HETATM   12  C   UNL     1       5.011  33.206  60.930  1.00  0.00     0.034 A 
HETATM   13  C   UNL     1       3.715  33.300  61.458  1.00  0.00     0.054 A 
HETATM   14  C   UNL     1       3.506  33.747  62.771  1.00  0.00     0.080 A 
HETATM   15  C   UNL     1       4.614  34.116  63.566  1.00  0.00     0.010 A 
HETATM   16  C   UNL     1       5.906  34.036  63.018  1.00  0.00     0.016 A 
HETATM   17  C   UNL     1       6.105  33.589  61.709  1.00  0.00     0.018 A 
BRANCH  14  18
HETATM   18  O   UNL     1       2.266  33.843  63.353  1.00  0.00    -0.355 OA
HETATM   19  C   UNL     1       1.220  34.452  62.607  1.00  0.00     0.210 C 
ENDBRANCH  14  18
BRANCH  15  20
HETATM   20  C   UNL     1       4.459  34.602  64.932  1.00  0.00     0.013 A 
HETATM   21  C   UNL     1       4.111  35.878  65.432  1.00  0.00     0.152 A 
HETATM   22  N   UNL     1       4.086  35.923  66.768  1.00  0.00    -0.187 NA
HETATM   23  N   UNL     1       4.397  34.669  67.128  1.00  0.00    -0.289 N 
HETATM   24  H   UNL     1       4.426  34.447  68.118  1.00  0.00     0.188 HD
HETATM   25  C   UNL     1       4.637  33.841  66.069  1.00  0.00     0.123 A 
ENDBRANCH  15  20
ENDBRANCH   9  12
ENDBRANCH   7   8
ENDBRANCH   1   7
BRANCH   5  26
HETATM   26  C   UNL     1       6.766  26.434  56.539  1.00  0.00     0.257 C 
HETATM   27  O   UNL     1       5.638  26.016  56.304  1.00  0.00    -0.267 OA
HETATM   28  N   UNL     1       7.954  25.779  56.302  1.00  0.00    -0.301 N 
HETATM   29  H   UNL     1       8.845  26.230  56.429  1.00  0.00     0.171 HD
BRANCH  28  30
HETATM   30  C   UNL     1       7.993  24.494  55.832  1.00  0.00     0.174 A 
HETATM   31  N   UNL     1       8.128  23.368  56.488  1.00  0.00    -0.228 NA
HETATM   32  C   UNL     1       8.132  22.327  55.589  1.00  0.00     0.054 A 
HETATM   33  C   UNL     1       8.241  20.904  56.013  1.00  0.00     0.090 C 
HETATM   34  C   UNL     1       7.998  22.684  54.264  1.00  0.00     0.039 A 
HETATM   35  C   UNL     1       8.533  20.009  54.786  1.00  0.00     0.276 C 
HETATM   36  N   UNL     1       7.717  20.350  53.596  1.00  0.00     0.088 N 
HETATM   37  C   UNL     1       8.007  21.722  53.127  1.00  0.00     0.317 C 
HETATM   38  H   UNL     1       6.732  20.314  53.864  1.00  0.00     0.316 HD
HETATM   39  S   UNL     1       7.865  24.374  54.125  1.00  0.00    -0.053 SA
ENDBRANCH  28  30
ENDBRANCH   5  26
TORSDOF 7
ENDMDL
MODEL 9
REMARK VINA RESULT:      -9.4      4.679     11.349
REMARK  7 active torsions:
REMARK  status: ('A' for Active; 'I' for Inactive)
REMARK    1  A    between atoms: O_2  and  C_3 
REMARK    2  A    between atoms: C_5  and  C_15 
REMARK    3  A    between atoms: C_8  and  C_9 
REMARK       I    between atoms: C_15  and  N_17 
REMARK    4  A    between atoms: N_17  and  C_18 
REMARK    5  A    between atoms: C_18  and  C_19 
REMARK    6  A    between atoms: C_23  and  C_25 
REMARK       I    between atoms: C_25  and  N_27 
REMARK    7  A    between atoms: N_27  and  C_28 
ROOT
HETATM    1  C   UNL     1       7.710  23.400  54.291  1.00  0.00    -0.040 A 
HETATM    2  C   UNL     1       8.166  22.227  54.912  1.00  0.00     0.009 A 
HETATM    3  C   UNL     1       8.520  22.234  56.261  1.00  0.00     0.002 A 
HETATM    4  C   UNL     1       8.428  23.413  56.999  1.00  0.00     0.017 A 
HETATM    5  C   UNL     1       7.992  24.600  56.396  1.00  0.00     0.033 A 
HETATM    6  C   UNL     1       7.630  24.586  55.041  1.00  0.00     0.026 A 
ENDROOT
BRANCH   1   7
HETATM    7  C   UNL     1       7.321  23.392  52.835  1.00  0.00     0.161 C 
BRANCH   7   8
HETATM    8  N   UNL     1       7.024  24.725  52.362  1.00  0.00    -0.353 N 
HETATM    9  C   UNL     1       5.729  25.138  52.135  1.00  0.00     0.252 C 
HETATM   10  O   UNL     1       4.749  24.420  52.305  1.00  0.00    -0.268 OA
HETATM   11  H   UNL     1       7.754  25.416  52.445  1.00  0.00     0.163 HD
BRANCH   9  12
HETATM   12  C   UNL     1       5.559  26.553  51.692  1.00  0.00     0.034 A 
HETATM   13  C   UNL     1       5.113  26.796  50.385  1.00  0.00     0.054 A 
HETATM   14  C   UNL     1       4.943  28.108  49.917  1.00  0.00     0.080 A 
HETATM   15  C   UNL     1       5.236  29.195  50.770  1.00  0.00     0.010 A 
HETATM   16  C   UNL     1       5.701  28.937  52.071  1.00  0.00     0.016 A 
HETATM   17  C   UNL     1       5.867  27.629  52.530  1.00  0.00     0.018 A 
BRANCH  14  18
HETATM   18  O   UNL     1       4.491  28.412  48.657  1.00  0.00    -0.355 OA
HETATM   19  C   UNL     1       5.339  28.125  47.552  1.00  0.00     0.210 C 
ENDBRANCH  14  18
BRANCH  15  20
HETATM   20  C   UNL     1       5.093  30.580  50.336  1.00  0.00     0.013 A 
HETATM   21  C   UNL     1       3.990  31.464  50.392  1.00  0.00     0.152 A 
HETATM   22  N   UNL     1       4.262  32.665  49.872  1.00  0.00    -0.187 NA
HETATM   23  N   UNL     1       5.546  32.561  49.500  1.00  0.00    -0.289 N 
HETATM   24  H   UNL     1       5.992  33.371  49.082  1.00  0.00     0.188 HD
HETATM   25  C   UNL     1       6.088  31.332  49.747  1.00  0.00     0.123 A 
ENDBRANCH  15  20
ENDBRANCH   9  12
ENDBRANCH   7   8
ENDBRANCH   1   7
BRANCH   5  26
HETATM   26  C   UNL     1       7.886  25.824  57.249  1.00  0.00     0.257 C 
HETATM   27  O   UNL     1       8.028  25.687  58.459  1.00  0.00    -0.267 OA
HETATM   28  N   UNL     1       7.657  27.002  56.574  1.00  0.00    -0.301 N 
HETATM   29  H   UNL     1       7.651  27.046  55.568  1.00  0.00     0.171 HD
BRANCH  28  30
HETATM   30  C   UNL     1       7.474  28.190  57.228  1.00  0.00     0.174 A 
HETATM   31  N   UNL     1       8.249  28.796  58.092  1.00  0.00    -0.228 NA
HETATM   32  C   UNL     1       7.638  29.960  58.499  1.00  0.00     0.054 A 
HETATM   33  C   UNL     1       8.271  30.902  59.462  1.00  0.00     0.090 C 
HETATM   34  C   UNL     1       6.408  30.216  57.931  1.00  0.00     0.039 A 
HETATM   35  C   UNL     1       7.228  31.932  59.955  1.00  0.00     0.276 C 
HETATM   36  N   UNL     1       6.370  32.471  58.872  1.00  0.00     0.088 N 
HETATM   37  C   UNL     1       5.562  31.399  58.250  1.00  0.00     0.317 C 
HETATM   38  H   UNL     1       6.977  32.863  58.150  1.00  0.00     0.316 HD
HETATM   39  S   UNL     1       5.989  28.966  56.856  1.00  0.00    -0.053 SA
ENDBRANCH  28  30
ENDBRANCH   5  26
TORSDOF 7
ENDMDL
MODEL 10
REMARK VINA RESULT:      -9.4      4.258      5.406
REMARK  7 active torsions:
REMARK  status: ('A' for Active; 'I' for Inactive)
REMARK    1  A    between atoms: O_2  and  C_3 
REMARK    2  A    between atoms: C_5  and  C_15 
REMARK    3  A    between atoms: C_8  and  C_9 
REMARK       I    between atoms: C_15  and  N_17 
REMARK    4  A    between atoms: N_17  and  C_18 
REMARK    5  A    between atoms: C_18  and  C_19 
REMARK    6  A    between atoms: C_23  and  C_25 
REMARK       I    between atoms: C_25  and  N_27 
REMARK    7  A    between atoms: N_27  and  C_28 
ROOT
HETATM    1  C   UNL     1       8.231  27.894  56.555  1.00  0.00    -0.040 A 
HETATM    2  C   UNL     1       8.263  26.785  57.415  1.00  0.00     0.009 A 
HETATM    3  C   UNL     1       7.544  25.632  57.107  1.00  0.00     0.002 A 
HETATM    4  C   UNL     1       6.781  25.577  55.942  1.00  0.00     0.017 A 
HETATM    5  C   UNL     1       6.720  26.677  55.077  1.00  0.00     0.033 A 
HETATM    6  C   UNL     1       7.451  27.833  55.387  1.00  0.00     0.026 A 
ENDROOT
BRANCH   1   7
HETATM    7  C   UNL     1       9.014  29.139  56.883  1.00  0.00     0.161 C 
BRANCH   7   8
HETATM    8  N   UNL     1       8.583  29.719  58.134  1.00  0.00    -0.353 N 
HETATM    9  C   UNL     1       9.198  30.832  58.665  1.00  0.00     0.252 C 
HETATM   10  O   UNL     1      10.145  31.401  58.132  1.00  0.00    -0.268 OA
HETATM   11  H   UNL     1       7.672  29.449  58.477  1.00  0.00     0.163 HD
BRANCH   9  12
HETATM   12  C   UNL     1       8.624  31.355  59.939  1.00  0.00     0.034 A 
HETATM   13  C   UNL     1       7.308  31.840  59.931  1.00  0.00     0.054 A 
HETATM   14  C   UNL     1       6.722  32.348  61.100  1.00  0.00     0.080 A 
HETATM   15  C   UNL     1       7.472  32.380  62.297  1.00  0.00     0.010 A 
HETATM   16  C   UNL     1       8.797  31.909  62.287  1.00  0.00     0.016 A 
HETATM   17  C   UNL     1       9.372  31.404  61.118  1.00  0.00     0.018 A 
BRANCH  14  18
HETATM   18  O   UNL     1       5.434  32.819  61.163  1.00  0.00    -0.355 OA
HETATM   19  C   UNL     1       4.601  32.644  60.024  1.00  0.00     0.210 C 
ENDBRANCH  14  18
BRANCH  15  20
HETATM   20  C   UNL     1       6.924  32.910  63.540  1.00  0.00     0.013 A 
HETATM   21  C   UNL     1       7.536  33.619  64.599  1.00  0.00     0.152 A 
HETATM   22  N   UNL     1       6.682  33.924  65.581  1.00  0.00    -0.187 NA
HETATM   23  N   UNL     1       5.514  33.428  65.145  1.00  0.00    -0.289 N 
HETATM   24  H   UNL     1       4.693  33.552  65.726  1.00  0.00     0.188 HD
HETATM   25  C   UNL     1       5.606  32.804  63.933  1.00  0.00     0.123 A 
ENDBRANCH  15  20
ENDBRANCH   9  12
ENDBRANCH   7   8
ENDBRANCH   1   7
BRANCH   5  26
HETATM   26  C   UNL     1       5.908  26.545  53.828  1.00  0.00     0.257 C 
HETATM   27  O   UNL     1       5.294  25.498  53.658  1.00  0.00    -0.267 OA
HETATM   28  N   UNL     1       5.916  27.640  52.994  1.00  0.00    -0.301 N 
HETATM   29  H   UNL     1       6.367  28.503  53.252  1.00  0.00     0.171 HD
BRANCH  28  30
HETATM   30  C   UNL     1       5.272  27.638  51.786  1.00  0.00     0.174 A 
HETATM   31  N   UNL     1       5.484  26.899  50.727  1.00  0.00    -0.228 NA
HETATM   32  C   UNL     1       4.599  27.268  49.741  1.00  0.00     0.054 A 
HETATM   33  C   UNL     1       4.556  26.599  48.411  1.00  0.00     0.090 C 
HETATM   34  C   UNL     1       3.727  28.283  50.073  1.00  0.00     0.039 A 
HETATM   35  C   UNL     1       3.694  27.429  47.431  1.00  0.00     0.276 C 
HETATM   36  N   UNL     1       2.434  27.931  48.030  1.00  0.00     0.088 N 
HETATM   37  C   UNL     1       2.709  28.858  49.150  1.00  0.00     0.317 C 
HETATM   38  H   UNL     1       1.919  27.134  48.405  1.00  0.00     0.316 HD
HETATM   39  S   UNL     1       4.017  28.804  51.667  1.00  0.00    -0.053 SA
ENDBRANCH  28  30
ENDBRANCH   5  26
TORSDOF 7
ENDMDL
