MODEL 1
REMARK VINA RESULT:     -11.0      0.000      0.000
REMARK  8 active torsions:
REMARK  status: ('A' for Active; 'I' for Inactive)
REMARK    1  A    between atoms: C_2  and  C_3 
REMARK    2  A    between atoms: C_3  and  C_4 
REMARK       I    between atoms: C_4  and  N_5 
REMARK    3  A    between atoms: N_8  and  C_9 
REMARK    4  A    between atoms: C_12  and  N_13 
REMARK    5  A    between atoms: N_13  and  C_14 
REMARK    6  A    between atoms: C_14  and  N_15 
REMARK       I    between atoms: N_15  and  C_16 
REMARK    7  A    between atoms: C_16  and  C_17 
REMARK    8  A    between atoms: C_18  and  O_19 
ROOT
HETATM    1  N   UNL     1       8.074  30.310  57.721  1.00  0.00    -0.333 N 
HETATM    2  H   UNL     1       7.625  30.834  56.976  1.00  0.00     0.168 HD
ENDROOT
BRANCH   1   3
HETATM    3  C   UNL     1       7.790  30.802  59.009  1.00  0.00     0.034 A 
HETATM    4  C   UNL     1       8.557  30.566  60.143  1.00  0.00     0.032 A 
HETATM    5  C   UNL     1       8.215  31.155  61.375  1.00  0.00     0.031 A 
HETATM    6  C   UNL     1       7.114  32.014  61.516  1.00  0.00     0.030 A 
HETATM    7  C   UNL     1       6.386  32.274  60.345  1.00  0.00     0.031 A 
HETATM    8  C   UNL     1       6.707  31.675  59.120  1.00  0.00     0.032 A 
BRANCH   6   9
HETATM    9  N   UNL     1       6.774  32.653  62.719  1.00  0.00    -0.378 N 
HETATM   10  C   UNL     1       7.796  32.751  63.781  1.00  0.00     0.143 C 
HETATM   11  C   UNL     1       7.375  33.753  64.875  1.00  0.00     0.145 C 
HETATM   12  N   UNL     1       6.010  33.547  65.372  1.00  0.00    -0.349 N 
HETATM   13  C   UNL     1       5.558  34.037  66.596  1.00  0.00     0.219 C 
HETATM   14  C   UNL     1       5.004  33.334  64.328  1.00  0.00     0.145 C 
HETATM   15  O   UNL     1       4.359  34.143  66.854  1.00  0.00    -0.273 OA
HETATM   16  C   UNL     1       5.437  32.306  63.269  1.00  0.00     0.143 C 
BRANCH  13  17
HETATM   17  C   UNL     1       6.623  34.408  67.619  1.00  0.00     0.103 C 
BRANCH  17  18
HETATM   18  C   UNL     1       6.130  34.244  69.056  1.00  0.00     0.005 C 
HETATM   19  C   UNL     1       7.124  34.812  70.055  1.00  0.00     0.005 C 
ENDBRANCH  17  18
ENDBRANCH  13  17
ENDBRANCH   6   9
ENDBRANCH   1   3
BRANCH   1  20
HETATM   20  C   UNL     1       9.021  29.476  57.255  1.00  0.00     0.179 C 
HETATM   21  S   UNL     1      10.613  30.007  57.264  1.00  0.00    -0.040 SA
BRANCH  20  22
HETATM   22  N   UNL     1       8.790  28.248  56.727  1.00  0.00    -0.299 N 
HETATM   23  C   UNL     1       7.604  27.512  56.676  1.00  0.00     0.260 C 
HETATM   24  O   UNL     1       6.603  27.707  57.349  1.00  0.00    -0.267 OA
HETATM   25  H   UNL     1       9.408  28.089  55.942  1.00  0.00     0.171 HD
BRANCH  23  26
HETATM   26  C   UNL     1       7.621  26.417  55.659  1.00  0.00     0.066 A 
HETATM   27  C   UNL     1       7.593  26.689  54.287  1.00  0.00     0.084 A 
HETATM   28  C   UNL     1       7.601  25.639  53.362  1.00  0.00     0.050 A 
HETATM   29  C   UNL     1       7.686  24.305  53.784  1.00  0.00    -0.023 A 
HETATM   30  C   UNL     1       7.725  24.020  55.167  1.00  0.00    -0.025 A 
HETATM   31  C   UNL     1       7.735  23.248  52.860  1.00  0.00     0.012 A 
HETATM   32  C   UNL     1       7.674  25.079  56.090  1.00  0.00     0.032 A 
HETATM   33  C   UNL     1       7.813  22.681  55.588  1.00  0.00     0.012 A 
HETATM   34  C   UNL     1       7.869  21.643  54.657  1.00  0.00     0.001 A 
HETATM   35  C   UNL     1       7.829  21.925  53.295  1.00  0.00     0.001 A 
BRANCH  27  36
HETATM   36  O   UNL     1       7.511  27.946  53.751  1.00  0.00    -0.355 OA
HETATM   37  C   UNL     1       6.242  28.190  53.147  1.00  0.00     0.210 C 
ENDBRANCH  27  36
ENDBRANCH  23  26
ENDBRANCH  20  22
ENDBRANCH   1  20
TORSDOF 8
ENDMDL
MODEL 2
REMARK VINA RESULT:     -10.6      1.889      2.391
REMARK  8 active torsions:
REMARK  status: ('A' for Active; 'I' for Inactive)
REMARK    1  A    between atoms: C_2  and  C_3 
REMARK    2  A    between atoms: C_3  and  C_4 
REMARK       I    between atoms: C_4  and  N_5 
REMARK    3  A    between atoms: N_8  and  C_9 
REMARK    4  A    between atoms: C_12  and  N_13 
REMARK    5  A    between atoms: N_13  and  C_14 
REMARK    6  A    between atoms: C_14  and  N_15 
REMARK       I    between atoms: N_15  and  C_16 
REMARK    7  A    between atoms: C_16  and  C_17 
REMARK    8  A    between atoms: C_18  and  O_19 
ROOT
HETATM    1  N   UNL     1       7.147  29.470  55.955  1.00  0.00    -0.333 N 
HETATM    2  H   UNL     1       7.966  29.677  55.392  1.00  0.00     0.168 HD
ENDROOT
BRANCH   1   3
HETATM    3  C   UNL     1       7.171  30.068  57.229  1.00  0.00     0.034 A 
HETATM    4  C   UNL     1       8.125  29.823  58.210  1.00  0.00     0.032 A 
HETATM    5  C   UNL     1       8.090  30.519  59.433  1.00  0.00     0.031 A 
HETATM    6  C   UNL     1       7.121  31.496  59.713  1.00  0.00     0.030 A 
HETATM    7  C   UNL     1       6.201  31.758  58.687  1.00  0.00     0.031 A 
HETATM    8  C   UNL     1       6.216  31.055  57.476  1.00  0.00     0.032 A 
BRANCH   6   9
HETATM    9  N   UNL     1       7.087  32.241  60.903  1.00  0.00    -0.378 N 
HETATM   10  C   UNL     1       7.344  31.544  62.180  1.00  0.00     0.143 C 
HETATM   11  C   UNL     1       7.596  32.545  63.325  1.00  0.00     0.145 C 
HETATM   12  N   UNL     1       6.588  33.609  63.413  1.00  0.00    -0.349 N 
HETATM   13  C   UNL     1       6.371  34.366  64.563  1.00  0.00     0.219 C 
HETATM   14  C   UNL     1       6.242  34.230  62.132  1.00  0.00     0.145 C 
HETATM   15  O   UNL     1       5.773  35.442  64.533  1.00  0.00    -0.273 OA
HETATM   16  C   UNL     1       5.964  33.208  61.017  1.00  0.00     0.143 C 
BRANCH  13  17
HETATM   17  C   UNL     1       6.881  33.781  65.872  1.00  0.00     0.103 C 
BRANCH  17  18
HETATM   18  C   UNL     1       6.038  34.215  67.071  1.00  0.00     0.005 C 
HETATM   19  C   UNL     1       6.902  34.500  68.288  1.00  0.00     0.005 C 
ENDBRANCH  17  18
ENDBRANCH  13  17
ENDBRANCH   6   9
ENDBRANCH   1   3
BRANCH   1  20
HETATM   20  C   UNL     1       6.411  28.472  55.432  1.00  0.00     0.179 C 
HETATM   21  S   UNL     1       4.819  28.801  55.019  1.00  0.00    -0.040 SA
BRANCH  20  22
HETATM   22  N   UNL     1       6.838  27.197  55.257  1.00  0.00    -0.299 N 
HETATM   23  C   UNL     1       6.357  26.014  55.823  1.00  0.00     0.260 C 
HETATM   24  O   UNL     1       5.640  25.924  56.808  1.00  0.00    -0.267 OA
HETATM   25  H   UNL     1       7.214  27.085  54.324  1.00  0.00     0.171 HD
BRANCH  23  26
HETATM   26  C   UNL     1       6.775  24.783  55.086  1.00  0.00     0.066 A 
HETATM   27  C   UNL     1       6.758  24.724  53.688  1.00  0.00     0.084 A 
HETATM   28  C   UNL     1       7.147  23.552  53.030  1.00  0.00     0.050 A 
HETATM   29  C   UNL     1       7.606  22.438  53.747  1.00  0.00    -0.023 A 
HETATM   30  C   UNL     1       7.636  22.491  55.159  1.00  0.00    -0.025 A 
HETATM   31  C   UNL     1       8.036  21.273  53.092  1.00  0.00     0.012 A 
HETATM   32  C   UNL     1       7.204  23.658  55.814  1.00  0.00     0.032 A 
HETATM   33  C   UNL     1       8.100  21.375  55.876  1.00  0.00     0.012 A 
HETATM   34  C   UNL     1       8.532  20.227  55.209  1.00  0.00     0.001 A 
HETATM   35  C   UNL     1       8.499  20.176  53.818  1.00  0.00     0.001 A 
BRANCH  27  36
HETATM   36  O   UNL     1       6.333  25.742  52.877  1.00  0.00    -0.355 OA
HETATM   37  C   UNL     1       5.408  25.290  51.889  1.00  0.00     0.210 C 
ENDBRANCH  27  36
ENDBRANCH  23  26
ENDBRANCH  20  22
ENDBRANCH   1  20
TORSDOF 8
ENDMDL
MODEL 3
REMARK VINA RESULT:     -10.4      3.072     12.044
REMARK  8 active torsions:
REMARK  status: ('A' for Active; 'I' for Inactive)
REMARK    1  A    between atoms: C_2  and  C_3 
REMARK    2  A    between atoms: C_3  and  C_4 
REMARK       I    between atoms: C_4  and  N_5 
REMARK    3  A    between atoms: N_8  and  C_9 
REMARK    4  A    between atoms: C_12  and  N_13 
REMARK    5  A    between atoms: N_13  and  C_14 
REMARK    6  A    between atoms: C_14  and  N_15 
REMARK       I    between atoms: N_15  and  C_16 
REMARK    7  A    between atoms: C_16  and  C_17 
REMARK    8  A    between atoms: C_18  and  O_19 
ROOT
HETATM    1  N   UNL     1       6.012  31.086  57.213  1.00  0.00    -0.333 N 
HETATM    2  H   UNL     1       5.940  31.630  56.359  1.00  0.00     0.168 HD
ENDROOT
BRANCH   1   3
HETATM    3  C   UNL     1       6.507  29.783  57.013  1.00  0.00     0.034 A 
HETATM    4  C   UNL     1       7.589  29.228  57.683  1.00  0.00     0.032 A 
HETATM    5  C   UNL     1       7.968  27.892  57.450  1.00  0.00     0.031 A 
HETATM    6  C   UNL     1       7.271  27.059  56.560  1.00  0.00     0.030 A 
HETATM    7  C   UNL     1       6.153  27.631  55.934  1.00  0.00     0.031 A 
HETATM    8  C   UNL     1       5.783  28.965  56.144  1.00  0.00     0.032 A 
BRANCH   6   9
HETATM    9  N   UNL     1       7.594  25.710  56.340  1.00  0.00    -0.378 N 
HETATM   10  C   UNL     1       6.757  24.926  55.409  1.00  0.00     0.143 C 
HETATM   11  C   UNL     1       7.434  23.592  55.033  1.00  0.00     0.145 C 
HETATM   12  N   UNL     1       7.923  22.831  56.188  1.00  0.00    -0.349 N 
HETATM   13  C   UNL     1       8.191  21.464  56.147  1.00  0.00     0.219 C 
HETATM   14  C   UNL     1       8.658  23.624  57.177  1.00  0.00     0.145 C 
HETATM   15  O   UNL     1       8.891  20.910  56.995  1.00  0.00    -0.273 OA
HETATM   16  C   UNL     1       7.944  24.933  57.557  1.00  0.00     0.143 C 
BRANCH  13  17
HETATM   17  C   UNL     1       7.547  20.675  55.016  1.00  0.00     0.103 C 
BRANCH  17  18
HETATM   18  C   UNL     1       8.582  20.062  54.073  1.00  0.00     0.005 C 
HETATM   19  C   UNL     1       8.454  20.618  52.665  1.00  0.00     0.005 C 
ENDBRANCH  17  18
ENDBRANCH  13  17
ENDBRANCH   6   9
ENDBRANCH   1   3
BRANCH   1  20
HETATM   20  C   UNL     1       5.363  31.664  58.239  1.00  0.00     0.179 C 
HETATM   21  S   UNL     1       3.886  32.397  57.925  1.00  0.00    -0.040 SA
BRANCH  20  22
HETATM   22  N   UNL     1       5.829  31.749  59.510  1.00  0.00    -0.299 N 
HETATM   23  C   UNL     1       7.060  32.216  59.975  1.00  0.00     0.260 C 
HETATM   24  O   UNL     1       8.070  32.378  59.307  1.00  0.00    -0.267 OA
HETATM   25  H   UNL     1       5.060  31.904  60.149  1.00  0.00     0.171 HD
BRANCH  23  26
HETATM   26  C   UNL     1       7.061  32.560  61.429  1.00  0.00     0.066 A 
HETATM   27  C   UNL     1       8.176  32.318  62.240  1.00  0.00     0.084 A 
HETATM   28  C   UNL     1       8.140  32.644  63.600  1.00  0.00     0.050 A 
HETATM   29  C   UNL     1       7.014  33.259  64.166  1.00  0.00    -0.023 A 
HETATM   30  C   UNL     1       5.887  33.516  63.355  1.00  0.00    -0.025 A 
HETATM   31  C   UNL     1       6.986  33.625  65.522  1.00  0.00     0.012 A 
HETATM   32  C   UNL     1       5.916  33.147  61.998  1.00  0.00     0.032 A 
HETATM   33  C   UNL     1       4.760  34.135  63.923  1.00  0.00     0.012 A 
HETATM   34  C   UNL     1       4.751  34.501  65.271  1.00  0.00     0.001 A 
HETATM   35  C   UNL     1       5.862  34.245  66.069  1.00  0.00     0.001 A 
BRANCH  27  36
HETATM   36  O   UNL     1       9.332  31.725  61.806  1.00  0.00    -0.355 OA
HETATM   37  C   UNL     1       9.330  30.316  62.032  1.00  0.00     0.210 C 
ENDBRANCH  27  36
ENDBRANCH  23  26
ENDBRANCH  20  22
ENDBRANCH   1  20
TORSDOF 8
ENDMDL
MODEL 4
REMARK VINA RESULT:     -10.3      2.964      4.969
REMARK  8 active torsions:
REMARK  status: ('A' for Active; 'I' for Inactive)
REMARK    1  A    between atoms: C_2  and  C_3 
REMARK    2  A    between atoms: C_3  and  C_4 
REMARK       I    between atoms: C_4  and  N_5 
REMARK    3  A    between atoms: N_8  and  C_9 
REMARK    4  A    between atoms: C_12  and  N_13 
REMARK    5  A    between atoms: N_13  and  C_14 
REMARK    6  A    between atoms: C_14  and  N_15 
REMARK       I    between atoms: N_15  and  C_16 
REMARK    7  A    between atoms: C_16  and  C_17 
REMARK    8  A    between atoms: C_18  and  O_19 
ROOT
HETATM    1  N   UNL     1       3.816  27.979  53.473  1.00  0.00    -0.333 N 
HETATM    2  H   UNL     1       2.840  28.012  53.198  1.00  0.00     0.168 HD
ENDROOT
BRANCH   1   3
HETATM    3  C   UNL     1       4.146  28.885  54.499  1.00  0.00     0.034 A 
HETATM    4  C   UNL     1       4.077  30.269  54.396  1.00  0.00     0.032 A 
HETATM    5  C   UNL     1       4.374  31.086  55.503  1.00  0.00     0.031 A 
HETATM    6  C   UNL     1       4.728  30.555  56.754  1.00  0.00     0.030 A 
HETATM    7  C   UNL     1       4.742  29.155  56.843  1.00  0.00     0.031 A 
HETATM    8  C   UNL     1       4.469  28.336  55.740  1.00  0.00     0.032 A 
BRANCH   6   9
HETATM    9  N   UNL     1       4.985  31.340  57.889  1.00  0.00    -0.378 N 
HETATM   10  C   UNL     1       6.326  31.274  58.506  1.00  0.00     0.143 C 
HETATM   11  C   UNL     1       6.538  32.422  59.514  1.00  0.00     0.145 C 
HETATM   12  N   UNL     1       5.440  32.574  60.476  1.00  0.00    -0.349 N 
HETATM   13  C   UNL     1       5.574  33.241  61.693  1.00  0.00     0.219 C 
HETATM   14  C   UNL     1       4.099  32.526  59.887  1.00  0.00     0.145 C 
HETATM   15  O   UNL     1       4.599  33.640  62.329  1.00  0.00    -0.273 OA
HETATM   16  C   UNL     1       3.906  31.353  58.912  1.00  0.00     0.143 C 
BRANCH  13  17
HETATM   17  C   UNL     1       6.991  33.426  62.217  1.00  0.00     0.103 C 
BRANCH  17  18
HETATM   18  C   UNL     1       7.247  32.629  63.496  1.00  0.00     0.005 C 
HETATM   19  C   UNL     1       7.347  33.539  64.710  1.00  0.00     0.005 C 
ENDBRANCH  17  18
ENDBRANCH  13  17
ENDBRANCH   6   9
ENDBRANCH   1   3
BRANCH   1  20
HETATM   20  C   UNL     1       4.566  27.282  52.600  1.00  0.00     0.179 C 
HETATM   21  S   UNL     1       4.463  27.687  50.975  1.00  0.00    -0.040 SA
BRANCH  20  22
HETATM   22  N   UNL     1       5.368  26.236  52.921  1.00  0.00    -0.299 N 
HETATM   23  C   UNL     1       6.638  26.235  53.500  1.00  0.00     0.260 C 
HETATM   24  O   UNL     1       7.399  27.189  53.575  1.00  0.00    -0.267 OA
HETATM   25  H   UNL     1       4.804  25.431  53.161  1.00  0.00     0.171 HD
BRANCH  23  26
HETATM   26  C   UNL     1       7.027  24.919  54.093  1.00  0.00     0.066 A 
HETATM   27  C   UNL     1       7.015  24.705  55.475  1.00  0.00     0.084 A 
HETATM   28  C   UNL     1       7.393  23.463  55.997  1.00  0.00     0.050 A 
HETATM   29  C   UNL     1       7.742  22.400  55.152  1.00  0.00    -0.023 A 
HETATM   30  C   UNL     1       7.748  22.603  53.754  1.00  0.00    -0.025 A 
HETATM   31  C   UNL     1       8.084  21.139  55.666  1.00  0.00     0.012 A 
HETATM   32  C   UNL     1       7.407  23.867  53.240  1.00  0.00     0.032 A 
HETATM   33  C   UNL     1       8.095  21.535  52.908  1.00  0.00     0.012 A 
HETATM   34  C   UNL     1       8.424  20.286  53.435  1.00  0.00     0.001 A 
HETATM   35  C   UNL     1       8.420  20.087  54.813  1.00  0.00     0.001 A 
BRANCH  27  36
HETATM   36  O   UNL     1       6.693  25.660  56.403  1.00  0.00    -0.355 OA
HETATM   37  C   UNL     1       7.656  25.734  57.453  1.00  0.00     0.210 C 
ENDBRANCH  27  36
ENDBRANCH  23  26
ENDBRANCH  20  22
ENDBRANCH   1  20
TORSDOF 8
ENDMDL
MODEL 5
REMARK VINA RESULT:     -10.2      2.402      3.848
REMARK  8 active torsions:
REMARK  status: ('A' for Active; 'I' for Inactive)
REMARK    1  A    between atoms: C_2  and  C_3 
REMARK    2  A    between atoms: C_3  and  C_4 
REMARK       I    between atoms: C_4  and  N_5 
REMARK    3  A    between atoms: N_8  and  C_9 
REMARK    4  A    between atoms: C_12  and  N_13 
REMARK    5  A    between atoms: N_13  and  C_14 
REMARK    6  A    between atoms: C_14  and  N_15 
REMARK       I    between atoms: N_15  and  C_16 
REMARK    7  A    between atoms: C_16  and  C_17 
REMARK    8  A    between atoms: C_18  and  O_19 
ROOT
HETATM    1  N   UNL     1       5.667  29.584  54.298  1.00  0.00    -0.333 N 
HETATM    2  H   UNL     1       6.201  30.147  53.645  1.00  0.00     0.168 HD
ENDROOT
BRANCH   1   3
HETATM    3  C   UNL     1       5.874  29.932  55.647  1.00  0.00     0.034 A 
HETATM    4  C   UNL     1       6.970  29.553  56.411  1.00  0.00     0.032 A 
HETATM    5  C   UNL     1       7.110  30.006  57.737  1.00  0.00     0.031 A 
HETATM    6  C   UNL     1       6.178  30.867  58.339  1.00  0.00     0.030 A 
HETATM    7  C   UNL     1       5.108  31.273  57.527  1.00  0.00     0.031 A 
HETATM    8  C   UNL     1       4.950  30.810  56.215  1.00  0.00     0.032 A 
BRANCH   6   9
HETATM    9  N   UNL     1       6.312  31.374  59.641  1.00  0.00    -0.378 N 
HETATM   10  C   UNL     1       5.470  32.518  60.045  1.00  0.00     0.143 C 
HETATM   11  C   UNL     1       5.500  32.727  61.572  1.00  0.00     0.145 C 
HETATM   12  N   UNL     1       6.854  32.748  62.139  1.00  0.00    -0.349 N 
HETATM   13  C   UNL     1       7.158  33.308  63.379  1.00  0.00     0.219 C 
HETATM   14  C   UNL     1       7.736  31.681  61.657  1.00  0.00     0.145 C 
HETATM   15  O   UNL     1       8.198  33.040  63.979  1.00  0.00    -0.273 OA
HETATM   16  C   UNL     1       7.710  31.517  60.128  1.00  0.00     0.143 C 
BRANCH  13  17
HETATM   17  C   UNL     1       6.150  34.298  63.946  1.00  0.00     0.103 C 
BRANCH  17  18
HETATM   18  C   UNL     1       5.329  33.701  65.088  1.00  0.00     0.005 C 
HETATM   19  C   UNL     1       5.567  34.441  66.394  1.00  0.00     0.005 C 
ENDBRANCH  17  18
ENDBRANCH  13  17
ENDBRANCH   6   9
ENDBRANCH   1   3
BRANCH   1  20
HETATM   20  C   UNL     1       5.132  28.497  53.713  1.00  0.00     0.179 C 
HETATM   21  S   UNL     1       3.672  28.676  52.906  1.00  0.00    -0.040 SA
BRANCH  20  22
HETATM   22  N   UNL     1       5.654  27.246  53.762  1.00  0.00    -0.299 N 
HETATM   23  C   UNL     1       6.990  26.842  53.801  1.00  0.00     0.260 C 
HETATM   24  O   UNL     1       7.960  27.526  53.512  1.00  0.00    -0.267 OA
HETATM   25  H   UNL     1       5.021  26.629  54.254  1.00  0.00     0.171 HD
BRANCH  23  26
HETATM   26  C   UNL     1       7.179  25.439  54.279  1.00  0.00     0.066 A 
HETATM   27  C   UNL     1       6.986  25.088  55.620  1.00  0.00     0.084 A 
HETATM   28  C   UNL     1       7.180  23.766  56.035  1.00  0.00     0.050 A 
HETATM   29  C   UNL     1       7.520  22.762  55.117  1.00  0.00    -0.023 A 
HETATM   30  C   UNL     1       7.707  23.104  53.759  1.00  0.00    -0.025 A 
HETATM   31  C   UNL     1       7.677  21.426  55.519  1.00  0.00     0.012 A 
HETATM   32  C   UNL     1       7.552  24.443  53.358  1.00  0.00     0.032 A 
HETATM   33  C   UNL     1       8.046  22.096  52.839  1.00  0.00     0.012 A 
HETATM   34  C   UNL     1       8.190  20.771  53.254  1.00  0.00     0.001 A 
HETATM   35  C   UNL     1       8.006  20.436  54.593  1.00  0.00     0.001 A 
BRANCH  27  36
HETATM   36  O   UNL     1       6.653  25.974  56.610  1.00  0.00    -0.355 OA
HETATM   37  C   UNL     1       7.652  26.043  57.626  1.00  0.00     0.210 C 
ENDBRANCH  27  36
ENDBRANCH  23  26
ENDBRANCH  20  22
ENDBRANCH   1  20
TORSDOF 8
ENDMDL
MODEL 6
REMARK VINA RESULT:     -10.0      2.838      4.023
REMARK  8 active torsions:
REMARK  status: ('A' for Active; 'I' for Inactive)
REMARK    1  A    between atoms: C_2  and  C_3 
REMARK    2  A    between atoms: C_3  and  C_4 
REMARK       I    between atoms: C_4  and  N_5 
REMARK    3  A    between atoms: N_8  and  C_9 
REMARK    4  A    between atoms: C_12  and  N_13 
REMARK    5  A    between atoms: N_13  and  C_14 
REMARK    6  A    between atoms: C_14  and  N_15 
REMARK       I    between atoms: N_15  and  C_16 
REMARK    7  A    between atoms: C_16  and  C_17 
REMARK    8  A    between atoms: C_18  and  O_19 
ROOT
HETATM    1  N   UNL     1       5.445  29.602  54.240  1.00  0.00    -0.333 N 
HETATM    2  H   UNL     1       6.181  30.011  53.675  1.00  0.00     0.168 HD
ENDROOT
BRANCH   1   3
HETATM    3  C   UNL     1       5.356  30.149  55.535  1.00  0.00     0.034 A 
HETATM    4  C   UNL     1       6.356  30.092  56.498  1.00  0.00     0.032 A 
HETATM    5  C   UNL     1       6.187  30.725  57.744  1.00  0.00     0.031 A 
HETATM    6  C   UNL     1       5.030  31.452  58.066  1.00  0.00     0.030 A 
HETATM    7  C   UNL     1       4.058  31.535  57.057  1.00  0.00     0.031 A 
HETATM    8  C   UNL     1       4.209  30.890  55.823  1.00  0.00     0.032 A 
BRANCH   6   9
HETATM    9  N   UNL     1       4.850  32.133  59.281  1.00  0.00    -0.378 N 
HETATM   10  C   UNL     1       5.990  32.220  60.217  1.00  0.00     0.143 C 
HETATM   11  C   UNL     1       5.729  33.263  61.323  1.00  0.00     0.145 C 
HETATM   12  N   UNL     1       4.424  33.118  61.977  1.00  0.00    -0.349 N 
HETATM   13  C   UNL     1       4.130  33.654  63.230  1.00  0.00     0.219 C 
HETATM   14  C   UNL     1       3.299  32.916  61.059  1.00  0.00     0.145 C 
HETATM   15  O   UNL     1       2.973  33.809  63.619  1.00  0.00    -0.273 OA
HETATM   16  C   UNL     1       3.574  31.847  59.988  1.00  0.00     0.143 C 
BRANCH  13  17
HETATM   17  C   UNL     1       5.316  34.011  64.115  1.00  0.00     0.103 C 
BRANCH  17  18
HETATM   18  C   UNL     1       5.289  35.473  64.561  1.00  0.00     0.005 C 
HETATM   19  C   UNL     1       5.625  36.413  63.415  1.00  0.00     0.005 C 
ENDBRANCH  17  18
ENDBRANCH  13  17
ENDBRANCH   6   9
ENDBRANCH   1   3
BRANCH   1  20
HETATM   20  C   UNL     1       4.950  28.477  53.694  1.00  0.00     0.179 C 
HETATM   21  S   UNL     1       3.467  28.567  52.913  1.00  0.00    -0.040 SA
BRANCH  20  22
HETATM   22  N   UNL     1       5.530  27.253  53.765  1.00  0.00    -0.299 N 
HETATM   23  C   UNL     1       6.878  26.916  53.894  1.00  0.00     0.260 C 
HETATM   24  O   UNL     1       7.831  27.652  53.684  1.00  0.00    -0.267 OA
HETATM   25  H   UNL     1       4.896  26.597  54.203  1.00  0.00     0.171 HD
BRANCH  23  26
HETATM   26  C   UNL     1       7.104  25.516  54.366  1.00  0.00     0.066 A 
HETATM   27  C   UNL     1       6.969  25.165  55.715  1.00  0.00     0.084 A 
HETATM   28  C   UNL     1       7.197  23.847  56.124  1.00  0.00     0.050 A 
HETATM   29  C   UNL     1       7.513  22.846  55.195  1.00  0.00    -0.023 A 
HETATM   30  C   UNL     1       7.642  23.187  53.830  1.00  0.00    -0.025 A 
HETATM   31  C   UNL     1       7.703  21.513  55.593  1.00  0.00     0.012 A 
HETATM   32  C   UNL     1       7.453  24.522  53.433  1.00  0.00     0.032 A 
HETATM   33  C   UNL     1       7.957  22.181  52.899  1.00  0.00     0.012 A 
HETATM   34  C   UNL     1       8.134  20.859  53.311  1.00  0.00     0.001 A 
HETATM   35  C   UNL     1       8.008  20.525  54.656  1.00  0.00     0.001 A 
BRANCH  27  36
HETATM   36  O   UNL     1       6.664  26.049  56.715  1.00  0.00    -0.355 OA
HETATM   37  C   UNL     1       7.823  26.463  57.437  1.00  0.00     0.210 C 
ENDBRANCH  27  36
ENDBRANCH  23  26
ENDBRANCH  20  22
ENDBRANCH   1  20
TORSDOF 8
ENDMDL
MODEL 7
REMARK VINA RESULT:      -9.9      7.590     13.136
REMARK  8 active torsions:
REMARK  status: ('A' for Active; 'I' for Inactive)
REMARK    1  A    between atoms: C_2  and  C_3 
REMARK    2  A    between atoms: C_3  and  C_4 
REMARK       I    between atoms: C_4  and  N_5 
REMARK    3  A    between atoms: N_8  and  C_9 
REMARK    4  A    between atoms: C_12  and  N_13 
REMARK    5  A    between atoms: N_13  and  C_14 
REMARK    6  A    between atoms: C_14  and  N_15 
REMARK       I    between atoms: N_15  and  C_16 
REMARK    7  A    between atoms: C_16  and  C_17 
REMARK    8  A    between atoms: C_18  and  O_19 
ROOT
HETATM    1  N   UNL     1       6.097  28.623  52.974  1.00  0.00    -0.333 N 
HETATM    2  H   UNL     1       6.868  29.248  52.763  1.00  0.00     0.168 HD
ENDROOT
BRANCH   1   3
HETATM    3  C   UNL     1       5.100  28.600  51.980  1.00  0.00     0.034 A 
HETATM    4  C   UNL     1       3.916  29.326  52.018  1.00  0.00     0.032 A 
HETATM    5  C   UNL     1       3.010  29.276  50.942  1.00  0.00     0.031 A 
HETATM    6  C   UNL     1       3.260  28.522  49.785  1.00  0.00     0.030 A 
HETATM    7  C   UNL     1       4.485  27.838  49.752  1.00  0.00     0.031 A 
HETATM    8  C   UNL     1       5.382  27.865  50.828  1.00  0.00     0.032 A 
BRANCH   6   9
HETATM    9  N   UNL     1       2.399  28.488  48.676  1.00  0.00    -0.378 N 
HETATM   10  C   UNL     1       1.297  29.468  48.607  1.00  0.00     0.143 C 
HETATM   11  C   UNL     1       0.670  29.510  47.198  1.00  0.00     0.145 C 
HETATM   12  N   UNL     1       0.331  28.186  46.662  1.00  0.00    -0.349 N 
HETATM   13  C   UNL     1      -0.583  27.989  45.629  1.00  0.00     0.219 C 
HETATM   14  C   UNL     1       1.377  27.173  46.829  1.00  0.00     0.145 C 
HETATM   15  O   UNL     1      -0.618  26.943  44.980  1.00  0.00    -0.273 OA
HETATM   16  C   UNL     1       1.961  27.132  48.251  1.00  0.00     0.143 C 
BRANCH  13  17
HETATM   17  C   UNL     1      -1.564  29.121  45.359  1.00  0.00     0.103 C 
BRANCH  17  18
HETATM   18  C   UNL     1      -1.874  29.278  43.871  1.00  0.00     0.005 C 
HETATM   19  C   UNL     1      -0.959  30.298  43.215  1.00  0.00     0.005 C 
ENDBRANCH  17  18
ENDBRANCH  13  17
ENDBRANCH   6   9
ENDBRANCH   1   3
BRANCH   1  20
HETATM   20  C   UNL     1       6.115  28.209  54.254  1.00  0.00     0.179 C 
HETATM   21  S   UNL     1       5.916  29.361  55.457  1.00  0.00    -0.040 SA
BRANCH  20  22
HETATM   22  N   UNL     1       6.333  26.933  54.659  1.00  0.00    -0.299 N 
HETATM   23  C   UNL     1       5.776  25.744  54.185  1.00  0.00     0.260 C 
HETATM   24  O   UNL     1       4.770  25.639  53.500  1.00  0.00    -0.267 OA
HETATM   25  H   UNL     1       7.280  26.838  55.002  1.00  0.00     0.171 HD
BRANCH  23  26
HETATM   26  C   UNL     1       6.554  24.525  54.563  1.00  0.00     0.066 A 
HETATM   27  C   UNL     1       6.934  24.279  55.888  1.00  0.00     0.084 A 
HETATM   28  C   UNL     1       7.669  23.132  56.206  1.00  0.00     0.050 A 
HETATM   29  C   UNL     1       7.997  22.187  55.223  1.00  0.00    -0.023 A 
HETATM   30  C   UNL     1       7.610  22.421  53.885  1.00  0.00    -0.025 A 
HETATM   31  C   UNL     1       8.700  21.014  55.543  1.00  0.00     0.012 A 
HETATM   32  C   UNL     1       6.908  23.597  53.567  1.00  0.00     0.032 A 
HETATM   33  C   UNL     1       7.937  21.472  52.902  1.00  0.00     0.012 A 
HETATM   34  C   UNL     1       8.629  20.307  53.237  1.00  0.00     0.001 A 
HETATM   35  C   UNL     1       9.011  20.078  54.556  1.00  0.00     0.001 A 
BRANCH  27  36
HETATM   36  O   UNL     1       6.674  25.122  56.935  1.00  0.00    -0.355 OA
HETATM   37  C   UNL     1       7.870  25.602  57.547  1.00  0.00     0.210 C 
ENDBRANCH  27  36
ENDBRANCH  23  26
ENDBRANCH  20  22
ENDBRANCH   1  20
TORSDOF 8
ENDMDL
MODEL 8
REMARK VINA RESULT:      -9.8      3.326     11.559
REMARK  8 active torsions:
REMARK  status: ('A' for Active; 'I' for Inactive)
REMARK    1  A    between atoms: C_2  and  C_3 
REMARK    2  A    between atoms: C_3  and  C_4 
REMARK       I    between atoms: C_4  and  N_5 
REMARK    3  A    between atoms: N_8  and  C_9 
REMARK    4  A    between atoms: C_12  and  N_13 
REMARK    5  A    between atoms: N_13  and  C_14 
REMARK    6  A    between atoms: C_14  and  N_15 
REMARK       I    between atoms: N_15  and  C_16 
REMARK    7  A    between atoms: C_16  and  C_17 
REMARK    8  A    between atoms: C_18  and  O_19 
ROOT
HETATM    1  N   UNL     1       3.925  31.592  56.306  1.00  0.00    -0.333 N 
HETATM    2  H   UNL     1       2.911  31.621  56.328  1.00  0.00     0.168 HD
ENDROOT
BRANCH   1   3
HETATM    3  C   UNL     1       4.450  30.302  56.098  1.00  0.00     0.034 A 
HETATM    4  C   UNL     1       4.587  29.685  54.861  1.00  0.00     0.032 A 
HETATM    5  C   UNL     1       5.179  28.412  54.757  1.00  0.00     0.031 A 
HETATM    6  C   UNL     1       5.675  27.721  55.874  1.00  0.00     0.030 A 
HETATM    7  C   UNL     1       5.570  28.389  57.103  1.00  0.00     0.031 A 
HETATM    8  C   UNL     1       4.961  29.646  57.218  1.00  0.00     0.032 A 
BRANCH   6   9
HETATM    9  N   UNL     1       6.313  26.473  55.798  1.00  0.00    -0.378 N 
HETATM   10  C   UNL     1       5.809  25.479  54.828  1.00  0.00     0.143 C 
HETATM   11  C   UNL     1       6.808  24.319  54.642  1.00  0.00     0.145 C 
HETATM   12  N   UNL     1       7.282  23.739  55.905  1.00  0.00    -0.349 N 
HETATM   13  C   UNL     1       7.846  22.468  56.001  1.00  0.00     0.219 C 
HETATM   14  C   UNL     1       7.677  24.721  56.918  1.00  0.00     0.145 C 
HETATM   15  O   UNL     1       8.522  22.126  56.971  1.00  0.00    -0.273 OA
HETATM   16  C   UNL     1       6.648  25.849  57.105  1.00  0.00     0.143 C 
BRANCH  13  17
HETATM   17  C   UNL     1       7.558  21.506  54.857  1.00  0.00     0.103 C 
BRANCH  17  18
HETATM   18  C   UNL     1       8.793  21.242  53.995  1.00  0.00     0.005 C 
HETATM   19  C   UNL     1       8.456  20.388  52.784  1.00  0.00     0.005 C 
ENDBRANCH  17  18
ENDBRANCH  13  17
ENDBRANCH   6   9
ENDBRANCH   1   3
BRANCH   1  20
HETATM   20  C   UNL     1       4.476  32.736  56.752  1.00  0.00     0.179 C 
HETATM   21  S   UNL     1       4.758  33.960  55.639  1.00  0.00    -0.040 SA
BRANCH  20  22
HETATM   22  N   UNL     1       4.872  32.966  58.029  1.00  0.00    -0.299 N 
HETATM   23  C   UNL     1       4.330  32.494  59.226  1.00  0.00     0.260 C 
HETATM   24  O   UNL     1       3.219  32.007  59.374  1.00  0.00    -0.267 OA
HETATM   25  H   UNL     1       5.873  33.112  58.057  1.00  0.00     0.171 HD
BRANCH  23  26
HETATM   26  C   UNL     1       5.263  32.597  60.388  1.00  0.00     0.066 A 
HETATM   27  C   UNL     1       6.635  32.355  60.252  1.00  0.00     0.084 A 
HETATM   28  C   UNL     1       7.479  32.452  61.364  1.00  0.00     0.050 A 
HETATM   29  C   UNL     1       6.983  32.838  62.617  1.00  0.00    -0.023 A 
HETATM   30  C   UNL     1       5.601  33.095  62.763  1.00  0.00    -0.025 A 
HETATM   31  C   UNL     1       7.831  32.977  63.728  1.00  0.00     0.012 A 
HETATM   32  C   UNL     1       4.753  32.954  61.650  1.00  0.00     0.032 A 
HETATM   33  C   UNL     1       5.106  33.485  64.019  1.00  0.00     0.012 A 
HETATM   34  C   UNL     1       5.964  33.626  65.111  1.00  0.00     0.001 A 
HETATM   35  C   UNL     1       7.325  33.372  64.966  1.00  0.00     0.001 A 
BRANCH  27  36
HETATM   36  O   UNL     1       7.239  31.972  59.085  1.00  0.00    -0.355 OA
HETATM   37  C   UNL     1       8.122  30.868  59.274  1.00  0.00     0.210 C 
ENDBRANCH  27  36
ENDBRANCH  23  26
ENDBRANCH  20  22
ENDBRANCH   1  20
TORSDOF 8
ENDMDL
MODEL 9
REMARK VINA RESULT:      -9.7      2.626     12.300
REMARK  8 active torsions:
REMARK  status: ('A' for Active; 'I' for Inactive)
REMARK    1  A    between atoms: C_2  and  C_3 
REMARK    2  A    between atoms: C_3  and  C_4 
REMARK       I    between atoms: C_4  and  N_5 
REMARK    3  A    between atoms: N_8  and  C_9 
REMARK    4  A    between atoms: C_12  and  N_13 
REMARK    5  A    between atoms: N_13  and  C_14 
REMARK    6  A    between atoms: C_14  and  N_15 
REMARK       I    between atoms: N_15  and  C_16 
REMARK    7  A    between atoms: C_16  and  C_17 
REMARK    8  A    between atoms: C_18  and  O_19 
ROOT
HETATM    1  N   UNL     1       6.256  32.439  59.116  1.00  0.00    -0.333 N 
HETATM    2  H   UNL     1       6.889  33.118  58.705  1.00  0.00     0.168 HD
ENDROOT
BRANCH   1   3
HETATM    3  C   UNL     1       6.412  31.137  58.603  1.00  0.00     0.034 A 
HETATM    4  C   UNL     1       5.456  30.447  57.869  1.00  0.00     0.032 A 
HETATM    5  C   UNL     1       5.736  29.169  57.351  1.00  0.00     0.031 A 
HETATM    6  C   UNL     1       6.981  28.544  57.525  1.00  0.00     0.030 A 
HETATM    7  C   UNL     1       7.944  29.284  58.227  1.00  0.00     0.031 A 
HETATM    8  C   UNL     1       7.667  30.547  58.765  1.00  0.00     0.032 A 
BRANCH   6   9
HETATM    9  N   UNL     1       7.308  27.291  56.982  1.00  0.00    -0.378 N 
HETATM   10  C   UNL     1       6.489  26.768  55.870  1.00  0.00     0.143 C 
HETATM   11  C   UNL     1       7.173  25.567  55.186  1.00  0.00     0.145 C 
HETATM   12  N   UNL     1       7.638  24.538  56.124  1.00  0.00    -0.349 N 
HETATM   13  C   UNL     1       7.907  23.223  55.749  1.00  0.00     0.219 C 
HETATM   14  C   UNL     1       8.354  25.057  57.293  1.00  0.00     0.145 C 
HETATM   15  O   UNL     1       8.590  22.473  56.445  1.00  0.00    -0.273 OA
HETATM   16  C   UNL     1       7.634  26.233  57.974  1.00  0.00     0.143 C 
BRANCH  13  17
HETATM   17  C   UNL     1       7.285  22.745  54.444  1.00  0.00     0.103 C 
BRANCH  17  18
HETATM   18  C   UNL     1       8.288  22.739  53.291  1.00  0.00     0.005 C 
HETATM   19  C   UNL     1       8.056  23.904  52.343  1.00  0.00     0.005 C 
ENDBRANCH  17  18
ENDBRANCH  13  17
ENDBRANCH   6   9
ENDBRANCH   1   3
BRANCH   1  20
HETATM   20  C   UNL     1       5.274  33.025  59.826  1.00  0.00     0.179 C 
HETATM   21  S   UNL     1       3.867  33.453  59.019  1.00  0.00    -0.040 SA
BRANCH  20  22
HETATM   22  N   UNL     1       5.347  33.347  61.141  1.00  0.00    -0.299 N 
HETATM   23  C   UNL     1       4.835  32.671  62.250  1.00  0.00     0.260 C 
HETATM   24  O   UNL     1       3.976  31.802  62.234  1.00  0.00    -0.267 OA
HETATM   25  H   UNL     1       6.204  33.852  61.325  1.00  0.00     0.171 HD
BRANCH  23  26
HETATM   26  C   UNL     1       5.464  33.077  63.544  1.00  0.00     0.066 A 
HETATM   27  C   UNL     1       6.853  33.160  63.690  1.00  0.00     0.084 A 
HETATM   28  C   UNL     1       7.410  33.535  64.917  1.00  0.00     0.050 A 
HETATM   29  C   UNL     1       6.595  33.882  66.005  1.00  0.00    -0.023 A 
HETATM   30  C   UNL     1       5.191  33.811  65.865  1.00  0.00    -0.025 A 
HETATM   31  C   UNL     1       7.146  34.298  67.227  1.00  0.00     0.012 A 
HETATM   32  C   UNL     1       4.641  33.392  64.640  1.00  0.00     0.032 A 
HETATM   33  C   UNL     1       4.376  34.162  66.955  1.00  0.00     0.012 A 
HETATM   34  C   UNL     1       4.939  34.582  68.161  1.00  0.00     0.001 A 
HETATM   35  C   UNL     1       6.323  34.649  68.298  1.00  0.00     0.001 A 
BRANCH  27  36
HETATM   36  O   UNL     1       7.753  32.849  62.705  1.00  0.00    -0.355 OA
HETATM   37  C   UNL     1       8.150  31.480  62.754  1.00  0.00     0.210 C 
ENDBRANCH  27  36
ENDBRANCH  23  26
ENDBRANCH  20  22
ENDBRANCH   1  20
TORSDOF 8
ENDMDL
MODEL 10
REMARK VINA RESULT:      -9.2      8.193     12.469
REMARK  8 active torsions:
REMARK  status: ('A' for Active; 'I' for Inactive)
REMARK    1  A    between atoms: C_2  and  C_3 
REMARK    2  A    between atoms: C_3  and  C_4 
REMARK       I    between atoms: C_4  and  N_5 
REMARK    3  A    between atoms: N_8  and  C_9 
REMARK    4  A    between atoms: C_12  and  N_13 
REMARK    5  A    between atoms: N_13  and  C_14 
REMARK    6  A    between atoms: C_14  and  N_15 
REMARK       I    between atoms: N_15  and  C_16 
REMARK    7  A    between atoms: C_16  and  C_17 
REMARK    8  A    between atoms: C_18  and  O_19 
ROOT
HETATM    1  N   UNL     1       3.568  27.916  52.209  1.00  0.00    -0.333 N 
HETATM    2  H   UNL     1       2.813  27.284  51.964  1.00  0.00     0.168 HD
ENDROOT
BRANCH   1   3
HETATM    3  C   UNL     1       3.932  28.793  51.169  1.00  0.00     0.034 A 
HETATM    4  C   UNL     1       3.045  29.402  50.290  1.00  0.00     0.032 A 
HETATM    5  C   UNL     1       3.509  30.310  49.320  1.00  0.00     0.031 A 
HETATM    6  C   UNL     1       4.864  30.660  49.205  1.00  0.00     0.030 A 
HETATM    7  C   UNL     1       5.730  30.068  50.138  1.00  0.00     0.031 A 
HETATM    8  C   UNL     1       5.280  29.147  51.092  1.00  0.00     0.032 A 
BRANCH   6   9
HETATM    9  N   UNL     1       5.352  31.597  48.280  1.00  0.00    -0.378 N 
HETATM   10  C   UNL     1       6.037  32.802  48.790  1.00  0.00     0.143 C 
HETATM   11  C   UNL     1       6.789  33.540  47.663  1.00  0.00     0.145 C 
HETATM   12  N   UNL     1       5.975  33.772  46.463  1.00  0.00    -0.349 N 
HETATM   13  C   UNL     1       6.280  34.738  45.506  1.00  0.00     0.219 C 
HETATM   14  C   UNL     1       5.201  32.612  46.015  1.00  0.00     0.145 C 
HETATM   15  O   UNL     1       5.798  34.710  44.373  1.00  0.00    -0.273 OA
HETATM   16  C   UNL     1       4.436  31.915  47.153  1.00  0.00     0.143 C 
BRANCH  13  17
HETATM   17  C   UNL     1       7.218  35.856  45.938  1.00  0.00     0.103 C 
BRANCH  17  18
HETATM   18  C   UNL     1       7.041  37.121  45.099  1.00  0.00     0.005 C 
HETATM   19  C   UNL     1       8.101  37.225  44.015  1.00  0.00     0.005 C 
ENDBRANCH  17  18
ENDBRANCH  13  17
ENDBRANCH   6   9
ENDBRANCH   1   3
BRANCH   1  20
HETATM   20  C   UNL     1       4.183  27.555  53.350  1.00  0.00     0.179 C 
HETATM   21  S   UNL     1       4.284  28.687  54.583  1.00  0.00    -0.040 SA
BRANCH  20  22
HETATM   22  N   UNL     1       4.779  26.356  53.570  1.00  0.00    -0.299 N 
HETATM   23  C   UNL     1       5.932  25.819  52.995  1.00  0.00     0.260 C 
HETATM   24  O   UNL     1       6.477  26.205  51.972  1.00  0.00    -0.267 OA
HETATM   25  H   UNL     1       4.617  26.062  54.525  1.00  0.00     0.171 HD
BRANCH  23  26
HETATM   26  C   UNL     1       6.519  24.687  53.775  1.00  0.00     0.066 A 
HETATM   27  C   UNL     1       6.573  24.709  55.174  1.00  0.00     0.084 A 
HETATM   28  C   UNL     1       7.137  23.637  55.872  1.00  0.00     0.050 A 
HETATM   29  C   UNL     1       7.614  22.505  55.196  1.00  0.00    -0.023 A 
HETATM   30  C   UNL     1       7.556  22.468  53.785  1.00  0.00    -0.025 A 
HETATM   31  C   UNL     1       8.145  21.407  55.893  1.00  0.00     0.012 A 
HETATM   32  C   UNL     1       7.026  23.568  53.089  1.00  0.00     0.032 A 
HETATM   33  C   UNL     1       8.032  21.331  53.109  1.00  0.00     0.012 A 
HETATM   34  C   UNL     1       8.549  20.245  53.818  1.00  0.00     0.001 A 
HETATM   35  C   UNL     1       8.607  20.283  55.208  1.00  0.00     0.001 A 
BRANCH  27  36
HETATM   36  O   UNL     1       6.141  25.754  55.946  1.00  0.00    -0.355 OA
HETATM   37  C   UNL     1       5.255  25.327  56.980  1.00  0.00     0.210 C 
ENDBRANCH  27  36
ENDBRANCH  23  26
ENDBRANCH  20  22
ENDBRANCH   1  20
TORSDOF 8
ENDMDL
