MODEL 1
REMARK VINA RESULT:     -10.1      0.000      0.000
REMARK  5 active torsions:
REMARK  status: ('A' for Active; 'I' for Inactive)
REMARK    1  A    between atoms: C_4  and  C_5 
REMARK    2  A    between atoms: C_10  and  C_11 
REMARK    3  A    between atoms: N_12  and  N_13 
REMARK       I    between atoms: N_13  and  C_14 
REMARK    4  A    between atoms: C_14  and  C_15 
REMARK    5  A    between atoms: C_16  and  O_17 
ROOT
HETATM    1  C   UNL     1       7.353  24.490  55.420  1.00  0.00     0.055 A 
HETATM    2  N   UNL     1       7.644  23.368  56.162  1.00  0.00    -0.354 N 
HETATM    3  H   UNL     1       7.632  23.329  57.171  1.00  0.00     0.166 HD
HETATM    4  C   UNL     1       7.927  22.298  55.350  1.00  0.00     0.043 A 
HETATM    5  C   UNL     1       7.812  22.744  54.033  1.00  0.00     0.005 A 
HETATM    6  C   UNL     1       7.456  24.134  54.078  1.00  0.00     0.023 A 
HETATM    7  C   UNL     1       8.269  20.982  55.684  1.00  0.00     0.030 A 
HETATM    8  C   UNL     1       8.505  20.087  54.637  1.00  0.00     0.002 A 
HETATM    9  C   UNL     1       8.401  20.496  53.311  1.00  0.00     0.001 A 
HETATM   10  C   UNL     1       8.057  21.816  52.997  1.00  0.00     0.014 A 
ENDROOT
BRANCH   6  11
HETATM   11  C   UNL     1       7.249  25.051  52.973  1.00  0.00     0.153 C 
HETATM   12  N   UNL     1       6.179  24.966  52.251  1.00  0.00    -0.183 NA
BRANCH  12  13
HETATM   13  N   UNL     1       6.067  25.868  51.233  1.00  0.00    -0.243 N 
HETATM   14  C   UNL     1       5.199  26.940  51.370  1.00  0.00     0.274 C 
HETATM   15  O   UNL     1       4.525  27.188  52.370  1.00  0.00    -0.266 OA
HETATM   16  H   UNL     1       6.704  25.806  50.449  1.00  0.00     0.192 HD
BRANCH  14  17
HETATM   17  C   UNL     1       5.138  27.893  50.228  1.00  0.00     0.066 A 
HETATM   18  C   UNL     1       5.564  29.218  50.415  1.00  0.00     0.081 A 
HETATM   19  C   UNL     1       5.544  30.126  49.359  1.00  0.00     0.037 A 
HETATM   20  C   UNL     1       5.074  29.728  48.109  1.00  0.00     0.003 A 
HETATM   21  C   UNL     1       4.618  28.425  47.917  1.00  0.00     0.001 A 
HETATM   22  C   UNL     1       4.644  27.508  48.973  1.00  0.00     0.020 A 
BRANCH  18  23
HETATM   23  O   UNL     1       6.019  29.696  51.617  1.00  0.00    -0.360 OA
HETATM   24  H   UNL     1       5.546  30.539  51.802  1.00  0.00     0.217 HD
ENDBRANCH  18  23
ENDBRANCH  14  17
ENDBRANCH  12  13
ENDBRANCH   6  11
BRANCH   1  25
HETATM   25  C   UNL     1       6.991  25.749  56.065  1.00  0.00    -0.009 A 
HETATM   26  C   UNL     1       5.681  26.237  55.982  1.00  0.00     0.014 A 
HETATM   27  C   UNL     1       5.337  27.444  56.594  1.00  0.00     0.001 A 
HETATM   28  C   UNL     1       6.299  28.170  57.295  1.00  0.00     0.000 A 
HETATM   29  C   UNL     1       7.607  27.692  57.381  1.00  0.00     0.001 A 
HETATM   30  C   UNL     1       7.952  26.487  56.768  1.00  0.00     0.014 A 
ENDBRANCH   1  25
TORSDOF 5
ENDMDL
MODEL 2
REMARK VINA RESULT:      -9.7      1.516      4.750
REMARK  5 active torsions:
REMARK  status: ('A' for Active; 'I' for Inactive)
REMARK    1  A    between atoms: C_4  and  C_5 
REMARK    2  A    between atoms: C_10  and  C_11 
REMARK    3  A    between atoms: N_12  and  N_13 
REMARK       I    between atoms: N_13  and  C_14 
REMARK    4  A    between atoms: C_14  and  C_15 
REMARK    5  A    between atoms: C_16  and  O_17 
ROOT
HETATM    1  C   UNL     1       7.531  24.447  55.018  1.00  0.00     0.055 A 
HETATM    2  N   UNL     1       8.056  24.928  56.196  1.00  0.00    -0.354 N 
HETATM    3  H   UNL     1       8.590  24.378  56.852  1.00  0.00     0.166 HD
HETATM    4  C   UNL     1       7.783  26.265  56.348  1.00  0.00     0.043 A 
HETATM    5  C   UNL     1       7.056  26.664  55.227  1.00  0.00     0.005 A 
HETATM    6  C   UNL     1       6.890  25.510  54.389  1.00  0.00     0.023 A 
HETATM    7  C   UNL     1       8.128  27.139  57.387  1.00  0.00     0.030 A 
HETATM    8  C   UNL     1       7.713  28.470  57.278  1.00  0.00     0.002 A 
HETATM    9  C   UNL     1       6.986  28.903  56.175  1.00  0.00     0.001 A 
HETATM   10  C   UNL     1       6.652  28.015  55.146  1.00  0.00     0.014 A 
ENDROOT
BRANCH   6  11
HETATM   11  C   UNL     1       6.184  25.404  53.125  1.00  0.00     0.153 C 
HETATM   12  N   UNL     1       6.594  26.070  52.095  1.00  0.00    -0.183 NA
BRANCH  12  13
HETATM   13  N   UNL     1       5.870  25.911  50.948  1.00  0.00    -0.243 N 
HETATM   14  C   UNL     1       4.936  26.873  50.597  1.00  0.00     0.274 C 
HETATM   15  O   UNL     1       4.716  27.912  51.219  1.00  0.00    -0.266 OA
HETATM   16  H   UNL     1       6.110  25.157  50.316  1.00  0.00     0.192 HD
BRANCH  14  17
HETATM   17  C   UNL     1       4.194  26.643  49.328  1.00  0.00     0.066 A 
HETATM   18  C   UNL     1       3.898  27.736  48.497  1.00  0.00     0.081 A 
HETATM   19  C   UNL     1       3.228  27.549  47.290  1.00  0.00     0.037 A 
HETATM   20  C   UNL     1       2.823  26.271  46.910  1.00  0.00     0.003 A 
HETATM   21  C   UNL     1       3.082  25.181  47.739  1.00  0.00     0.001 A 
HETATM   22  C   UNL     1       3.762  25.364  48.948  1.00  0.00     0.020 A 
BRANCH  18  23
HETATM   23  O   UNL     1       4.240  29.026  48.807  1.00  0.00    -0.360 OA
HETATM   24  H   UNL     1       4.972  29.296  48.205  1.00  0.00     0.217 HD
ENDBRANCH  18  23
ENDBRANCH  14  17
ENDBRANCH  12  13
ENDBRANCH   6  11
BRANCH   1  25
HETATM   25  C   UNL     1       7.718  23.054  54.621  1.00  0.00    -0.009 A 
HETATM   26  C   UNL     1       7.975  22.726  53.285  1.00  0.00     0.014 A 
HETATM   27  C   UNL     1       8.148  21.393  52.905  1.00  0.00     0.001 A 
HETATM   28  C   UNL     1       8.066  20.380  53.860  1.00  0.00     0.000 A 
HETATM   29  C   UNL     1       7.808  20.697  55.193  1.00  0.00     0.001 A 
HETATM   30  C   UNL     1       7.633  22.029  55.573  1.00  0.00     0.014 A 
ENDBRANCH   1  25
TORSDOF 5
ENDMDL
MODEL 3
REMARK VINA RESULT:      -9.4      2.706      7.277
REMARK  5 active torsions:
REMARK  status: ('A' for Active; 'I' for Inactive)
REMARK    1  A    between atoms: C_4  and  C_5 
REMARK    2  A    between atoms: C_10  and  C_11 
REMARK    3  A    between atoms: N_12  and  N_13 
REMARK       I    between atoms: N_13  and  C_14 
REMARK    4  A    between atoms: C_14  and  C_15 
REMARK    5  A    between atoms: C_16  and  O_17 
ROOT
HETATM    1  C   UNL     1       6.068  25.934  52.290  1.00  0.00     0.055 A 
HETATM    2  N   UNL     1       5.491  25.536  51.106  1.00  0.00    -0.354 N 
HETATM    3  H   UNL     1       5.428  24.579  50.793  1.00  0.00     0.166 HD
HETATM    4  C   UNL     1       4.983  26.610  50.419  1.00  0.00     0.043 A 
HETATM    5  C   UNL     1       5.241  27.746  51.187  1.00  0.00     0.005 A 
HETATM    6  C   UNL     1       5.935  27.317  52.368  1.00  0.00     0.023 A 
HETATM    7  C   UNL     1       4.319  26.656  49.186  1.00  0.00     0.030 A 
HETATM    8  C   UNL     1       3.904  27.906  48.719  1.00  0.00     0.002 A 
HETATM    9  C   UNL     1       4.145  29.060  49.457  1.00  0.00     0.001 A 
HETATM   10  C   UNL     1       4.809  28.995  50.688  1.00  0.00     0.014 A 
ENDROOT
BRANCH   6  11
HETATM   11  C   UNL     1       6.443  28.125  53.462  1.00  0.00     0.153 C 
HETATM   12  N   UNL     1       7.692  28.059  53.791  1.00  0.00    -0.183 NA
BRANCH  12  13
HETATM   13  N   UNL     1       8.083  28.853  54.831  1.00  0.00    -0.243 N 
HETATM   14  C   UNL     1       8.183  28.306  56.100  1.00  0.00     0.274 C 
HETATM   15  O   UNL     1       7.984  27.125  56.385  1.00  0.00    -0.266 OA
HETATM   16  H   UNL     1       8.407  29.793  54.637  1.00  0.00     0.192 HD
BRANCH  14  17
HETATM   17  C   UNL     1       8.629  29.224  57.183  1.00  0.00     0.066 A 
HETATM   18  C   UNL     1       9.812  29.962  57.015  1.00  0.00     0.081 A 
HETATM   19  C   UNL     1      10.241  30.849  57.999  1.00  0.00     0.037 A 
HETATM   20  C   UNL     1       9.508  30.992  59.175  1.00  0.00     0.003 A 
HETATM   21  C   UNL     1       8.348  30.243  59.370  1.00  0.00     0.001 A 
HETATM   22  C   UNL     1       7.909  29.357  58.380  1.00  0.00     0.020 A 
BRANCH  18  23
HETATM   23  O   UNL     1      10.604  29.863  55.901  1.00  0.00    -0.360 OA
HETATM   24  H   UNL     1      11.540  29.966  56.188  1.00  0.00     0.217 HD
ENDBRANCH  18  23
ENDBRANCH  14  17
ENDBRANCH  12  13
ENDBRANCH   6  11
BRANCH   1  25
HETATM   25  C   UNL     1       6.653  24.962  53.210  1.00  0.00    -0.009 A 
HETATM   26  C   UNL     1       7.705  24.136  52.794  1.00  0.00     0.014 A 
HETATM   27  C   UNL     1       8.259  23.203  53.673  1.00  0.00     0.001 A 
HETATM   28  C   UNL     1       7.766  23.089  54.973  1.00  0.00     0.000 A 
HETATM   29  C   UNL     1       6.717  23.906  55.394  1.00  0.00     0.001 A 
HETATM   30  C   UNL     1       6.161  24.838  54.515  1.00  0.00     0.014 A 
ENDBRANCH   1  25
TORSDOF 5
ENDMDL
MODEL 4
REMARK VINA RESULT:      -9.2      1.305      1.685
REMARK  5 active torsions:
REMARK  status: ('A' for Active; 'I' for Inactive)
REMARK    1  A    between atoms: C_4  and  C_5 
REMARK    2  A    between atoms: C_10  and  C_11 
REMARK    3  A    between atoms: N_12  and  N_13 
REMARK       I    between atoms: N_13  and  C_14 
REMARK    4  A    between atoms: C_14  and  C_15 
REMARK    5  A    between atoms: C_16  and  O_17 
ROOT
HETATM    1  C   UNL     1       7.442  25.300  55.552  1.00  0.00     0.055 A 
HETATM    2  N   UNL     1       7.798  24.131  56.183  1.00  0.00    -0.354 N 
HETATM    3  H   UNL     1       7.936  24.036  57.179  1.00  0.00     0.166 HD
HETATM    4  C   UNL     1       7.912  23.099  55.285  1.00  0.00     0.043 A 
HETATM    5  C   UNL     1       7.617  23.620  54.025  1.00  0.00     0.005 A 
HETATM    6  C   UNL     1       7.327  25.016  54.194  1.00  0.00     0.023 A 
HETATM    7  C   UNL     1       8.249  21.756  55.497  1.00  0.00     0.030 A 
HETATM    8  C   UNL     1       8.288  20.914  54.382  1.00  0.00     0.002 A 
HETATM    9  C   UNL     1       8.002  21.399  53.110  1.00  0.00     0.001 A 
HETATM   10  C   UNL     1       7.666  22.744  52.918  1.00  0.00     0.014 A 
ENDROOT
BRANCH   6  11
HETATM   11  C   UNL     1       6.991  26.000  53.181  1.00  0.00     0.153 C 
HETATM   12  N   UNL     1       5.752  26.247  52.903  1.00  0.00    -0.183 NA
BRANCH  12  13
HETATM   13  N   UNL     1       5.528  27.186  51.937  1.00  0.00    -0.243 N 
HETATM   14  C   UNL     1       5.006  26.790  50.715  1.00  0.00     0.274 C 
HETATM   15  O   UNL     1       4.677  25.642  50.420  1.00  0.00    -0.266 OA
HETATM   16  H   UNL     1       5.635  28.165  52.170  1.00  0.00     0.192 HD
BRANCH  14  17
HETATM   17  C   UNL     1       4.774  27.867  49.715  1.00  0.00     0.066 A 
HETATM   18  C   UNL     1       3.681  27.767  48.839  1.00  0.00     0.081 A 
HETATM   19  C   UNL     1       3.422  28.771  47.909  1.00  0.00     0.037 A 
HETATM   20  C   UNL     1       4.266  29.877  47.826  1.00  0.00     0.003 A 
HETATM   21  C   UNL     1       5.373  29.975  48.668  1.00  0.00     0.001 A 
HETATM   22  C   UNL     1       5.631  28.972  49.608  1.00  0.00     0.020 A 
BRANCH  18  23
HETATM   23  O   UNL     1       2.817  26.703  48.839  1.00  0.00    -0.360 OA
HETATM   24  H   UNL     1       1.914  27.049  49.028  1.00  0.00     0.217 HD
ENDBRANCH  18  23
ENDBRANCH  14  17
ENDBRANCH  12  13
ENDBRANCH   6  11
BRANCH   1  25
HETATM   25  C   UNL     1       7.231  26.533  56.307  1.00  0.00    -0.009 A 
HETATM   26  C   UNL     1       5.936  27.023  56.515  1.00  0.00     0.014 A 
HETATM   27  C   UNL     1       5.736  28.205  57.233  1.00  0.00     0.001 A 
HETATM   28  C   UNL     1       6.828  28.902  57.747  1.00  0.00     0.000 A 
HETATM   29  C   UNL     1       8.121  28.421  57.543  1.00  0.00     0.001 A 
HETATM   30  C   UNL     1       8.322  27.242  56.824  1.00  0.00     0.014 A 
ENDBRANCH   1  25
TORSDOF 5
ENDMDL
MODEL 5
REMARK VINA RESULT:      -9.1      2.828      7.161
REMARK  5 active torsions:
REMARK  status: ('A' for Active; 'I' for Inactive)
REMARK    1  A    between atoms: C_4  and  C_5 
REMARK    2  A    between atoms: C_10  and  C_11 
REMARK    3  A    between atoms: N_12  and  N_13 
REMARK       I    between atoms: N_13  and  C_14 
REMARK    4  A    between atoms: C_14  and  C_15 
REMARK    5  A    between atoms: C_16  and  O_17 
ROOT
HETATM    1  C   UNL     1       6.270  25.592  52.439  1.00  0.00     0.055 A 
HETATM    2  N   UNL     1       5.512  25.164  51.374  1.00  0.00    -0.354 N 
HETATM    3  H   UNL     1       5.300  24.197  51.173  1.00  0.00     0.166 HD
HETATM    4  C   UNL     1       5.056  26.225  50.634  1.00  0.00     0.043 A 
HETATM    5  C   UNL     1       5.535  27.384  51.244  1.00  0.00     0.005 A 
HETATM    6  C   UNL     1       6.311  26.982  52.383  1.00  0.00     0.023 A 
HETATM    7  C   UNL     1       4.260  26.242  49.482  1.00  0.00     0.030 A 
HETATM    8  C   UNL     1       3.942  27.486  48.930  1.00  0.00     0.002 A 
HETATM    9  C   UNL     1       4.403  28.663  49.511  1.00  0.00     0.001 A 
HETATM   10  C   UNL     1       5.197  28.627  50.663  1.00  0.00     0.014 A 
ENDROOT
BRANCH   6  11
HETATM   11  C   UNL     1       7.037  27.815  53.323  1.00  0.00     0.153 C 
HETATM   12  N   UNL     1       6.415  28.375  54.310  1.00  0.00    -0.183 NA
BRANCH  12  13
HETATM   13  N   UNL     1       7.177  29.142  55.144  1.00  0.00    -0.243 N 
HETATM   14  C   UNL     1       7.250  28.812  56.488  1.00  0.00     0.274 C 
HETATM   15  O   UNL     1       6.708  27.841  57.014  1.00  0.00    -0.266 OA
HETATM   16  H   UNL     1       7.767  29.862  54.747  1.00  0.00     0.192 HD
BRANCH  14  17
HETATM   17  C   UNL     1       8.110  29.682  57.337  1.00  0.00     0.066 A 
HETATM   18  C   UNL     1       7.518  30.460  58.345  1.00  0.00     0.081 A 
HETATM   19  C   UNL     1       8.300  31.263  59.172  1.00  0.00     0.037 A 
HETATM   20  C   UNL     1       9.680  31.319  58.987  1.00  0.00     0.003 A 
HETATM   21  C   UNL     1      10.278  30.577  57.969  1.00  0.00     0.001 A 
HETATM   22  C   UNL     1       9.497  29.762  57.142  1.00  0.00     0.020 A 
BRANCH  18  23
HETATM   23  O   UNL     1       6.168  30.481  58.579  1.00  0.00    -0.360 OA
HETATM   24  H   UNL     1       5.714  30.559  57.709  1.00  0.00     0.217 HD
ENDBRANCH  18  23
ENDBRANCH  14  17
ENDBRANCH  12  13
ENDBRANCH   6  11
BRANCH   1  25
HETATM   25  C   UNL     1       6.842  24.642  53.390  1.00  0.00    -0.009 A 
HETATM   26  C   UNL     1       7.774  23.688  52.965  1.00  0.00     0.014 A 
HETATM   27  C   UNL     1       8.316  22.776  53.874  1.00  0.00     0.001 A 
HETATM   28  C   UNL     1       7.929  22.813  55.213  1.00  0.00     0.000 A 
HETATM   29  C   UNL     1       6.999  23.759  55.645  1.00  0.00     0.001 A 
HETATM   30  C   UNL     1       6.456  24.669  54.737  1.00  0.00     0.014 A 
ENDBRANCH   1  25
TORSDOF 5
ENDMDL
MODEL 6
REMARK VINA RESULT:      -9.1      3.138      6.366
REMARK  5 active torsions:
REMARK  status: ('A' for Active; 'I' for Inactive)
REMARK    1  A    between atoms: C_4  and  C_5 
REMARK    2  A    between atoms: C_10  and  C_11 
REMARK    3  A    between atoms: N_12  and  N_13 
REMARK       I    between atoms: N_13  and  C_14 
REMARK    4  A    between atoms: C_14  and  C_15 
REMARK    5  A    between atoms: C_16  and  O_17 
ROOT
HETATM    1  C   UNL     1       6.392  25.340  53.595  1.00  0.00     0.055 A 
HETATM    2  N   UNL     1       6.545  24.195  52.847  1.00  0.00    -0.354 N 
HETATM    3  H   UNL     1       6.086  24.022  51.965  1.00  0.00     0.166 HD
HETATM    4  C   UNL     1       7.427  23.329  53.443  1.00  0.00     0.043 A 
HETATM    5  C   UNL     1       7.863  23.937  54.621  1.00  0.00     0.005 A 
HETATM    6  C   UNL     1       7.202  25.207  54.720  1.00  0.00     0.023 A 
HETATM    7  C   UNL     1       7.867  22.067  53.027  1.00  0.00     0.030 A 
HETATM    8  C   UNL     1       8.784  21.398  53.842  1.00  0.00     0.002 A 
HETATM    9  C   UNL     1       9.240  21.972  55.024  1.00  0.00     0.001 A 
HETATM   10  C   UNL     1       8.790  23.236  55.424  1.00  0.00     0.014 A 
ENDROOT
BRANCH   6  11
HETATM   11  C   UNL     1       7.300  26.199  55.775  1.00  0.00     0.153 C 
HETATM   12  N   UNL     1       8.044  27.245  55.615  1.00  0.00    -0.183 NA
BRANCH  12  13
HETATM   13  N   UNL     1       8.078  28.124  56.659  1.00  0.00    -0.243 N 
HETATM   14  C   UNL     1       8.852  29.270  56.555  1.00  0.00     0.274 C 
HETATM   15  O   UNL     1       9.503  29.602  55.565  1.00  0.00    -0.266 OA
HETATM   16  H   UNL     1       7.447  27.986  57.439  1.00  0.00     0.192 HD
BRANCH  14  17
HETATM   17  C   UNL     1       8.831  30.191  57.723  1.00  0.00     0.066 A 
HETATM   18  C   UNL     1       9.983  30.929  58.037  1.00  0.00     0.081 A 
HETATM   19  C   UNL     1       9.986  31.819  59.108  1.00  0.00     0.037 A 
HETATM   20  C   UNL     1       8.846  31.965  59.895  1.00  0.00     0.003 A 
HETATM   21  C   UNL     1       7.704  31.215  59.615  1.00  0.00     0.001 A 
HETATM   22  C   UNL     1       7.695  30.327  58.535  1.00  0.00     0.020 A 
BRANCH  18  23
HETATM   23  O   UNL     1      11.153  30.829  57.329  1.00  0.00    -0.360 OA
HETATM   24  H   UNL     1      11.897  30.975  57.957  1.00  0.00     0.217 HD
ENDBRANCH  18  23
ENDBRANCH  14  17
ENDBRANCH  12  13
ENDBRANCH   6  11
BRANCH   1  25
HETATM   25  C   UNL     1       5.523  26.425  53.147  1.00  0.00    -0.009 A 
HETATM   26  C   UNL     1       5.496  26.800  51.799  1.00  0.00     0.014 A 
HETATM   27  C   UNL     1       4.669  27.842  51.372  1.00  0.00     0.001 A 
HETATM   28  C   UNL     1       3.864  28.514  52.291  1.00  0.00     0.000 A 
HETATM   29  C   UNL     1       3.887  28.148  53.637  1.00  0.00     0.001 A 
HETATM   30  C   UNL     1       4.714  27.109  54.064  1.00  0.00     0.014 A 
ENDBRANCH   1  25
TORSDOF 5
ENDMDL
MODEL 7
REMARK VINA RESULT:      -8.9      2.125      7.339
REMARK  5 active torsions:
REMARK  status: ('A' for Active; 'I' for Inactive)
REMARK    1  A    between atoms: C_4  and  C_5 
REMARK    2  A    between atoms: C_10  and  C_11 
REMARK    3  A    between atoms: N_12  and  N_13 
REMARK       I    between atoms: N_13  and  C_14 
REMARK    4  A    between atoms: C_14  and  C_15 
REMARK    5  A    between atoms: C_16  and  O_17 
ROOT
HETATM    1  C   UNL     1       4.966  27.943  52.100  1.00  0.00     0.055 A 
HETATM    2  N   UNL     1       4.505  28.934  51.263  1.00  0.00    -0.354 N 
HETATM    3  H   UNL     1       4.327  29.886  51.546  1.00  0.00     0.166 HD
HETATM    4  C   UNL     1       4.347  28.465  49.983  1.00  0.00     0.043 A 
HETATM    5  C   UNL     1       4.720  27.121  49.991  1.00  0.00     0.005 A 
HETATM    6  C   UNL     1       5.105  26.789  51.334  1.00  0.00     0.023 A 
HETATM    7  C   UNL     1       3.907  29.129  48.831  1.00  0.00     0.030 A 
HETATM    8  C   UNL     1       3.844  28.395  47.644  1.00  0.00     0.002 A 
HETATM    9  C   UNL     1       4.207  27.052  47.614  1.00  0.00     0.001 A 
HETATM   10  C   UNL     1       4.645  26.406  48.775  1.00  0.00     0.014 A 
ENDROOT
BRANCH   6  11
HETATM   11  C   UNL     1       5.545  25.510  51.859  1.00  0.00     0.153 C 
HETATM   12  N   UNL     1       6.806  25.231  51.916  1.00  0.00    -0.183 NA
BRANCH  12  13
HETATM   13  N   UNL     1       7.129  24.005  52.423  1.00  0.00    -0.243 N 
HETATM   14  C   UNL     1       7.729  23.925  53.671  1.00  0.00     0.274 C 
HETATM   15  O   UNL     1       7.972  24.880  54.407  1.00  0.00    -0.266 OA
HETATM   16  H   UNL     1       6.819  23.174  51.935  1.00  0.00     0.192 HD
BRANCH  14  17
HETATM   17  C   UNL     1       8.040  22.557  54.168  1.00  0.00     0.066 A 
HETATM   18  C   UNL     1       7.941  22.287  55.543  1.00  0.00     0.081 A 
HETATM   19  C   UNL     1       8.200  21.011  56.036  1.00  0.00     0.037 A 
HETATM   20  C   UNL     1       8.585  19.993  55.166  1.00  0.00     0.003 A 
HETATM   21  C   UNL     1       8.718  20.254  53.802  1.00  0.00     0.001 A 
HETATM   22  C   UNL     1       8.451  21.533  53.303  1.00  0.00     0.020 A 
BRANCH  18  23
HETATM   23  O   UNL     1       7.591  23.236  56.469  1.00  0.00    -0.360 OA
HETATM   24  H   UNL     1       7.944  24.101  56.160  1.00  0.00     0.217 HD
ENDBRANCH  18  23
ENDBRANCH  14  17
ENDBRANCH  12  13
ENDBRANCH   6  11
BRANCH   1  25
HETATM   25  C   UNL     1       5.240  28.211  53.509  1.00  0.00    -0.009 A 
HETATM   26  C   UNL     1       6.557  28.235  53.983  1.00  0.00     0.014 A 
HETATM   27  C   UNL     1       6.818  28.486  55.332  1.00  0.00     0.001 A 
HETATM   28  C   UNL     1       5.764  28.716  56.215  1.00  0.00     0.000 A 
HETATM   29  C   UNL     1       4.449  28.691  55.752  1.00  0.00     0.001 A 
HETATM   30  C   UNL     1       4.187  28.439  54.405  1.00  0.00     0.014 A 
ENDBRANCH   1  25
TORSDOF 5
ENDMDL
MODEL 8
REMARK VINA RESULT:      -8.4      4.883      9.000
REMARK  5 active torsions:
REMARK  status: ('A' for Active; 'I' for Inactive)
REMARK    1  A    between atoms: C_4  and  C_5 
REMARK    2  A    between atoms: C_10  and  C_11 
REMARK    3  A    between atoms: N_12  and  N_13 
REMARK       I    between atoms: N_13  and  C_14 
REMARK    4  A    between atoms: C_14  and  C_15 
REMARK    5  A    between atoms: C_16  and  O_17 
ROOT
HETATM    1  C   UNL     1       6.323  32.102  58.952  1.00  0.00     0.055 A 
HETATM    2  N   UNL     1       5.424  33.144  58.909  1.00  0.00    -0.354 N 
HETATM    3  H   UNL     1       5.389  33.898  59.579  1.00  0.00     0.166 HD
HETATM    4  C   UNL     1       4.598  33.039  57.818  1.00  0.00     0.043 A 
HETATM    5  C   UNL     1       4.977  31.888  57.128  1.00  0.00     0.005 A 
HETATM    6  C   UNL     1       6.064  31.291  57.851  1.00  0.00     0.023 A 
HETATM    7  C   UNL     1       3.556  33.875  57.397  1.00  0.00     0.030 A 
HETATM    8  C   UNL     1       2.873  33.521  56.229  1.00  0.00     0.002 A 
HETATM    9  C   UNL     1       3.223  32.379  55.515  1.00  0.00     0.001 A 
HETATM   10  C   UNL     1       4.268  31.558  55.951  1.00  0.00     0.014 A 
ENDROOT
BRANCH   6  11
HETATM   11  C   UNL     1       6.785  30.067  57.553  1.00  0.00     0.153 C 
HETATM   12  N   UNL     1       6.143  28.953  57.415  1.00  0.00    -0.183 NA
BRANCH  12  13
HETATM   13  N   UNL     1       6.901  27.852  57.136  1.00  0.00    -0.243 N 
HETATM   14  C   UNL     1       6.308  26.759  56.524  1.00  0.00     0.274 C 
HETATM   15  O   UNL     1       5.134  26.696  56.160  1.00  0.00    -0.266 OA
HETATM   16  H   UNL     1       7.903  27.899  57.271  1.00  0.00     0.192 HD
BRANCH  14  17
HETATM   17  C   UNL     1       7.196  25.600  56.236  1.00  0.00     0.066 A 
HETATM   18  C   UNL     1       7.963  25.047  57.274  1.00  0.00     0.081 A 
HETATM   19  C   UNL     1       8.784  23.946  57.042  1.00  0.00     0.037 A 
HETATM   20  C   UNL     1       8.868  23.398  55.764  1.00  0.00     0.003 A 
HETATM   21  C   UNL     1       8.137  23.956  54.716  1.00  0.00     0.001 A 
HETATM   22  C   UNL     1       7.305  25.056  54.947  1.00  0.00     0.020 A 
BRANCH  18  23
HETATM   23  O   UNL     1       7.957  25.539  58.554  1.00  0.00    -0.360 OA
HETATM   24  H   UNL     1       8.816  25.300  58.971  1.00  0.00     0.217 HD
ENDBRANCH  18  23
ENDBRANCH  14  17
ENDBRANCH  12  13
ENDBRANCH   6  11
BRANCH   1  25
HETATM   25  C   UNL     1       7.327  32.014  60.009  1.00  0.00    -0.009 A 
HETATM   26  C   UNL     1       8.688  32.135  59.705  1.00  0.00     0.014 A 
HETATM   27  C   UNL     1       9.647  32.045  60.717  1.00  0.00     0.001 A 
HETATM   28  C   UNL     1       9.252  31.833  62.036  1.00  0.00     0.000 A 
HETATM   29  C   UNL     1       7.898  31.708  62.347  1.00  0.00     0.001 A 
HETATM   30  C   UNL     1       6.939  31.797  61.337  1.00  0.00     0.014 A 
ENDBRANCH   1  25
TORSDOF 5
ENDMDL
MODEL 9
REMARK VINA RESULT:      -8.2      2.276      3.146
REMARK  5 active torsions:
REMARK  status: ('A' for Active; 'I' for Inactive)
REMARK    1  A    between atoms: C_4  and  C_5 
REMARK    2  A    between atoms: C_10  and  C_11 
REMARK    3  A    between atoms: N_12  and  N_13 
REMARK       I    between atoms: N_13  and  C_14 
REMARK    4  A    between atoms: C_14  and  C_15 
REMARK    5  A    between atoms: C_16  and  O_17 
ROOT
HETATM    1  C   UNL     1       8.185  27.157  56.653  1.00  0.00     0.055 A 
HETATM    2  N   UNL     1       8.477  25.961  57.267  1.00  0.00    -0.354 N 
HETATM    3  H   UNL     1       8.900  25.874  58.180  1.00  0.00     0.166 HD
HETATM    4  C   UNL     1       8.091  24.899  56.489  1.00  0.00     0.043 A 
HETATM    5  C   UNL     1       7.527  25.427  55.328  1.00  0.00     0.005 A 
HETATM    6  C   UNL     1       7.594  26.857  55.429  1.00  0.00     0.023 A 
HETATM    7  C   UNL     1       8.198  23.523  56.730  1.00  0.00     0.030 A 
HETATM    8  C   UNL     1       7.713  22.654  55.749  1.00  0.00     0.002 A 
HETATM    9  C   UNL     1       7.145  23.144  54.577  1.00  0.00     0.001 A 
HETATM   10  C   UNL     1       7.046  24.522  54.355  1.00  0.00     0.014 A 
ENDROOT
BRANCH   6  11
HETATM   11  C   UNL     1       7.162  27.853  54.466  1.00  0.00     0.153 C 
HETATM   12  N   UNL     1       5.913  28.179  54.385  1.00  0.00    -0.183 NA
BRANCH  12  13
HETATM   13  N   UNL     1       5.597  29.124  53.451  1.00  0.00    -0.243 N 
HETATM   14  C   UNL     1       5.196  28.720  52.188  1.00  0.00     0.274 C 
HETATM   15  O   UNL     1       5.054  27.553  51.825  1.00  0.00    -0.266 OA
HETATM   16  H   UNL     1       5.547  30.095  53.733  1.00  0.00     0.192 HD
BRANCH  14  17
HETATM   17  C   UNL     1       4.852  29.802  51.225  1.00  0.00     0.066 A 
HETATM   18  C   UNL     1       3.669  30.535  51.409  1.00  0.00     0.081 A 
HETATM   19  C   UNL     1       3.333  31.571  50.541  1.00  0.00     0.037 A 
HETATM   20  C   UNL     1       4.163  31.872  49.462  1.00  0.00     0.003 A 
HETATM   21  C   UNL     1       5.325  31.132  49.249  1.00  0.00     0.001 A 
HETATM   22  C   UNL     1       5.669  30.096  50.124  1.00  0.00     0.020 A 
BRANCH  18  23
HETATM   23  O   UNL     1       2.786  30.289  52.429  1.00  0.00    -0.360 OA
HETATM   24  H   UNL     1       2.119  29.644  52.100  1.00  0.00     0.217 HD
ENDBRANCH  18  23
ENDBRANCH  14  17
ENDBRANCH  12  13
ENDBRANCH   6  11
BRANCH   1  25
HETATM   25  C   UNL     1       8.477  28.432  57.303  1.00  0.00    -0.009 A 
HETATM   26  C   UNL     1       7.534  29.028  58.149  1.00  0.00     0.014 A 
HETATM   27  C   UNL     1       7.813  30.250  58.766  1.00  0.00     0.001 A 
HETATM   28  C   UNL     1       9.035  30.882  58.543  1.00  0.00     0.000 A 
HETATM   29  C   UNL     1       9.979  30.296  57.700  1.00  0.00     0.001 A 
HETATM   30  C   UNL     1       9.701  29.076  57.081  1.00  0.00     0.014 A 
ENDBRANCH   1  25
TORSDOF 5
ENDMDL
MODEL 10
REMARK VINA RESULT:      -8.2      8.535     11.805
REMARK  5 active torsions:
REMARK  status: ('A' for Active; 'I' for Inactive)
REMARK    1  A    between atoms: C_4  and  C_5 
REMARK    2  A    between atoms: C_10  and  C_11 
REMARK    3  A    between atoms: N_12  and  N_13 
REMARK       I    between atoms: N_13  and  C_14 
REMARK    4  A    between atoms: C_14  and  C_15 
REMARK    5  A    between atoms: C_16  and  O_17 
ROOT
HETATM    1  C   UNL     1       6.869  32.762  63.468  1.00  0.00     0.055 A 
HETATM    2  N   UNL     1       7.199  33.160  64.743  1.00  0.00    -0.354 N 
HETATM    3  H   UNL     1       8.113  33.055  65.158  1.00  0.00     0.166 HD
HETATM    4  C   UNL     1       6.128  33.747  65.370  1.00  0.00     0.043 A 
HETATM    5  C   UNL     1       5.066  33.729  64.466  1.00  0.00     0.005 A 
HETATM    6  C   UNL     1       5.534  33.099  63.264  1.00  0.00     0.023 A 
HETATM    7  C   UNL     1       6.027  34.288  66.658  1.00  0.00     0.030 A 
HETATM    8  C   UNL     1       4.796  34.829  67.039  1.00  0.00     0.002 A 
HETATM    9  C   UNL     1       3.714  34.829  66.165  1.00  0.00     0.001 A 
HETATM   10  C   UNL     1       3.835  34.284  64.881  1.00  0.00     0.014 A 
ENDROOT
BRANCH   6  11
HETATM   11  C   UNL     1       4.799  32.820  62.044  1.00  0.00     0.153 C 
HETATM   12  N   UNL     1       4.868  33.636  61.044  1.00  0.00    -0.183 NA
BRANCH  12  13
HETATM   13  N   UNL     1       4.145  33.295  59.937  1.00  0.00    -0.243 N 
HETATM   14  C   UNL     1       4.808  32.842  58.807  1.00  0.00     0.274 C 
HETATM   15  O   UNL     1       6.024  32.675  58.714  1.00  0.00    -0.266 OA
HETATM   16  H   UNL     1       3.135  33.265  60.001  1.00  0.00     0.192 HD
BRANCH  14  17
HETATM   17  C   UNL     1       3.957  32.473  57.644  1.00  0.00     0.066 A 
HETATM   18  C   UNL     1       3.662  31.121  57.409  1.00  0.00     0.081 A 
HETATM   19  C   UNL     1       2.847  30.746  56.344  1.00  0.00     0.037 A 
HETATM   20  C   UNL     1       2.335  31.716  55.484  1.00  0.00     0.003 A 
HETATM   21  C   UNL     1       2.645  33.061  55.686  1.00  0.00     0.001 A 
HETATM   22  C   UNL     1       3.457  33.441  56.760  1.00  0.00     0.020 A 
BRANCH  18  23
HETATM   23  O   UNL     1       4.142  30.103  58.192  1.00  0.00    -0.360 OA
HETATM   24  H   UNL     1       3.830  29.253  57.804  1.00  0.00     0.217 HD
ENDBRANCH  18  23
ENDBRANCH  14  17
ENDBRANCH  12  13
ENDBRANCH   6  11
BRANCH   1  25
HETATM   25  C   UNL     1       7.857  32.137  62.592  1.00  0.00    -0.009 A 
HETATM   26  C   UNL     1       8.316  32.806  61.451  1.00  0.00     0.014 A 
HETATM   27  C   UNL     1       9.257  32.205  60.612  1.00  0.00     0.001 A 
HETATM   28  C   UNL     1       9.744  30.933  60.907  1.00  0.00     0.000 A 
HETATM   29  C   UNL     1       9.289  30.259  62.040  1.00  0.00     0.001 A 
HETATM   30  C   UNL     1       8.348  30.858  62.879  1.00  0.00     0.014 A 
ENDBRANCH   1  25
TORSDOF 5
ENDMDL
