MODEL 1
REMARK VINA RESULT:      -8.8      0.000      0.000
REMARK  4 active torsions:
REMARK  status: ('A' for Active; 'I' for Inactive)
REMARK    1  A    between atoms: C_2  and  N_3 
REMARK    2  A    between atoms: C_4  and  C_5 
REMARK    3  A    between atoms: C_6  and  O_7 
REMARK    4  A    between atoms: C_19  and  C_20 
REMARK       I    between atoms: C_20  and  N_21 
ROOT
HETATM    1  C   UNL     1       8.126  32.639  63.161  1.00  0.00     0.034 A 
HETATM    2  C   UNL     1       7.365  32.541  61.989  1.00  0.00     0.057 A 
HETATM    3  C   UNL     1       6.002  32.862  62.019  1.00  0.00     0.048 A 
HETATM    4  C   UNL     1       5.404  33.261  63.231  1.00  0.00     0.030 A 
HETATM    5  C   UNL     1       6.191  33.324  64.374  1.00  0.00     0.063 A 
HETATM    6  N   UNL     1       5.349  33.736  65.370  1.00  0.00    -0.277 N 
HETATM    7  H   UNL     1       5.580  33.893  66.344  1.00  0.00     0.189 HD
HETATM    8  N   UNL     1       4.084  33.958  64.972  1.00  0.00    -0.168 NA
HETATM    9  C   UNL     1       4.104  33.671  63.651  1.00  0.00     0.156 A 
HETATM   10  C   UNL     1       7.554  33.018  64.381  1.00  0.00     0.034 A 
ENDROOT
BRANCH   2  11
HETATM   11  N   UNL     1       7.945  32.200  60.756  1.00  0.00    -0.260 NA
HETATM   12  C   UNL     1       8.064  30.940  60.476  1.00  0.00     0.131 C 
BRANCH  12  13
HETATM   13  C   UNL     1       8.669  30.499  59.202  1.00  0.00     0.016 A 
HETATM   14  C   UNL     1       9.765  31.161  58.636  1.00  0.00     0.077 A 
HETATM   15  C   UNL     1      10.308  30.722  57.431  1.00  0.00     0.039 A 
HETATM   16  C   UNL     1       9.763  29.609  56.789  1.00  0.00     0.022 A 
HETATM   17  C   UNL     1       8.674  28.947  57.357  1.00  0.00     0.012 A 
HETATM   18 BR   UNL     1       7.945  27.432  56.490  1.00  0.00    -0.051 Br
HETATM   19  C   UNL     1       8.117  29.387  58.560  1.00  0.00     0.034 A 
BRANCH  14  20
HETATM   20  O   UNL     1      10.355  32.252  59.211  1.00  0.00    -0.360 OA
HETATM   21  H   UNL     1      10.971  31.921  59.905  1.00  0.00     0.217 HD
ENDBRANCH  14  20
ENDBRANCH  12  13
ENDBRANCH   2  11
BRANCH   9  22
HETATM   22  C   UNL     1       2.899  33.802  62.821  1.00  0.00     0.270 C 
HETATM   23  N   UNL     1       1.731  33.831  63.533  1.00  0.00    -0.365 N 
HETATM   24  H   UNL     1       1.776  33.778  64.543  1.00  0.00     0.159 HD
HETATM   25  H   UNL     1       0.854  33.945  63.049  1.00  0.00     0.159 HD
HETATM   26  O   UNL     1       2.902  33.886  61.597  1.00  0.00    -0.266 OA
ENDBRANCH   9  22
TORSDOF 4
ENDMDL
MODEL 2
REMARK VINA RESULT:      -8.5      5.340      8.193
REMARK  4 active torsions:
REMARK  status: ('A' for Active; 'I' for Inactive)
REMARK    1  A    between atoms: C_2  and  N_3 
REMARK    2  A    between atoms: C_4  and  C_5 
REMARK    3  A    between atoms: C_6  and  O_7 
REMARK    4  A    between atoms: C_19  and  C_20 
REMARK       I    between atoms: C_20  and  N_21 
ROOT
HETATM    1  C   UNL     1       5.895  27.858  56.603  1.00  0.00     0.034 A 
HETATM    2  C   UNL     1       7.231  27.668  56.226  1.00  0.00     0.057 A 
HETATM    3  C   UNL     1       8.211  28.566  56.669  1.00  0.00     0.048 A 
HETATM    4  C   UNL     1       7.841  29.664  57.472  1.00  0.00     0.030 A 
HETATM    5  C   UNL     1       6.502  29.827  57.803  1.00  0.00     0.063 A 
HETATM    6  N   UNL     1       6.456  30.955  58.576  1.00  0.00    -0.277 N 
HETATM    7  H   UNL     1       5.637  31.377  58.999  1.00  0.00     0.189 HD
HETATM    8  N   UNL     1       7.650  31.534  58.786  1.00  0.00    -0.168 NA
HETATM    9  C   UNL     1       8.516  30.745  58.111  1.00  0.00     0.156 A 
HETATM   10  C   UNL     1       5.499  28.948  57.387  1.00  0.00     0.034 A 
ENDROOT
BRANCH   2  11
HETATM   11  N   UNL     1       7.637  26.553  55.475  1.00  0.00    -0.260 NA
HETATM   12  C   UNL     1       6.971  25.451  55.629  1.00  0.00     0.131 C 
BRANCH  12  13
HETATM   13  C   UNL     1       7.338  24.232  54.879  1.00  0.00     0.016 A 
HETATM   14  C   UNL     1       7.546  24.250  53.495  1.00  0.00     0.077 A 
HETATM   15  C   UNL     1       7.887  23.081  52.818  1.00  0.00     0.039 A 
HETATM   16  C   UNL     1       8.032  21.887  53.526  1.00  0.00     0.022 A 
HETATM   17  C   UNL     1       7.830  21.872  54.906  1.00  0.00     0.012 A 
HETATM   18 BR   UNL     1       8.039  20.254  55.864  1.00  0.00    -0.051 Br
HETATM   19  C   UNL     1       7.478  23.037  55.591  1.00  0.00     0.034 A 
BRANCH  14  20
HETATM   20  O   UNL     1       7.429  25.383  52.738  1.00  0.00    -0.360 OA
HETATM   21  H   UNL     1       7.126  25.106  51.842  1.00  0.00     0.217 HD
ENDBRANCH  14  20
ENDBRANCH  12  13
ENDBRANCH   2  11
BRANCH   9  22
HETATM   22  C   UNL     1       9.958  31.028  58.098  1.00  0.00     0.270 C 
HETATM   23  N   UNL     1      10.718  30.033  57.546  1.00  0.00    -0.365 N 
HETATM   24  H   UNL     1      10.251  29.209  57.186  1.00  0.00     0.159 HD
HETATM   25  H   UNL     1      11.716  30.149  57.470  1.00  0.00     0.159 HD
HETATM   26  O   UNL     1      10.470  32.056  58.529  1.00  0.00    -0.266 OA
ENDBRANCH   9  22
TORSDOF 4
ENDMDL
MODEL 3
REMARK VINA RESULT:      -8.4      7.549     11.713
REMARK  4 active torsions:
REMARK  status: ('A' for Active; 'I' for Inactive)
REMARK    1  A    between atoms: C_2  and  N_3 
REMARK    2  A    between atoms: C_4  and  C_5 
REMARK    3  A    between atoms: C_6  and  O_7 
REMARK    4  A    between atoms: C_19  and  C_20 
REMARK       I    between atoms: C_20  and  N_21 
ROOT
HETATM    1  C   UNL     1       7.343  24.928  53.212  1.00  0.00     0.034 A 
HETATM    2  C   UNL     1       7.596  24.999  54.588  1.00  0.00     0.057 A 
HETATM    3  C   UNL     1       7.955  23.841  55.288  1.00  0.00     0.048 A 
HETATM    4  C   UNL     1       8.038  22.610  54.606  1.00  0.00     0.030 A 
HETATM    5  C   UNL     1       7.758  22.580  53.246  1.00  0.00     0.063 A 
HETATM    6  N   UNL     1       7.922  21.275  52.872  1.00  0.00    -0.277 N 
HETATM    7  H   UNL     1       7.802  20.882  51.945  1.00  0.00     0.189 HD
HETATM    8  N   UNL     1       8.296  20.454  53.868  1.00  0.00    -0.168 NA
HETATM    9  C   UNL     1       8.374  21.266  54.946  1.00  0.00     0.156 A 
HETATM   10  C   UNL     1       7.404  23.716  52.514  1.00  0.00     0.034 A 
ENDROOT
BRANCH   2  11
HETATM   11  N   UNL     1       7.576  26.220  55.282  1.00  0.00    -0.260 NA
HETATM   12  C   UNL     1       6.450  26.594  55.806  1.00  0.00     0.131 C 
BRANCH  12  13
HETATM   13  C   UNL     1       6.344  27.868  56.546  1.00  0.00     0.016 A 
HETATM   14  C   UNL     1       5.112  28.497  56.764  1.00  0.00     0.077 A 
HETATM   15  C   UNL     1       5.049  29.700  57.463  1.00  0.00     0.039 A 
HETATM   16  C   UNL     1       6.220  30.277  57.959  1.00  0.00     0.022 A 
HETATM   17  C   UNL     1       7.446  29.646  57.746  1.00  0.00     0.012 A 
HETATM   18 BR   UNL     1       9.028  30.425  58.429  1.00  0.00    -0.051 Br
HETATM   19  C   UNL     1       7.519  28.445  57.038  1.00  0.00     0.034 A 
BRANCH  14  20
HETATM   20  O   UNL     1       3.926  27.988  56.315  1.00  0.00    -0.360 OA
HETATM   21  H   UNL     1       3.969  27.970  55.331  1.00  0.00     0.217 HD
ENDBRANCH  14  20
ENDBRANCH  12  13
ENDBRANCH   2  11
BRANCH   9  22
HETATM   22  C   UNL     1       8.775  20.753  56.263  1.00  0.00     0.270 C 
HETATM   23  N   UNL     1       9.823  19.875  56.226  1.00  0.00    -0.365 N 
HETATM   24  H   UNL     1      10.243  19.659  55.331  1.00  0.00     0.159 HD
HETATM   25  H   UNL     1      10.184  19.490  57.085  1.00  0.00     0.159 HD
HETATM   26  O   UNL     1       8.243  21.066  57.324  1.00  0.00    -0.266 OA
ENDBRANCH   9  22
TORSDOF 4
ENDMDL
MODEL 4
REMARK VINA RESULT:      -8.4     10.127     12.453
REMARK  4 active torsions:
REMARK  status: ('A' for Active; 'I' for Inactive)
REMARK    1  A    between atoms: C_2  and  N_3 
REMARK    2  A    between atoms: C_4  and  C_5 
REMARK    3  A    between atoms: C_6  and  O_7 
REMARK    4  A    between atoms: C_19  and  C_20 
REMARK       I    between atoms: C_20  and  N_21 
ROOT
HETATM    1  C   UNL     1       6.894  25.707  54.582  1.00  0.00     0.034 A 
HETATM    2  C   UNL     1       6.916  24.912  53.429  1.00  0.00     0.057 A 
HETATM    3  C   UNL     1       7.333  23.578  53.515  1.00  0.00     0.048 A 
HETATM    4  C   UNL     1       7.748  23.054  54.755  1.00  0.00     0.030 A 
HETATM    5  C   UNL     1       7.731  23.884  55.869  1.00  0.00     0.063 A 
HETATM    6  N   UNL     1       8.175  23.107  56.904  1.00  0.00    -0.277 N 
HETATM    7  H   UNL     1       8.292  23.383  57.873  1.00  0.00     0.189 HD
HETATM    8  N   UNL     1       8.469  21.840  56.564  1.00  0.00    -0.168 NA
HETATM    9  C   UNL     1       8.206  21.792  55.239  1.00  0.00     0.156 A 
HETATM   10  C   UNL     1       7.315  25.216  55.823  1.00  0.00     0.034 A 
ENDROOT
BRANCH   2  11
HETATM   11  N   UNL     1       6.456  25.390  52.191  1.00  0.00    -0.260 NA
HETATM   12  C   UNL     1       5.808  26.513  52.185  1.00  0.00     0.131 C 
BRANCH  12  13
HETATM   13  C   UNL     1       5.286  27.082  50.925  1.00  0.00     0.016 A 
HETATM   14  C   UNL     1       5.454  28.432  50.597  1.00  0.00     0.077 A 
HETATM   15  C   UNL     1       4.945  28.936  49.402  1.00  0.00     0.039 A 
HETATM   16  C   UNL     1       4.275  28.086  48.521  1.00  0.00     0.022 A 
HETATM   17  C   UNL     1       4.114  26.739  48.846  1.00  0.00     0.012 A 
HETATM   18 BR   UNL     1       3.215  25.589  47.643  1.00  0.00    -0.051 Br
HETATM   19  C   UNL     1       4.611  26.229  50.046  1.00  0.00     0.034 A 
BRANCH  14  20
HETATM   20  O   UNL     1       6.105  29.321  51.407  1.00  0.00    -0.360 OA
HETATM   21  H   UNL     1       6.138  28.925  52.309  1.00  0.00     0.217 HD
ENDBRANCH  14  20
ENDBRANCH  12  13
ENDBRANCH   2  11
BRANCH   9  22
HETATM   22  C   UNL     1       8.386  20.554  54.467  1.00  0.00     0.270 C 
HETATM   23  N   UNL     1       9.073  19.576  55.133  1.00  0.00    -0.365 N 
HETATM   24  H   UNL     1       9.386  19.760  56.078  1.00  0.00     0.159 HD
HETATM   25  H   UNL     1       9.223  18.682  54.692  1.00  0.00     0.159 HD
HETATM   26  O   UNL     1       7.965  20.376  53.329  1.00  0.00    -0.266 OA
ENDBRANCH   9  22
TORSDOF 4
ENDMDL
MODEL 5
REMARK VINA RESULT:      -8.3     10.724     12.542
REMARK  4 active torsions:
REMARK  status: ('A' for Active; 'I' for Inactive)
REMARK    1  A    between atoms: C_2  and  N_3 
REMARK    2  A    between atoms: C_4  and  C_5 
REMARK    3  A    between atoms: C_6  and  O_7 
REMARK    4  A    between atoms: C_19  and  C_20 
REMARK       I    between atoms: C_20  and  N_21 
ROOT
HETATM    1  C   UNL     1       4.655  27.121  52.958  1.00  0.00     0.034 A 
HETATM    2  C   UNL     1       5.143  26.068  52.174  1.00  0.00     0.057 A 
HETATM    3  C   UNL     1       5.129  26.180  50.778  1.00  0.00     0.048 A 
HETATM    4  C   UNL     1       4.603  27.340  50.175  1.00  0.00     0.030 A 
HETATM    5  C   UNL     1       4.109  28.350  50.990  1.00  0.00     0.063 A 
HETATM    6  N   UNL     1       3.679  29.327  50.134  1.00  0.00    -0.277 N 
HETATM    7  H   UNL     1       3.259  30.216  50.378  1.00  0.00     0.189 HD
HETATM    8  N   UNL     1       3.861  29.045  48.832  1.00  0.00    -0.168 NA
HETATM    9  C   UNL     1       4.434  27.821  48.843  1.00  0.00     0.156 A 
HETATM   10  C   UNL     1       4.114  28.278  52.385  1.00  0.00     0.034 A 
ENDROOT
BRANCH   2  11
HETATM   11  N   UNL     1       5.724  24.925  52.748  1.00  0.00    -0.260 NA
HETATM   12  C   UNL     1       6.514  25.098  53.761  1.00  0.00     0.131 C 
BRANCH  12  13
HETATM   13  C   UNL     1       7.168  23.947  54.418  1.00  0.00     0.016 A 
HETATM   14  C   UNL     1       7.413  23.923  55.796  1.00  0.00     0.077 A 
HETATM   15  C   UNL     1       8.036  22.823  56.381  1.00  0.00     0.039 A 
HETATM   16  C   UNL     1       8.408  21.734  55.591  1.00  0.00     0.022 A 
HETATM   17  C   UNL     1       8.157  21.757  54.219  1.00  0.00     0.012 A 
HETATM   18 BR   UNL     1       8.652  20.274  53.154  1.00  0.00    -0.051 Br
HETATM   19  C   UNL     1       7.543  22.859  53.622  1.00  0.00     0.034 A 
BRANCH  14  20
HETATM   20  O   UNL     1       7.071  24.949  56.632  1.00  0.00    -0.360 OA
HETATM   21  H   UNL     1       6.924  25.746  56.072  1.00  0.00     0.217 HD
ENDBRANCH  14  20
ENDBRANCH  12  13
ENDBRANCH   2  11
BRANCH   9  22
HETATM   22  C   UNL     1       4.815  27.144  47.595  1.00  0.00     0.270 C 
HETATM   23  N   UNL     1       6.053  27.492  47.126  1.00  0.00    -0.365 N 
HETATM   24  H   UNL     1       6.604  28.155  47.658  1.00  0.00     0.159 HD
HETATM   25  H   UNL     1       6.410  27.059  46.289  1.00  0.00     0.159 HD
HETATM   26  O   UNL     1       4.116  26.329  47.003  1.00  0.00    -0.266 OA
ENDBRANCH   9  22
TORSDOF 4
ENDMDL
MODEL 6
REMARK VINA RESULT:      -8.3      5.216      8.125
REMARK  4 active torsions:
REMARK  status: ('A' for Active; 'I' for Inactive)
REMARK    1  A    between atoms: C_2  and  N_3 
REMARK    2  A    between atoms: C_4  and  C_5 
REMARK    3  A    between atoms: C_6  and  O_7 
REMARK    4  A    between atoms: C_19  and  C_20 
REMARK       I    between atoms: C_20  and  N_21 
ROOT
HETATM    1  C   UNL     1       6.231  27.492  55.762  1.00  0.00     0.034 A 
HETATM    2  C   UNL     1       7.291  27.102  56.591  1.00  0.00     0.057 A 
HETATM    3  C   UNL     1       7.815  28.009  57.519  1.00  0.00     0.048 A 
HETATM    4  C   UNL     1       7.286  29.313  57.598  1.00  0.00     0.030 A 
HETATM    5  C   UNL     1       6.250  29.665  56.743  1.00  0.00     0.063 A 
HETATM    6  N   UNL     1       5.954  30.964  57.051  1.00  0.00    -0.277 N 
HETATM    7  H   UNL     1       5.244  31.550  56.626  1.00  0.00     0.189 HD
HETATM    8  N   UNL     1       6.699  31.485  58.041  1.00  0.00    -0.168 NA
HETATM    9  C   UNL     1       7.526  30.474  58.390  1.00  0.00     0.156 A 
HETATM   10  C   UNL     1       5.697  28.785  55.809  1.00  0.00     0.034 A 
ENDROOT
BRANCH   2  11
HETATM   11  N   UNL     1       7.800  25.793  56.573  1.00  0.00    -0.260 NA
HETATM   12  C   UNL     1       7.257  24.949  55.752  1.00  0.00     0.131 C 
BRANCH  12  13
HETATM   13  C   UNL     1       7.732  23.551  55.677  1.00  0.00     0.016 A 
HETATM   14  C   UNL     1       8.253  22.886  56.793  1.00  0.00     0.077 A 
HETATM   15  C   UNL     1       8.696  21.570  56.686  1.00  0.00     0.039 A 
HETATM   16  C   UNL     1       8.609  20.906  55.461  1.00  0.00     0.022 A 
HETATM   17  C   UNL     1       8.083  21.568  54.351  1.00  0.00     0.012 A 
HETATM   18 BR   UNL     1       7.955  20.661  52.697  1.00  0.00    -0.051 Br
HETATM   19  C   UNL     1       7.646  22.890  54.447  1.00  0.00     0.034 A 
BRANCH  14  20
HETATM   20  O   UNL     1       8.363  23.470  58.024  1.00  0.00    -0.360 OA
HETATM   21  H   UNL     1       9.139  23.061  58.474  1.00  0.00     0.217 HD
ENDBRANCH  14  20
ENDBRANCH  12  13
ENDBRANCH   2  11
BRANCH   9  22
HETATM   22  C   UNL     1       8.511  30.630  59.470  1.00  0.00     0.270 C 
HETATM   23  N   UNL     1       7.977  30.562  60.728  1.00  0.00    -0.365 N 
HETATM   24  H   UNL     1       6.982  30.401  60.824  1.00  0.00     0.159 HD
HETATM   25  H   UNL     1       8.581  30.632  61.532  1.00  0.00     0.159 HD
HETATM   26  O   UNL     1       9.713  30.800  59.296  1.00  0.00    -0.266 OA
ENDBRANCH   9  22
TORSDOF 4
ENDMDL
MODEL 7
REMARK VINA RESULT:      -8.3      8.758     11.504
REMARK  4 active torsions:
REMARK  status: ('A' for Active; 'I' for Inactive)
REMARK    1  A    between atoms: C_2  and  N_3 
REMARK    2  A    between atoms: C_4  and  C_5 
REMARK    3  A    between atoms: C_6  and  O_7 
REMARK    4  A    between atoms: C_19  and  C_20 
REMARK       I    between atoms: C_20  and  N_21 
ROOT
HETATM    1  C   UNL     1       7.983  23.226  52.608  1.00  0.00     0.034 A 
HETATM    2  C   UNL     1       7.321  24.438  52.844  1.00  0.00     0.057 A 
HETATM    3  C   UNL     1       7.173  24.902  54.157  1.00  0.00     0.048 A 
HETATM    4  C   UNL     1       7.671  24.136  55.230  1.00  0.00     0.030 A 
HETATM    5  C   UNL     1       8.302  22.930  54.952  1.00  0.00     0.063 A 
HETATM    6  N   UNL     1       8.672  22.428  56.169  1.00  0.00    -0.277 N 
HETATM    7  H   UNL     1       9.160  21.558  56.353  1.00  0.00     0.189 HD
HETATM    8  N   UNL     1       8.348  23.208  57.215  1.00  0.00    -0.168 NA
HETATM    9  C   UNL     1       7.732  24.269  56.649  1.00  0.00     0.156 A 
HETATM   10  C   UNL     1       8.475  22.439  53.656  1.00  0.00     0.034 A 
ENDROOT
BRANCH   2  11
HETATM   11  N   UNL     1       6.864  25.248  51.792  1.00  0.00    -0.260 NA
HETATM   12  C   UNL     1       5.946  26.122  52.064  1.00  0.00     0.131 C 
BRANCH  12  13
HETATM   13  C   UNL     1       5.408  27.009  51.011  1.00  0.00     0.016 A 
HETATM   14  C   UNL     1       5.543  28.401  51.076  1.00  0.00     0.077 A 
HETATM   15  C   UNL     1       5.019  29.207  50.068  1.00  0.00     0.039 A 
HETATM   16  C   UNL     1       4.366  28.624  48.981  1.00  0.00     0.022 A 
HETATM   17  C   UNL     1       4.238  27.237  48.915  1.00  0.00     0.012 A 
HETATM   18 BR   UNL     1       3.363  26.449  47.435  1.00  0.00    -0.051 Br
HETATM   19  C   UNL     1       4.750  26.421  49.926  1.00  0.00     0.034 A 
BRANCH  14  20
HETATM   20  O   UNL     1       6.175  29.041  52.105  1.00  0.00    -0.360 OA
HETATM   21  H   UNL     1       7.138  29.052  51.896  1.00  0.00     0.217 HD
ENDBRANCH  14  20
ENDBRANCH  12  13
ENDBRANCH   2  11
BRANCH   9  22
HETATM   22  C   UNL     1       7.225  25.384  57.462  1.00  0.00     0.270 C 
HETATM   23  N   UNL     1       5.868  25.545  57.406  1.00  0.00    -0.365 N 
HETATM   24  H   UNL     1       5.326  24.902  56.842  1.00  0.00     0.159 HD
HETATM   25  H   UNL     1       5.427  26.269  57.952  1.00  0.00     0.159 HD
HETATM   26  O   UNL     1       7.927  26.121  58.147  1.00  0.00    -0.266 OA
ENDBRANCH   9  22
TORSDOF 4
ENDMDL
MODEL 8
REMARK VINA RESULT:      -8.2      4.161      6.842
REMARK  4 active torsions:
REMARK  status: ('A' for Active; 'I' for Inactive)
REMARK    1  A    between atoms: C_2  and  N_3 
REMARK    2  A    between atoms: C_4  and  C_5 
REMARK    3  A    between atoms: C_6  and  O_7 
REMARK    4  A    between atoms: C_19  and  C_20 
REMARK       I    between atoms: C_20  and  N_21 
ROOT
HETATM    1  C   UNL     1       9.874  28.988  56.651  1.00  0.00     0.034 A 
HETATM    2  C   UNL     1       8.572  28.652  57.044  1.00  0.00     0.057 A 
HETATM    3  C   UNL     1       7.910  29.440  57.994  1.00  0.00     0.048 A 
HETATM    4  C   UNL     1       8.567  30.551  58.561  1.00  0.00     0.030 A 
HETATM    5  C   UNL     1       9.865  30.835  58.159  1.00  0.00     0.063 A 
HETATM    6  N   UNL     1      10.227  31.948  58.867  1.00  0.00    -0.277 N 
HETATM    7  H   UNL     1      11.112  32.440  58.827  1.00  0.00     0.189 HD
HETATM    8  N   UNL     1       9.272  32.420  59.687  1.00  0.00    -0.168 NA
HETATM    9  C   UNL     1       8.239  31.568  59.506  1.00  0.00     0.156 A 
HETATM   10  C   UNL     1      10.555  30.077  57.209  1.00  0.00     0.034 A 
ENDROOT
BRANCH   2  11
HETATM   11  N   UNL     1       7.874  27.585  56.455  1.00  0.00    -0.260 NA
HETATM   12  C   UNL     1       7.695  27.621  55.171  1.00  0.00     0.131 C 
BRANCH  12  13
HETATM   13  C   UNL     1       6.965  26.540  54.477  1.00  0.00     0.016 A 
HETATM   14  C   UNL     1       5.644  26.699  54.044  1.00  0.00     0.077 A 
HETATM   15  C   UNL     1       4.984  25.656  53.397  1.00  0.00     0.039 A 
HETATM   16  C   UNL     1       5.648  24.450  53.169  1.00  0.00     0.022 A 
HETATM   17  C   UNL     1       6.967  24.295  53.596  1.00  0.00     0.012 A 
HETATM   18 BR   UNL     1       7.868  22.664  53.274  1.00  0.00    -0.051 Br
HETATM   19  C   UNL     1       7.633  25.331  54.254  1.00  0.00     0.034 A 
BRANCH  14  20
HETATM   20  O   UNL     1       4.933  27.852  54.226  1.00  0.00    -0.360 OA
HETATM   21  H   UNL     1       4.005  27.672  53.947  1.00  0.00     0.217 HD
ENDBRANCH  14  20
ENDBRANCH  12  13
ENDBRANCH   2  11
BRANCH   9  22
HETATM   22  C   UNL     1       6.968  31.743  60.222  1.00  0.00     0.270 C 
HETATM   23  N   UNL     1       6.955  31.200  61.479  1.00  0.00    -0.365 N 
HETATM   24  H   UNL     1       7.794  30.747  61.820  1.00  0.00     0.159 HD
HETATM   25  H   UNL     1       6.134  31.294  62.055  1.00  0.00     0.159 HD
HETATM   26  O   UNL     1       5.987  32.322  59.769  1.00  0.00    -0.266 OA
ENDBRANCH   9  22
TORSDOF 4
ENDMDL
MODEL 9
REMARK VINA RESULT:      -8.1      5.040      7.104
REMARK  4 active torsions:
REMARK  status: ('A' for Active; 'I' for Inactive)
REMARK    1  A    between atoms: C_2  and  N_3 
REMARK    2  A    between atoms: C_4  and  C_5 
REMARK    3  A    between atoms: C_6  and  O_7 
REMARK    4  A    between atoms: C_19  and  C_20 
REMARK       I    between atoms: C_20  and  N_21 
ROOT
HETATM    1  C   UNL     1       8.517  28.546  56.944  1.00  0.00     0.034 A 
HETATM    2  C   UNL     1       7.260  28.058  56.563  1.00  0.00     0.057 A 
HETATM    3  C   UNL     1       6.103  28.753  56.938  1.00  0.00     0.048 A 
HETATM    4  C   UNL     1       6.213  29.925  57.713  1.00  0.00     0.030 A 
HETATM    5  C   UNL     1       7.478  30.362  58.087  1.00  0.00     0.063 A 
HETATM    6  N   UNL     1       7.266  31.501  58.814  1.00  0.00    -0.277 N 
HETATM    7  H   UNL     1       7.966  32.092  59.248  1.00  0.00     0.189 HD
HETATM    8  N   UNL     1       5.973  31.850  58.937  1.00  0.00    -0.168 NA
HETATM    9  C   UNL     1       5.312  30.886  58.258  1.00  0.00     0.156 A 
HETATM   10  C   UNL     1       8.653  29.699  57.725  1.00  0.00     0.034 A 
ENDROOT
BRANCH   2  11
HETATM   11  N   UNL     1       7.123  26.924  55.745  1.00  0.00    -0.260 NA
HETATM   12  C   UNL     1       7.888  25.908  55.995  1.00  0.00     0.131 C 
BRANCH  12  13
HETATM   13  C   UNL     1       7.810  24.680  55.177  1.00  0.00     0.016 A 
HETATM   14  C   UNL     1       7.726  24.726  53.780  1.00  0.00     0.077 A 
HETATM   15  C   UNL     1       7.648  23.549  53.040  1.00  0.00     0.039 A 
HETATM   16  C   UNL     1       7.666  22.315  53.693  1.00  0.00     0.022 A 
HETATM   17  C   UNL     1       7.756  22.271  55.085  1.00  0.00     0.012 A 
HETATM   18 BR   UNL     1       7.792  20.598  55.966  1.00  0.00    -0.051 Br
HETATM   19  C   UNL     1       7.823  23.446  55.835  1.00  0.00     0.034 A 
BRANCH  14  20
HETATM   20  O   UNL     1       7.710  25.896  53.072  1.00  0.00    -0.360 OA
HETATM   21  H   UNL     1       7.695  25.659  52.116  1.00  0.00     0.217 HD
ENDBRANCH  14  20
ENDBRANCH  12  13
ENDBRANCH   2  11
BRANCH   9  22
HETATM   22  C   UNL     1       3.847  30.906  58.135  1.00  0.00     0.270 C 
HETATM   23  N   UNL     1       3.188  30.393  59.219  1.00  0.00    -0.365 N 
HETATM   24  H   UNL     1       3.733  30.062  60.006  1.00  0.00     0.159 HD
HETATM   25  H   UNL     1       2.181  30.388  59.235  1.00  0.00     0.159 HD
HETATM   26  O   UNL     1       3.236  31.340  57.164  1.00  0.00    -0.266 OA
ENDBRANCH   9  22
TORSDOF 4
ENDMDL
MODEL 10
REMARK VINA RESULT:      -8.0      3.917      6.464
REMARK  4 active torsions:
REMARK  status: ('A' for Active; 'I' for Inactive)
REMARK    1  A    between atoms: C_2  and  N_3 
REMARK    2  A    between atoms: C_4  and  C_5 
REMARK    3  A    between atoms: C_6  and  O_7 
REMARK    4  A    between atoms: C_19  and  C_20 
REMARK       I    between atoms: C_20  and  N_21 
ROOT
HETATM    1  C   UNL     1      10.270  29.394  57.017  1.00  0.00     0.034 A 
HETATM    2  C   UNL     1       8.938  28.974  57.126  1.00  0.00     0.057 A 
HETATM    3  C   UNL     1       8.046  29.698  57.926  1.00  0.00     0.048 A 
HETATM    4  C   UNL     1       8.501  30.830  58.631  1.00  0.00     0.030 A 
HETATM    5  C   UNL     1       9.835  31.199  58.512  1.00  0.00     0.063 A 
HETATM    6  N   UNL     1       9.973  32.313  59.293  1.00  0.00    -0.277 N 
HETATM    7  H   UNL     1      10.815  32.857  59.445  1.00  0.00     0.189 HD
HETATM    8  N   UNL     1       8.842  32.709  59.902  1.00  0.00    -0.168 NA
HETATM    9  C   UNL     1       7.923  31.803  59.499  1.00  0.00     0.156 A 
HETATM   10  C   UNL     1      10.752  30.506  57.718  1.00  0.00     0.034 A 
ENDROOT
BRANCH   2  11
HETATM   11  N   UNL     1       8.444  27.883  56.392  1.00  0.00    -0.260 NA
HETATM   12  C   UNL     1       8.376  26.736  56.993  1.00  0.00     0.131 C 
BRANCH  12  13
HETATM   13  C   UNL     1       7.873  25.539  56.288  1.00  0.00     0.016 A 
HETATM   14  C   UNL     1       8.077  24.247  56.786  1.00  0.00     0.077 A 
HETATM   15  C   UNL     1       7.593  23.140  56.093  1.00  0.00     0.039 A 
HETATM   16  C   UNL     1       6.889  23.320  54.901  1.00  0.00     0.022 A 
HETATM   17  C   UNL     1       6.681  24.609  54.409  1.00  0.00     0.012 A 
HETATM   18 BR   UNL     1       5.718  24.850  52.800  1.00  0.00    -0.051 Br
HETATM   19  C   UNL     1       7.172  25.723  55.092  1.00  0.00     0.034 A 
BRANCH  14  20
HETATM   20  O   UNL     1       8.750  23.994  57.949  1.00  0.00    -0.360 OA
HETATM   21  H   UNL     1       9.429  23.308  57.752  1.00  0.00     0.217 HD
ENDBRANCH  14  20
ENDBRANCH  12  13
ENDBRANCH   2  11
BRANCH   9  22
HETATM   22  C   UNL     1       6.523  31.887  59.937  1.00  0.00     0.270 C 
HETATM   23  N   UNL     1       6.335  31.611  61.264  1.00  0.00    -0.365 N 
HETATM   24  H   UNL     1       7.143  31.391  61.833  1.00  0.00     0.159 HD
HETATM   25  H   UNL     1       5.410  31.668  61.661  1.00  0.00     0.159 HD
HETATM   26  O   UNL     1       5.581  32.181  59.208  1.00  0.00    -0.266 OA
ENDBRANCH   9  22
TORSDOF 4
ENDMDL
