MODEL 1
REMARK VINA RESULT:     -10.1      0.000      0.000
REMARK  5 active torsions:
REMARK  status: ('A' for Active; 'I' for Inactive)
REMARK    1  A    between atoms: C_14  and  C_15 
REMARK       I    between atoms: C_15  and  N_16 
REMARK    2  A    between atoms: N_16  and  C_17 
REMARK    3  A    between atoms: C_18  and  C_19 
REMARK    4  A    between atoms: C_19  and  O_20 
REMARK    5  A    between atoms: O_20  and  C_21 
ROOT
HETATM    1  C   UNL     1       5.686  28.032  53.159  1.00  0.00     0.273 C 
HETATM    2  N   UNL     1       7.010  27.690  53.406  1.00  0.00    -0.321 N 
HETATM    3  O   UNL     1       4.900  28.369  54.036  1.00  0.00    -0.266 OA
HETATM    4  H   UNL     1       7.636  27.922  52.647  1.00  0.00     0.169 HD
ENDROOT
BRANCH   1   5
HETATM    5  C   UNL     1       5.342  28.050  51.739  1.00  0.00     0.104 C 
HETATM    6  N   UNL     1       4.976  26.929  50.987  1.00  0.00    -0.345 N 
HETATM    7  C   UNL     1       5.104  25.563  51.448  1.00  0.00     0.156 C 
HETATM    8  C   UNL     1       4.560  27.353  49.772  1.00  0.00     0.060 A 
HETATM    9  C   UNL     1       4.833  28.697  49.608  1.00  0.00     0.012 A 
HETATM   10  C   UNL     1       3.963  26.661  48.757  1.00  0.00     0.039 A 
HETATM   11  C   UNL     1       4.552  29.291  48.360  1.00  0.00     0.132 A 
HETATM   12  C   UNL     1       5.336  29.133  50.858  1.00  0.00     0.050 C 
HETATM   13  N   UNL     1       3.994  28.605  47.319  1.00  0.00    -0.241 NA
HETATM   14  C   UNL     1       3.709  27.317  47.576  1.00  0.00     0.139 A 
HETATM   15  N   UNL     1       3.111  26.416  46.742  1.00  0.00    -0.350 N 
HETATM   16  H   UNL     1       2.817  26.627  45.800  1.00  0.00     0.166 HD
HETATM   17  C   UNL     1       2.949  25.214  47.403  1.00  0.00     0.091 A 
HETATM   18  C   UNL     1       3.468  25.338  48.682  1.00  0.00     0.034 A 
ENDBRANCH   1   5
BRANCH   2  19
HETATM   19  C   UNL     1       7.574  27.687  54.703  1.00  0.00     0.043 A 
HETATM   20  C   UNL     1       7.425  26.636  55.627  1.00  0.00    -0.007 A 
HETATM   21  C   UNL     1       7.948  26.804  56.926  1.00  0.00     0.011 A 
HETATM   22  C   UNL     1       8.652  27.955  57.279  1.00  0.00     0.001 A 
HETATM   23  C   UNL     1       8.865  28.950  56.333  1.00  0.00     0.002 A 
HETATM   24  C   UNL     1       8.338  28.813  55.049  1.00  0.00     0.030 A 
BRANCH  20  25
HETATM   25  C   UNL     1       6.868  25.274  55.271  1.00  0.00     0.216 C 
BRANCH  25  26
HETATM   26  O   UNL     1       7.494  24.768  54.089  1.00  0.00    -0.347 OA
BRANCH  26  27
HETATM   27  C   UNL     1       7.630  23.405  54.102  1.00  0.00     0.069 A 
HETATM   28  C   UNL     1       7.862  22.643  52.956  1.00  0.00     0.037 A 
HETATM   29  C   UNL     1       8.011  21.258  53.058  1.00  0.00     0.003 A 
HETATM   30  C   UNL     1       7.940  20.637  54.305  1.00  0.00     0.000 A 
HETATM   31  C   UNL     1       7.729  21.401  55.452  1.00  0.00     0.003 A 
HETATM   32  C   UNL     1       7.582  22.785  55.351  1.00  0.00     0.037 A 
ENDBRANCH  26  27
ENDBRANCH  25  26
ENDBRANCH  20  25
ENDBRANCH   2  19
TORSDOF 5
ENDMDL
MODEL 2
REMARK VINA RESULT:     -10.0      3.909      7.637
REMARK  5 active torsions:
REMARK  status: ('A' for Active; 'I' for Inactive)
REMARK    1  A    between atoms: C_14  and  C_15 
REMARK       I    between atoms: C_15  and  N_16 
REMARK    2  A    between atoms: N_16  and  C_17 
REMARK    3  A    between atoms: C_18  and  C_19 
REMARK    4  A    between atoms: C_19  and  O_20 
REMARK    5  A    between atoms: O_20  and  C_21 
ROOT
HETATM    1  C   UNL     1       7.041  26.196  54.060  1.00  0.00     0.273 C 
HETATM    2  N   UNL     1       5.875  26.375  54.794  1.00  0.00    -0.321 N 
HETATM    3  O   UNL     1       7.706  27.122  53.610  1.00  0.00    -0.266 OA
HETATM    4  H   UNL     1       5.720  25.657  55.489  1.00  0.00     0.169 HD
ENDROOT
BRANCH   1   5
HETATM    5  C   UNL     1       7.458  24.800  53.957  1.00  0.00     0.104 C 
HETATM    6  N   UNL     1       7.991  24.041  55.004  1.00  0.00    -0.345 N 
HETATM    7  C   UNL     1       8.415  24.592  56.274  1.00  0.00     0.156 C 
HETATM    8  C   UNL     1       8.090  22.758  54.589  1.00  0.00     0.060 A 
HETATM    9  C   UNL     1       7.842  22.667  53.233  1.00  0.00     0.012 A 
HETATM   10  C   UNL     1       8.399  21.627  55.291  1.00  0.00     0.039 A 
HETATM   11  C   UNL     1       7.993  21.413  52.606  1.00  0.00     0.132 A 
HETATM   12  C   UNL     1       7.448  23.968  52.836  1.00  0.00     0.050 C 
HETATM   13  N   UNL     1       8.343  20.280  53.284  1.00  0.00    -0.241 NA
HETATM   14  C   UNL     1       8.514  20.441  54.607  1.00  0.00     0.139 A 
HETATM   15  N   UNL     1       8.819  19.480  55.528  1.00  0.00    -0.350 N 
HETATM   16  H   UNL     1       8.965  18.507  55.302  1.00  0.00     0.166 HD
HETATM   17  C   UNL     1       8.854  20.045  56.789  1.00  0.00     0.091 A 
HETATM   18  C   UNL     1       8.584  21.399  56.675  1.00  0.00     0.034 A 
ENDBRANCH   1   5
BRANCH   2  19
HETATM   19  C   UNL     1       5.337  27.651  55.083  1.00  0.00     0.043 A 
HETATM   20  C   UNL     1       5.531  28.333  56.299  1.00  0.00    -0.007 A 
HETATM   21  C   UNL     1       4.851  29.552  56.502  1.00  0.00     0.011 A 
HETATM   22  C   UNL     1       4.050  30.108  55.505  1.00  0.00     0.001 A 
HETATM   23  C   UNL     1       3.933  29.467  54.277  1.00  0.00     0.002 A 
HETATM   24  C   UNL     1       4.580  28.250  54.064  1.00  0.00     0.030 A 
BRANCH  20  25
HETATM   25  C   UNL     1       6.542  27.916  57.347  1.00  0.00     0.216 C 
BRANCH  25  26
HETATM   26  O   UNL     1       7.869  27.980  56.818  1.00  0.00    -0.347 OA
BRANCH  26  27
HETATM   27  C   UNL     1       8.587  29.037  57.314  1.00  0.00     0.069 A 
HETATM   28  C   UNL     1       8.177  29.799  58.409  1.00  0.00     0.037 A 
HETATM   29  C   UNL     1       8.979  30.848  58.867  1.00  0.00     0.003 A 
HETATM   30  C   UNL     1      10.193  31.125  58.239  1.00  0.00     0.000 A 
HETATM   31  C   UNL     1      10.612  30.349  57.158  1.00  0.00     0.003 A 
HETATM   32  C   UNL     1       9.812  29.301  56.701  1.00  0.00     0.037 A 
ENDBRANCH  26  27
ENDBRANCH  25  26
ENDBRANCH  20  25
ENDBRANCH   2  19
TORSDOF 5
ENDMDL
MODEL 3
REMARK VINA RESULT:      -9.8      3.802      7.495
REMARK  5 active torsions:
REMARK  status: ('A' for Active; 'I' for Inactive)
REMARK    1  A    between atoms: C_14  and  C_15 
REMARK       I    between atoms: C_15  and  N_16 
REMARK    2  A    between atoms: N_16  and  C_17 
REMARK    3  A    between atoms: C_18  and  C_19 
REMARK    4  A    between atoms: C_19  and  O_20 
REMARK    5  A    between atoms: O_20  and  C_21 
ROOT
HETATM    1  C   UNL     1       6.697  26.903  54.701  1.00  0.00     0.273 C 
HETATM    2  N   UNL     1       5.529  27.329  55.320  1.00  0.00    -0.321 N 
HETATM    3  O   UNL     1       7.396  27.629  54.003  1.00  0.00    -0.266 OA
HETATM    4  H   UNL     1       5.344  26.862  56.198  1.00  0.00     0.169 HD
ENDROOT
BRANCH   1   5
HETATM    5  C   UNL     1       7.072  25.533  55.038  1.00  0.00     0.104 C 
HETATM    6  N   UNL     1       7.015  24.445  54.161  1.00  0.00    -0.345 N 
HETATM    7  C   UNL     1       6.365  24.477  52.868  1.00  0.00     0.156 C 
HETATM    8  C   UNL     1       7.603  23.385  54.761  1.00  0.00     0.060 A 
HETATM    9  C   UNL     1       7.862  23.664  56.089  1.00  0.00     0.012 A 
HETATM   10  C   UNL     1       7.930  22.159  54.257  1.00  0.00     0.039 A 
HETATM   11  C   UNL     1       8.390  22.638  56.899  1.00  0.00     0.132 A 
HETATM   12  C   UNL     1       7.517  25.027  56.261  1.00  0.00     0.050 C 
HETATM   13  N   UNL     1       8.684  21.391  56.423  1.00  0.00    -0.241 NA
HETATM   14  C   UNL     1       8.454  21.217  55.111  1.00  0.00     0.139 A 
HETATM   15  N   UNL     1       8.696  20.098  54.366  1.00  0.00    -0.350 N 
HETATM   16  H   UNL     1       9.081  19.244  54.740  1.00  0.00     0.166 HD
HETATM   17  C   UNL     1       8.370  20.344  53.046  1.00  0.00     0.091 A 
HETATM   18  C   UNL     1       7.891  21.640  52.942  1.00  0.00     0.034 A 
ENDBRANCH   1   5
BRANCH   2  19
HETATM   19  C   UNL     1       5.027  28.645  55.195  1.00  0.00     0.043 A 
HETATM   20  C   UNL     1       5.091  29.616  56.211  1.00  0.00    -0.007 A 
HETATM   21  C   UNL     1       4.458  30.858  55.997  1.00  0.00     0.011 A 
HETATM   22  C   UNL     1       3.832  31.150  54.786  1.00  0.00     0.001 A 
HETATM   23  C   UNL     1       3.848  30.215  53.757  1.00  0.00     0.002 A 
HETATM   24  C   UNL     1       4.451  28.974  53.958  1.00  0.00     0.030 A 
BRANCH  20  25
HETATM   25  C   UNL     1       5.925  29.467  57.467  1.00  0.00     0.216 C 
BRANCH  25  26
HETATM   26  O   UNL     1       7.119  28.730  57.192  1.00  0.00    -0.347 OA
BRANCH  26  27
HETATM   27  C   UNL     1       8.256  29.471  57.385  1.00  0.00     0.069 A 
HETATM   28  C   UNL     1       8.371  30.464  58.360  1.00  0.00     0.037 A 
HETATM   29  C   UNL     1       9.574  31.159  58.506  1.00  0.00     0.003 A 
HETATM   30  C   UNL     1      10.663  30.854  57.689  1.00  0.00     0.000 A 
HETATM   31  C   UNL     1      10.553  29.848  56.730  1.00  0.00     0.003 A 
HETATM   32  C   UNL     1       9.352  29.151  56.584  1.00  0.00     0.037 A 
ENDBRANCH  26  27
ENDBRANCH  25  26
ENDBRANCH  20  25
ENDBRANCH   2  19
TORSDOF 5
ENDMDL
MODEL 4
REMARK VINA RESULT:      -9.6      2.845      7.325
REMARK  5 active torsions:
REMARK  status: ('A' for Active; 'I' for Inactive)
REMARK    1  A    between atoms: C_14  and  C_15 
REMARK       I    between atoms: C_15  and  N_16 
REMARK    2  A    between atoms: N_16  and  C_17 
REMARK    3  A    between atoms: C_18  and  C_19 
REMARK    4  A    between atoms: C_19  and  O_20 
REMARK    5  A    between atoms: O_20  and  C_21 
ROOT
HETATM    1  C   UNL     1       6.397  26.792  54.807  1.00  0.00     0.273 C 
HETATM    2  N   UNL     1       5.047  27.009  55.052  1.00  0.00    -0.321 N 
HETATM    3  O   UNL     1       7.169  27.672  54.443  1.00  0.00    -0.266 OA
HETATM    4  H   UNL     1       4.667  26.413  55.775  1.00  0.00     0.169 HD
ENDROOT
BRANCH   1   5
HETATM    5  C   UNL     1       6.838  25.435  55.120  1.00  0.00     0.104 C 
HETATM    6  N   UNL     1       6.853  24.367  54.217  1.00  0.00    -0.345 N 
HETATM    7  C   UNL     1       6.224  24.395  52.913  1.00  0.00     0.156 C 
HETATM    8  C   UNL     1       7.485  23.325  54.803  1.00  0.00     0.060 A 
HETATM    9  C   UNL     1       7.707  23.585  56.142  1.00  0.00     0.012 A 
HETATM   10  C   UNL     1       7.885  22.129  54.278  1.00  0.00     0.039 A 
HETATM   11  C   UNL     1       8.274  22.569  56.938  1.00  0.00     0.132 A 
HETATM   12  C   UNL     1       7.288  24.923  56.339  1.00  0.00     0.050 C 
HETATM   13  N   UNL     1       8.641  21.351  56.438  1.00  0.00    -0.241 NA
HETATM   14  C   UNL     1       8.443  21.196  55.119  1.00  0.00     0.139 A 
HETATM   15  N   UNL     1       8.756  20.109  54.353  1.00  0.00    -0.350 N 
HETATM   16  H   UNL     1       9.179  19.268  54.714  1.00  0.00     0.166 HD
HETATM   17  C   UNL     1       8.440  20.369  53.033  1.00  0.00     0.091 A 
HETATM   18  C   UNL     1       7.896  21.641  52.950  1.00  0.00     0.034 A 
ENDBRANCH   1   5
BRANCH   2  19
HETATM   19  C   UNL     1       4.430  28.271  54.892  1.00  0.00     0.043 A 
HETATM   20  C   UNL     1       4.034  28.806  53.652  1.00  0.00    -0.007 A 
HETATM   21  C   UNL     1       3.527  30.121  53.618  1.00  0.00     0.011 A 
HETATM   22  C   UNL     1       3.359  30.861  54.788  1.00  0.00     0.001 A 
HETATM   23  C   UNL     1       3.674  30.292  56.016  1.00  0.00     0.002 A 
HETATM   24  C   UNL     1       4.197  29.000  56.068  1.00  0.00     0.030 A 
BRANCH  20  25
HETATM   25  C   UNL     1       3.981  28.005  52.367  1.00  0.00     0.216 C 
BRANCH  25  26
HETATM   26  O   UNL     1       5.232  28.079  51.677  1.00  0.00    -0.347 OA
BRANCH  26  27
HETATM   27  C   UNL     1       5.120  27.784  50.344  1.00  0.00     0.069 A 
HETATM   28  C   UNL     1       4.653  26.560  49.863  1.00  0.00     0.037 A 
HETATM   29  C   UNL     1       4.548  26.347  48.486  1.00  0.00     0.003 A 
HETATM   30  C   UNL     1       4.899  27.359  47.593  1.00  0.00     0.000 A 
HETATM   31  C   UNL     1       5.345  28.589  48.075  1.00  0.00     0.003 A 
HETATM   32  C   UNL     1       5.449  28.804  49.450  1.00  0.00     0.037 A 
ENDBRANCH  26  27
ENDBRANCH  25  26
ENDBRANCH  20  25
ENDBRANCH   2  19
TORSDOF 5
ENDMDL
MODEL 5
REMARK VINA RESULT:      -9.6      3.467      7.863
REMARK  5 active torsions:
REMARK  status: ('A' for Active; 'I' for Inactive)
REMARK    1  A    between atoms: C_14  and  C_15 
REMARK       I    between atoms: C_15  and  N_16 
REMARK    2  A    between atoms: N_16  and  C_17 
REMARK    3  A    between atoms: C_18  and  C_19 
REMARK    4  A    between atoms: C_19  and  O_20 
REMARK    5  A    between atoms: O_20  and  C_21 
ROOT
HETATM    1  C   UNL     1       7.419  28.252  55.356  1.00  0.00     0.273 C 
HETATM    2  N   UNL     1       6.331  27.394  55.462  1.00  0.00    -0.321 N 
HETATM    3  O   UNL     1       8.109  28.347  54.347  1.00  0.00    -0.266 OA
HETATM    4  H   UNL     1       5.599  27.744  56.066  1.00  0.00     0.169 HD
ENDROOT
BRANCH   1   5
HETATM    5  C   UNL     1       7.608  29.105  56.526  1.00  0.00     0.104 C 
HETATM    6  N   UNL     1       6.752  30.142  56.911  1.00  0.00    -0.345 N 
HETATM    7  C   UNL     1       5.683  30.663  56.086  1.00  0.00     0.156 C 
HETATM    8  C   UNL     1       7.145  30.586  58.127  1.00  0.00     0.060 A 
HETATM    9  C   UNL     1       8.360  30.029  58.475  1.00  0.00     0.012 A 
HETATM   10  C   UNL     1       6.541  31.465  58.979  1.00  0.00     0.039 A 
HETATM   11  C   UNL     1       8.972  30.451  59.674  1.00  0.00     0.132 A 
HETATM   12  C   UNL     1       8.653  29.095  57.452  1.00  0.00     0.050 C 
HETATM   13  N   UNL     1       8.403  31.362  60.519  1.00  0.00    -0.241 NA
HETATM   14  C   UNL     1       7.198  31.815  60.135  1.00  0.00     0.139 A 
HETATM   15  N   UNL     1       6.387  32.689  60.803  1.00  0.00    -0.350 N 
HETATM   16  H   UNL     1       6.622  33.112  61.688  1.00  0.00     0.166 HD
HETATM   17  C   UNL     1       5.210  32.856  60.098  1.00  0.00     0.091 A 
HETATM   18  C   UNL     1       5.271  32.089  58.946  1.00  0.00     0.034 A 
ENDBRANCH   1   5
BRANCH   2  19
HETATM   19  C   UNL     1       5.921  26.538  54.414  1.00  0.00     0.043 A 
HETATM   20  C   UNL     1       6.274  25.179  54.320  1.00  0.00    -0.007 A 
HETATM   21  C   UNL     1       5.889  24.462  53.169  1.00  0.00     0.011 A 
HETATM   22  C   UNL     1       5.123  25.059  52.168  1.00  0.00     0.001 A 
HETATM   23  C   UNL     1       4.708  26.378  52.311  1.00  0.00     0.002 A 
HETATM   24  C   UNL     1       5.097  27.110  53.433  1.00  0.00     0.030 A 
BRANCH  20  25
HETATM   25  C   UNL     1       6.917  24.395  55.446  1.00  0.00     0.216 C 
BRANCH  25  26
HETATM   26  O   UNL     1       8.259  24.037  55.106  1.00  0.00    -0.347 OA
BRANCH  26  27
HETATM   27  C   UNL     1       8.426  22.684  54.962  1.00  0.00     0.069 A 
HETATM   28  C   UNL     1       8.379  21.785  56.029  1.00  0.00     0.037 A 
HETATM   29  C   UNL     1       8.537  20.417  55.794  1.00  0.00     0.003 A 
HETATM   30  C   UNL     1       8.731  19.948  54.495  1.00  0.00     0.000 A 
HETATM   31  C   UNL     1       8.757  20.845  53.427  1.00  0.00     0.003 A 
HETATM   32  C   UNL     1       8.597  22.212  53.661  1.00  0.00     0.037 A 
ENDBRANCH  26  27
ENDBRANCH  25  26
ENDBRANCH  20  25
ENDBRANCH   2  19
TORSDOF 5
ENDMDL
MODEL 6
REMARK VINA RESULT:      -9.6      2.791      7.457
REMARK  5 active torsions:
REMARK  status: ('A' for Active; 'I' for Inactive)
REMARK    1  A    between atoms: C_14  and  C_15 
REMARK       I    between atoms: C_15  and  N_16 
REMARK    2  A    between atoms: N_16  and  C_17 
REMARK    3  A    between atoms: C_18  and  C_19 
REMARK    4  A    between atoms: C_19  and  O_20 
REMARK    5  A    between atoms: O_20  and  C_21 
ROOT
HETATM    1  C   UNL     1       6.889  26.254  53.984  1.00  0.00     0.273 C 
HETATM    2  N   UNL     1       5.576  26.380  54.420  1.00  0.00    -0.321 N 
HETATM    3  O   UNL     1       7.624  27.211  53.766  1.00  0.00    -0.266 OA
HETATM    4  H   UNL     1       5.273  25.617  55.012  1.00  0.00     0.169 HD
ENDROOT
BRANCH   1   5
HETATM    5  C   UNL     1       7.349  24.870  53.902  1.00  0.00     0.104 C 
HETATM    6  N   UNL     1       7.872  24.133  54.970  1.00  0.00    -0.345 N 
HETATM    7  C   UNL     1       8.242  24.703  56.248  1.00  0.00     0.156 C 
HETATM    8  C   UNL     1       8.020  22.851  54.566  1.00  0.00     0.060 A 
HETATM    9  C   UNL     1       7.815  22.745  53.204  1.00  0.00     0.012 A 
HETATM   10  C   UNL     1       8.341  21.734  55.284  1.00  0.00     0.039 A 
HETATM   11  C   UNL     1       8.020  21.493  52.590  1.00  0.00     0.132 A 
HETATM   12  C   UNL     1       7.396  24.032  52.787  1.00  0.00     0.050 C 
HETATM   13  N   UNL     1       8.382  20.374  53.285  1.00  0.00    -0.241 NA
HETATM   14  C   UNL     1       8.509  20.547  54.611  1.00  0.00     0.139 A 
HETATM   15  N   UNL     1       8.815  19.601  55.548  1.00  0.00    -0.350 N 
HETATM   16  H   UNL     1       8.994  18.632  55.333  1.00  0.00     0.166 HD
HETATM   17  C   UNL     1       8.796  20.174  56.805  1.00  0.00     0.091 A 
HETATM   18  C   UNL     1       8.491  21.519  56.675  1.00  0.00     0.034 A 
ENDBRANCH   1   5
BRANCH   2  19
HETATM   19  C   UNL     1       4.956  27.631  54.646  1.00  0.00     0.043 A 
HETATM   20  C   UNL     1       4.392  28.427  53.632  1.00  0.00    -0.007 A 
HETATM   21  C   UNL     1       3.900  29.703  53.974  1.00  0.00     0.011 A 
HETATM   22  C   UNL     1       3.911  30.152  55.294  1.00  0.00     0.001 A 
HETATM   23  C   UNL     1       4.394  29.323  56.300  1.00  0.00     0.002 A 
HETATM   24  C   UNL     1       4.905  28.066  55.979  1.00  0.00     0.030 A 
BRANCH  20  25
HETATM   25  C   UNL     1       4.144  27.941  52.218  1.00  0.00     0.216 C 
BRANCH  25  26
HETATM   26  O   UNL     1       5.361  27.938  51.468  1.00  0.00    -0.347 OA
BRANCH  26  27
HETATM   27  C   UNL     1       5.167  27.649  50.142  1.00  0.00     0.069 A 
HETATM   28  C   UNL     1       4.607  26.453  49.690  1.00  0.00     0.037 A 
HETATM   29  C   UNL     1       4.422  26.245  48.321  1.00  0.00     0.003 A 
HETATM   30  C   UNL     1       4.784  27.235  47.408  1.00  0.00     0.000 A 
HETATM   31  C   UNL     1       5.323  28.438  47.862  1.00  0.00     0.003 A 
HETATM   32  C   UNL     1       5.507  28.647  49.230  1.00  0.00     0.037 A 
ENDBRANCH  26  27
ENDBRANCH  25  26
ENDBRANCH  20  25
ENDBRANCH   2  19
TORSDOF 5
ENDMDL
MODEL 7
REMARK VINA RESULT:      -9.5      3.276      7.798
REMARK  5 active torsions:
REMARK  status: ('A' for Active; 'I' for Inactive)
REMARK    1  A    between atoms: C_14  and  C_15 
REMARK       I    between atoms: C_15  and  N_16 
REMARK    2  A    between atoms: N_16  and  C_17 
REMARK    3  A    between atoms: C_18  and  C_19 
REMARK    4  A    between atoms: C_19  and  O_20 
REMARK    5  A    between atoms: O_20  and  C_21 
ROOT
HETATM    1  C   UNL     1       6.845  28.559  54.993  1.00  0.00     0.273 C 
HETATM    2  N   UNL     1       5.650  27.932  54.661  1.00  0.00    -0.321 N 
HETATM    3  O   UNL     1       7.861  28.480  54.313  1.00  0.00    -0.266 OA
HETATM    4  H   UNL     1       4.830  28.439  54.967  1.00  0.00     0.169 HD
ENDROOT
BRANCH   1   5
HETATM    5  C   UNL     1       6.752  29.404  56.181  1.00  0.00     0.104 C 
HETATM    6  N   UNL     1       7.754  29.546  57.146  1.00  0.00    -0.345 N 
HETATM    7  C   UNL     1       8.930  28.705  57.227  1.00  0.00     0.156 C 
HETATM    8  C   UNL     1       7.389  30.535  57.992  1.00  0.00     0.060 A 
HETATM    9  C   UNL     1       6.084  30.919  57.755  1.00  0.00     0.012 A 
HETATM   10  C   UNL     1       8.096  31.144  58.990  1.00  0.00     0.039 A 
HETATM   11  C   UNL     1       5.501  31.878  58.608  1.00  0.00     0.132 A 
HETATM   12  C   UNL     1       5.682  30.192  56.608  1.00  0.00     0.050 C 
HETATM   13  N   UNL     1       6.178  32.468  59.637  1.00  0.00    -0.241 NA
HETATM   14  C   UNL     1       7.458  32.081  59.769  1.00  0.00     0.139 A 
HETATM   15  N   UNL     1       8.375  32.534  60.674  1.00  0.00    -0.350 N 
HETATM   16  H   UNL     1       8.177  33.231  61.377  1.00  0.00     0.166 HD
HETATM   17  C   UNL     1       9.592  31.923  60.443  1.00  0.00     0.091 A 
HETATM   18  C   UNL     1       9.453  31.046  59.379  1.00  0.00     0.034 A 
ENDBRANCH   1   5
BRANCH   2  19
HETATM   19  C   UNL     1       5.497  27.131  53.506  1.00  0.00     0.043 A 
HETATM   20  C   UNL     1       5.867  25.775  53.429  1.00  0.00    -0.007 A 
HETATM   21  C   UNL     1       5.761  25.118  52.186  1.00  0.00     0.011 A 
HETATM   22  C   UNL     1       5.245  25.770  51.066  1.00  0.00     0.001 A 
HETATM   23  C   UNL     1       4.803  27.084  51.174  1.00  0.00     0.002 A 
HETATM   24  C   UNL     1       4.920  27.757  52.390  1.00  0.00     0.030 A 
BRANCH  20  25
HETATM   25  C   UNL     1       6.234  24.932  54.633  1.00  0.00     0.216 C 
BRANCH  25  26
HETATM   26  O   UNL     1       7.603  24.524  54.561  1.00  0.00    -0.347 OA
BRANCH  26  27
HETATM   27  C   UNL     1       7.745  23.168  54.416  1.00  0.00     0.069 A 
HETATM   28  C   UNL     1       8.056  22.552  53.203  1.00  0.00     0.037 A 
HETATM   29  C   UNL     1       8.205  21.164  53.145  1.00  0.00     0.003 A 
HETATM   30  C   UNL     1       8.056  20.396  54.299  1.00  0.00     0.000 A 
HETATM   31  C   UNL     1       7.766  21.014  55.515  1.00  0.00     0.003 A 
HETATM   32  C   UNL     1       7.618  22.401  55.574  1.00  0.00     0.037 A 
ENDBRANCH  26  27
ENDBRANCH  25  26
ENDBRANCH  20  25
ENDBRANCH   2  19
TORSDOF 5
ENDMDL
MODEL 8
REMARK VINA RESULT:      -9.4      1.619      2.335
REMARK  5 active torsions:
REMARK  status: ('A' for Active; 'I' for Inactive)
REMARK    1  A    between atoms: C_14  and  C_15 
REMARK       I    between atoms: C_15  and  N_16 
REMARK    2  A    between atoms: N_16  and  C_17 
REMARK    3  A    between atoms: C_18  and  C_19 
REMARK    4  A    between atoms: C_19  and  O_20 
REMARK    5  A    between atoms: O_20  and  C_21 
ROOT
HETATM    1  C   UNL     1       5.343  28.037  51.803  1.00  0.00     0.273 C 
HETATM    2  N   UNL     1       5.111  27.311  52.964  1.00  0.00    -0.321 N 
HETATM    3  O   UNL     1       6.166  28.942  51.725  1.00  0.00    -0.266 OA
HETATM    4  H   UNL     1       4.834  26.353  52.792  1.00  0.00     0.169 HD
ENDROOT
BRANCH   1   5
HETATM    5  C   UNL     1       4.583  27.559  50.651  1.00  0.00     0.104 C 
HETATM    6  N   UNL     1       3.443  28.178  50.127  1.00  0.00    -0.345 N 
HETATM    7  C   UNL     1       2.725  29.249  50.785  1.00  0.00     0.156 C 
HETATM    8  C   UNL     1       3.121  27.560  48.969  1.00  0.00     0.060 A 
HETATM    9  C   UNL     1       3.876  26.415  48.804  1.00  0.00     0.012 A 
HETATM   10  C   UNL     1       2.197  27.895  48.020  1.00  0.00     0.039 A 
HETATM   11  C   UNL     1       3.609  25.589  47.693  1.00  0.00     0.132 A 
HETATM   12  C   UNL     1       4.798  26.416  49.879  1.00  0.00     0.050 C 
HETATM   13  N   UNL     1       2.660  25.886  46.757  1.00  0.00    -0.241 NA
HETATM   14  C   UNL     1       2.006  27.042  46.959  1.00  0.00     0.139 A 
HETATM   15  N   UNL     1       1.047  27.605  46.166  1.00  0.00    -0.350 N 
HETATM   16  H   UNL     1       0.706  27.189  45.312  1.00  0.00     0.166 HD
HETATM   17  C   UNL     1       0.666  28.822  46.696  1.00  0.00     0.091 A 
HETATM   18  C   UNL     1       1.380  29.040  47.864  1.00  0.00     0.034 A 
ENDBRANCH   1   5
BRANCH   2  19
HETATM   19  C   UNL     1       5.800  27.554  54.175  1.00  0.00     0.043 A 
HETATM   20  C   UNL     1       6.746  26.677  54.736  1.00  0.00    -0.007 A 
HETATM   21  C   UNL     1       7.283  26.987  56.002  1.00  0.00     0.011 A 
HETATM   22  C   UNL     1       6.937  28.164  56.666  1.00  0.00     0.001 A 
HETATM   23  C   UNL     1       6.066  29.064  56.064  1.00  0.00     0.002 A 
HETATM   24  C   UNL     1       5.508  28.765  54.821  1.00  0.00     0.030 A 
BRANCH  20  25
HETATM   25  C   UNL     1       7.338  25.493  53.999  1.00  0.00     0.216 C 
BRANCH  25  26
HETATM   26  O   UNL     1       8.042  24.639  54.906  1.00  0.00    -0.347 OA
BRANCH  26  27
HETATM   27  C   UNL     1       7.977  23.317  54.548  1.00  0.00     0.069 A 
HETATM   28  C   UNL     1       8.071  22.872  53.229  1.00  0.00     0.037 A 
HETATM   29  C   UNL     1       8.018  21.504  52.951  1.00  0.00     0.003 A 
HETATM   30  C   UNL     1       7.883  20.583  53.990  1.00  0.00     0.000 A 
HETATM   31  C   UNL     1       7.810  21.028  55.309  1.00  0.00     0.003 A 
HETATM   32  C   UNL     1       7.865  22.395  55.589  1.00  0.00     0.037 A 
ENDBRANCH  26  27
ENDBRANCH  25  26
ENDBRANCH  20  25
ENDBRANCH   2  19
TORSDOF 5
ENDMDL
MODEL 9
REMARK VINA RESULT:      -9.4      2.637      7.371
REMARK  5 active torsions:
REMARK  status: ('A' for Active; 'I' for Inactive)
REMARK    1  A    between atoms: C_14  and  C_15 
REMARK       I    between atoms: C_15  and  N_16 
REMARK    2  A    between atoms: N_16  and  C_17 
REMARK    3  A    between atoms: C_18  and  C_19 
REMARK    4  A    between atoms: C_19  and  O_20 
REMARK    5  A    between atoms: O_20  and  C_21 
ROOT
HETATM    1  C   UNL     1       5.037  28.365  53.638  1.00  0.00     0.273 C 
HETATM    2  N   UNL     1       5.728  28.365  52.432  1.00  0.00    -0.321 N 
HETATM    3  O   UNL     1       3.868  28.014  53.747  1.00  0.00    -0.266 OA
HETATM    4  H   UNL     1       6.717  28.181  52.534  1.00  0.00     0.169 HD
ENDROOT
BRANCH   1   5
HETATM    5  C   UNL     1       5.863  28.729  54.786  1.00  0.00     0.104 C 
HETATM    6  N   UNL     1       5.663  29.852  55.596  1.00  0.00    -0.345 N 
HETATM    7  C   UNL     1       4.752  30.931  55.279  1.00  0.00     0.156 C 
HETATM    8  C   UNL     1       6.501  29.766  56.653  1.00  0.00     0.060 A 
HETATM    9  C   UNL     1       7.404  28.736  56.473  1.00  0.00     0.012 A 
HETATM   10  C   UNL     1       6.571  30.527  57.785  1.00  0.00     0.039 A 
HETATM   11  C   UNL     1       8.419  28.556  57.435  1.00  0.00     0.132 A 
HETATM   12  C   UNL     1       6.998  28.085  55.282  1.00  0.00     0.050 C 
HETATM   13  N   UNL     1       8.529  29.335  58.553  1.00  0.00    -0.241 NA
HETATM   14  C   UNL     1       7.582  30.279  58.682  1.00  0.00     0.139 A 
HETATM   15  N   UNL     1       7.423  31.161  59.713  1.00  0.00    -0.350 N 
HETATM   16  H   UNL     1       8.033  31.206  60.516  1.00  0.00     0.166 HD
HETATM   17  C   UNL     1       6.297  31.930  59.492  1.00  0.00     0.091 A 
HETATM   18  C   UNL     1       5.730  31.549  58.286  1.00  0.00     0.034 A 
ENDBRANCH   1   5
BRANCH   2  19
HETATM   19  C   UNL     1       5.140  27.968  51.209  1.00  0.00     0.043 A 
HETATM   20  C   UNL     1       5.099  26.640  50.746  1.00  0.00    -0.007 A 
HETATM   21  C   UNL     1       4.579  26.391  49.460  1.00  0.00     0.011 A 
HETATM   22  C   UNL     1       4.059  27.422  48.679  1.00  0.00     0.001 A 
HETATM   23  C   UNL     1       4.028  28.719  49.180  1.00  0.00     0.002 A 
HETATM   24  C   UNL     1       4.556  28.988  50.441  1.00  0.00     0.030 A 
BRANCH  20  25
HETATM   25  C   UNL     1       5.442  25.438  51.603  1.00  0.00     0.216 C 
BRANCH  25  26
HETATM   26  O   UNL     1       6.796  25.516  52.057  1.00  0.00    -0.347 OA
BRANCH  26  27
HETATM   27  C   UNL     1       7.105  24.546  52.975  1.00  0.00     0.069 A 
HETATM   28  C   UNL     1       7.919  23.449  52.691  1.00  0.00     0.037 A 
HETATM   29  C   UNL     1       8.203  22.516  53.691  1.00  0.00     0.003 A 
HETATM   30  C   UNL     1       7.684  22.686  54.975  1.00  0.00     0.000 A 
HETATM   31  C   UNL     1       6.887  23.793  55.262  1.00  0.00     0.003 A 
HETATM   32  C   UNL     1       6.604  24.727  54.265  1.00  0.00     0.037 A 
ENDBRANCH  26  27
ENDBRANCH  25  26
ENDBRANCH  20  25
ENDBRANCH   2  19
TORSDOF 5
ENDMDL
MODEL 10
REMARK VINA RESULT:      -9.2      1.654      4.954
REMARK  5 active torsions:
REMARK  status: ('A' for Active; 'I' for Inactive)
REMARK    1  A    between atoms: C_14  and  C_15 
REMARK       I    between atoms: C_15  and  N_16 
REMARK    2  A    between atoms: N_16  and  C_17 
REMARK    3  A    between atoms: C_18  and  C_19 
REMARK    4  A    between atoms: C_19  and  O_20 
REMARK    5  A    between atoms: O_20  and  C_21 
ROOT
HETATM    1  C   UNL     1       5.562  25.388  51.929  1.00  0.00     0.273 C 
HETATM    2  N   UNL     1       6.926  25.288  52.170  1.00  0.00    -0.321 N 
HETATM    3  O   UNL     1       4.716  24.761  52.558  1.00  0.00    -0.266 OA
HETATM    4  H   UNL     1       7.433  26.143  51.984  1.00  0.00     0.169 HD
ENDROOT
BRANCH   1   5
HETATM    5  C   UNL     1       5.218  26.385  50.919  1.00  0.00     0.104 C 
HETATM    6  N   UNL     1       5.274  27.770  51.105  1.00  0.00    -0.345 N 
HETATM    7  C   UNL     1       5.463  28.411  52.389  1.00  0.00     0.156 C 
HETATM    8  C   UNL     1       5.060  28.367  49.911  1.00  0.00     0.060 A 
HETATM    9  C   UNL     1       4.653  27.439  48.972  1.00  0.00     0.012 A 
HETATM   10  C   UNL     1       5.172  29.680  49.551  1.00  0.00     0.039 A 
HETATM   11  C   UNL     1       4.292  27.897  47.688  1.00  0.00     0.132 A 
HETATM   12  C   UNL     1       4.748  26.183  49.619  1.00  0.00     0.050 C 
HETATM   13  N   UNL     1       4.358  29.212  47.323  1.00  0.00    -0.241 NA
HETATM   14  C   UNL     1       4.814  30.043  48.274  1.00  0.00     0.139 A 
HETATM   15  N   UNL     1       5.024  31.389  48.172  1.00  0.00    -0.350 N 
HETATM   16  H   UNL     1       4.841  31.927  47.338  1.00  0.00     0.166 HD
HETATM   17  C   UNL     1       5.551  31.865  49.357  1.00  0.00     0.091 A 
HETATM   18  C   UNL     1       5.666  30.808  50.247  1.00  0.00     0.034 A 
ENDBRANCH   1   5
BRANCH   2  19
HETATM   19  C   UNL     1       7.472  24.441  53.163  1.00  0.00     0.043 A 
HETATM   20  C   UNL     1       7.537  24.767  54.531  1.00  0.00    -0.007 A 
HETATM   21  C   UNL     1       8.203  23.882  55.403  1.00  0.00     0.011 A 
HETATM   22  C   UNL     1       8.735  22.678  54.942  1.00  0.00     0.001 A 
HETATM   23  C   UNL     1       8.591  22.326  53.605  1.00  0.00     0.002 A 
HETATM   24  C   UNL     1       7.954  23.199  52.723  1.00  0.00     0.030 A 
BRANCH  20  25
HETATM   25  C   UNL     1       6.808  25.941  55.153  1.00  0.00     0.216 C 
BRANCH  25  26
HETATM   26  O   UNL     1       7.504  27.162  54.889  1.00  0.00    -0.347 OA
BRANCH  26  27
HETATM   27  C   UNL     1       7.445  28.043  55.936  1.00  0.00     0.069 A 
HETATM   28  C   UNL     1       8.191  27.899  57.107  1.00  0.00     0.037 A 
HETATM   29  C   UNL     1       8.089  28.856  58.120  1.00  0.00     0.003 A 
HETATM   30  C   UNL     1       7.253  29.960  57.957  1.00  0.00     0.000 A 
HETATM   31  C   UNL     1       6.524  30.114  56.779  1.00  0.00     0.003 A 
HETATM   32  C   UNL     1       6.626  29.160  55.765  1.00  0.00     0.037 A 
ENDBRANCH  26  27
ENDBRANCH  25  26
ENDBRANCH  20  25
ENDBRANCH   2  19
TORSDOF 5
ENDMDL
