MODEL 1
REMARK VINA RESULT:      -9.6      0.000      0.000
REMARK  6 active torsions:
REMARK  status: ('A' for Active; 'I' for Inactive)
REMARK    1  A    between atoms: O_2  and  C_3 
REMARK    2  A    between atoms: C_6  and  C_7 
REMARK    3  A    between atoms: C_11  and  C_12 
REMARK       I    between atoms: C_12  and  N_13 
REMARK    4  A    between atoms: N_13  and  N_14 
REMARK       I    between atoms: N_14  and  C_15 
REMARK    5  A    between atoms: C_15  and  C_16 
REMARK    6  A    between atoms: C_17  and  C_18 
ROOT
HETATM    1  C   UNL     1       6.719  29.551  57.830  1.00  0.00     0.288 C 
HETATM    2  N   UNL     1       5.440  30.066  57.883  1.00  0.00    -0.262 N 
HETATM    3  O   UNL     1       7.559  29.796  58.693  1.00  0.00    -0.264 OA
HETATM    4  H   UNL     1       4.778  29.993  57.114  1.00  0.00     0.190 HD
ENDROOT
BRANCH   1   5
HETATM    5  C   UNL     1       6.989  28.703  56.701  1.00  0.00     0.121 A 
HETATM    6  N   UNL     1       7.517  29.193  55.540  1.00  0.00    -0.272 N 
HETATM    7  N   UNL     1       7.758  28.258  54.608  1.00  0.00    -0.174 NA
HETATM    8  H   UNL     1       7.752  30.160  55.337  1.00  0.00     0.189 HD
HETATM    9  C   UNL     1       7.350  27.108  55.168  1.00  0.00     0.089 A 
HETATM   10  C   UNL     1       6.851  27.348  56.479  1.00  0.00     0.071 A 
BRANCH   9  11
HETATM   11  C   UNL     1       7.471  25.822  54.477  1.00  0.00    -0.005 A 
HETATM   12  C   UNL     1       7.719  25.776  53.097  1.00  0.00     0.016 A 
HETATM   13  C   UNL     1       7.892  24.554  52.435  1.00  0.00     0.037 A 
HETATM   14  C   UNL     1       7.815  23.357  53.144  1.00  0.00     0.068 A 
HETATM   15  C   UNL     1       7.540  23.393  54.512  1.00  0.00     0.037 A 
HETATM   16  C   UNL     1       7.372  24.613  55.176  1.00  0.00     0.016 A 
BRANCH  14  17
HETATM   17  O   UNL     1       7.978  22.103  52.625  1.00  0.00    -0.356 OA
HETATM   18  C   UNL     1       7.880  21.018  53.538  1.00  0.00     0.210 C 
ENDBRANCH  14  17
ENDBRANCH   9  11
ENDBRANCH   1   5
BRANCH   2  19
HETATM   19  N   UNL     1       5.111  30.978  58.888  1.00  0.00    -0.267 N 
HETATM   20  C   UNL     1       5.440  32.300  58.700  1.00  0.00     0.240 C 
HETATM   21  O   UNL     1       5.992  32.723  57.688  1.00  0.00    -0.271 OA
HETATM   22  H   UNL     1       4.661  30.615  59.726  1.00  0.00     0.190 HD
BRANCH  20  23
HETATM   23  C   UNL     1       5.073  33.189  59.834  1.00  0.00     0.089 A 
HETATM   24  C   UNL     1       5.929  33.287  61.085  1.00  0.00     0.036 A 
HETATM   25  C   UNL     1       4.588  32.597  61.134  1.00  0.00     0.025 A 
BRANCH  24  26
HETATM   26  C   UNL     1       7.213  32.502  61.231  1.00  0.00    -0.015 A 
HETATM   27  C   UNL     1       7.318  31.438  62.142  1.00  0.00     0.123 A 
HETATM   28  F   UNL     1       6.261  31.128  62.911  1.00  0.00    -0.206 F 
HETATM   29  C   UNL     1       8.482  30.683  62.277  1.00  0.00     0.043 A 
HETATM   30  C   UNL     1       9.587  30.974  61.482  1.00  0.00     0.003 A 
HETATM   31  C   UNL     1       9.515  32.014  60.559  1.00  0.00     0.001 A 
HETATM   32  C   UNL     1       8.340  32.764  60.432  1.00  0.00     0.011 A 
ENDBRANCH  24  26
ENDBRANCH  20  23
ENDBRANCH   2  19
TORSDOF 6
ENDMDL
MODEL 2
REMARK VINA RESULT:      -9.6      3.374      9.784
REMARK  6 active torsions:
REMARK  status: ('A' for Active; 'I' for Inactive)
REMARK    1  A    between atoms: O_2  and  C_3 
REMARK    2  A    between atoms: C_6  and  C_7 
REMARK    3  A    between atoms: C_11  and  C_12 
REMARK       I    between atoms: C_12  and  N_13 
REMARK    4  A    between atoms: N_13  and  N_14 
REMARK       I    between atoms: N_14  and  C_15 
REMARK    5  A    between atoms: C_15  and  C_16 
REMARK    6  A    between atoms: C_17  and  C_18 
ROOT
HETATM    1  C   UNL     1       7.806  28.466  55.118  1.00  0.00     0.288 C 
HETATM    2  N   UNL     1       6.934  27.410  54.953  1.00  0.00    -0.262 N 
HETATM    3  O   UNL     1       8.735  28.675  54.340  1.00  0.00    -0.264 OA
HETATM    4  H   UNL     1       6.251  27.137  55.655  1.00  0.00     0.190 HD
ENDROOT
BRANCH   1   5
HETATM    5  C   UNL     1       7.542  29.304  56.255  1.00  0.00     0.121 A 
HETATM    6  N   UNL     1       6.381  30.014  56.376  1.00  0.00    -0.272 N 
HETATM    7  N   UNL     1       6.273  30.702  57.522  1.00  0.00    -0.174 NA
HETATM    8  H   UNL     1       5.616  30.050  55.709  1.00  0.00     0.189 HD
HETATM    9  C   UNL     1       7.420  30.455  58.175  1.00  0.00     0.089 A 
HETATM   10  C   UNL     1       8.247  29.590  57.407  1.00  0.00     0.071 A 
BRANCH   9  11
HETATM   11  C   UNL     1       7.690  31.004  59.507  1.00  0.00    -0.005 A 
HETATM   12  C   UNL     1       6.830  31.959  60.069  1.00  0.00     0.016 A 
HETATM   13  C   UNL     1       7.046  32.451  61.363  1.00  0.00     0.037 A 
HETATM   14  C   UNL     1       8.130  31.998  62.112  1.00  0.00     0.068 A 
HETATM   15  C   UNL     1       9.007  31.069  61.547  1.00  0.00     0.037 A 
HETATM   16  C   UNL     1       8.789  30.572  60.258  1.00  0.00     0.016 A 
BRANCH  14  17
HETATM   17  O   UNL     1       8.446  32.383  63.385  1.00  0.00    -0.356 OA
HETATM   18  C   UNL     1       7.466  33.143  64.082  1.00  0.00     0.210 C 
ENDBRANCH  14  17
ENDBRANCH   9  11
ENDBRANCH   1   5
BRANCH   2  19
HETATM   19  N   UNL     1       7.166  26.484  53.934  1.00  0.00    -0.267 N 
HETATM   20  C   UNL     1       6.332  25.394  53.843  1.00  0.00     0.240 C 
HETATM   21  O   UNL     1       5.385  25.200  54.601  1.00  0.00    -0.271 OA
HETATM   22  H   UNL     1       7.958  26.650  53.317  1.00  0.00     0.190 HD
BRANCH  20  23
HETATM   23  C   UNL     1       6.674  24.453  52.744  1.00  0.00     0.089 A 
HETATM   24  C   UNL     1       7.365  23.126  53.009  1.00  0.00     0.036 A 
HETATM   25  C   UNL     1       8.112  24.253  52.337  1.00  0.00     0.025 A 
BRANCH  24  26
HETATM   26  C   UNL     1       7.721  22.685  54.410  1.00  0.00    -0.015 A 
HETATM   27  C   UNL     1       7.659  21.334  54.788  1.00  0.00     0.123 A 
HETATM   28  F   UNL     1       7.256  20.421  53.889  1.00  0.00    -0.206 F 
HETATM   29  C   UNL     1       8.007  20.899  56.066  1.00  0.00     0.043 A 
HETATM   30  C   UNL     1       8.441  21.822  57.012  1.00  0.00     0.003 A 
HETATM   31  C   UNL     1       8.528  23.170  56.670  1.00  0.00     0.001 A 
HETATM   32  C   UNL     1       8.177  23.593  55.383  1.00  0.00     0.011 A 
ENDBRANCH  24  26
ENDBRANCH  20  23
ENDBRANCH   2  19
TORSDOF 6
ENDMDL
MODEL 3
REMARK VINA RESULT:      -9.4      3.271     10.074
REMARK  6 active torsions:
REMARK  status: ('A' for Active; 'I' for Inactive)
REMARK    1  A    between atoms: O_2  and  C_3 
REMARK    2  A    between atoms: C_6  and  C_7 
REMARK    3  A    between atoms: C_11  and  C_12 
REMARK       I    between atoms: C_12  and  N_13 
REMARK    4  A    between atoms: N_13  and  N_14 
REMARK       I    between atoms: N_14  and  C_15 
REMARK    5  A    between atoms: C_15  and  C_16 
REMARK    6  A    between atoms: C_17  and  C_18 
ROOT
HETATM    1  C   UNL     1       8.713  29.139  57.729  1.00  0.00     0.288 C 
HETATM    2  N   UNL     1       7.944  27.994  57.674  1.00  0.00    -0.262 N 
HETATM    3  O   UNL     1       9.751  29.262  57.083  1.00  0.00    -0.264 OA
HETATM    4  H   UNL     1       7.164  27.817  58.301  1.00  0.00     0.190 HD
ENDROOT
BRANCH   1   5
HETATM    5  C   UNL     1       8.204  30.175  58.586  1.00  0.00     0.121 A 
HETATM    6  N   UNL     1       7.354  31.141  58.126  1.00  0.00    -0.272 N 
HETATM    7  N   UNL     1       6.933  31.998  59.069  1.00  0.00    -0.174 NA
HETATM    8  H   UNL     1       7.012  31.250  57.176  1.00  0.00     0.189 HD
HETATM    9  C   UNL     1       7.550  31.596  60.192  1.00  0.00     0.089 A 
HETATM   10  C   UNL     1       8.365  30.461  59.926  1.00  0.00     0.071 A 
BRANCH   9  11
HETATM   11  C   UNL     1       7.331  32.261  61.479  1.00  0.00    -0.005 A 
HETATM   12  C   UNL     1       6.174  33.023  61.697  1.00  0.00     0.016 A 
HETATM   13  C   UNL     1       5.926  33.619  62.940  1.00  0.00     0.037 A 
HETATM   14  C   UNL     1       6.836  33.465  63.984  1.00  0.00     0.068 A 
HETATM   15  C   UNL     1       8.005  32.732  63.765  1.00  0.00     0.037 A 
HETATM   16  C   UNL     1       8.251  32.132  62.526  1.00  0.00     0.016 A 
BRANCH  14  17
HETATM   17  O   UNL     1       6.709  33.978  65.244  1.00  0.00    -0.356 OA
HETATM   18  C   UNL     1       5.405  33.965  65.810  1.00  0.00     0.210 C 
ENDBRANCH  14  17
ENDBRANCH   9  11
ENDBRANCH   1   5
BRANCH   2  19
HETATM   19  N   UNL     1       8.406  26.896  56.946  1.00  0.00    -0.267 N 
HETATM   20  C   UNL     1       7.604  25.780  56.874  1.00  0.00     0.240 C 
HETATM   21  O   UNL     1       6.498  25.706  57.403  1.00  0.00    -0.271 OA
HETATM   22  H   UNL     1       9.326  26.965  56.518  1.00  0.00     0.190 HD
BRANCH  20  23
HETATM   23  C   UNL     1       8.190  24.655  56.098  1.00  0.00     0.089 A 
HETATM   24  C   UNL     1       7.780  24.370  54.664  1.00  0.00     0.036 A 
HETATM   25  C   UNL     1       7.356  23.442  55.776  1.00  0.00     0.025 A 
BRANCH  24  26
HETATM   26  C   UNL     1       6.768  25.231  53.943  1.00  0.00    -0.015 A 
HETATM   27  C   UNL     1       7.105  26.508  53.464  1.00  0.00     0.123 A 
HETATM   28  F   UNL     1       8.347  26.977  53.670  1.00  0.00    -0.206 F 
HETATM   29  C   UNL     1       6.198  27.310  52.775  1.00  0.00     0.043 A 
HETATM   30  C   UNL     1       4.909  26.843  52.536  1.00  0.00     0.003 A 
HETATM   31  C   UNL     1       4.542  25.577  52.985  1.00  0.00     0.001 A 
HETATM   32  C   UNL     1       5.463  24.780  53.675  1.00  0.00     0.011 A 
ENDBRANCH  24  26
ENDBRANCH  20  23
ENDBRANCH   2  19
TORSDOF 6
ENDMDL
MODEL 4
REMARK VINA RESULT:      -9.3      3.472      9.457
REMARK  6 active torsions:
REMARK  status: ('A' for Active; 'I' for Inactive)
REMARK    1  A    between atoms: O_2  and  C_3 
REMARK    2  A    between atoms: C_6  and  C_7 
REMARK    3  A    between atoms: C_11  and  C_12 
REMARK       I    between atoms: C_12  and  N_13 
REMARK    4  A    between atoms: N_13  and  N_14 
REMARK       I    between atoms: N_14  and  C_15 
REMARK    5  A    between atoms: C_15  and  C_16 
REMARK    6  A    between atoms: C_17  and  C_18 
ROOT
HETATM    1  C   UNL     1       7.796  28.490  55.755  1.00  0.00     0.288 C 
HETATM    2  N   UNL     1       6.904  29.180  54.960  1.00  0.00    -0.262 N 
HETATM    3  O   UNL     1       8.192  27.362  55.467  1.00  0.00    -0.264 OA
HETATM    4  H   UNL     1       6.459  30.048  55.248  1.00  0.00     0.190 HD
ENDROOT
BRANCH   1   5
HETATM    5  C   UNL     1       8.233  29.189  56.932  1.00  0.00     0.121 A 
HETATM    6  N   UNL     1       9.504  29.674  57.055  1.00  0.00    -0.272 N 
HETATM    7  N   UNL     1       9.729  30.347  58.194  1.00  0.00    -0.174 NA
HETATM    8  H   UNL     1      10.257  29.589  56.379  1.00  0.00     0.189 HD
HETATM    9  C   UNL     1       8.565  30.283  58.861  1.00  0.00     0.089 A 
HETATM   10  C   UNL     1       7.604  29.555  58.106  1.00  0.00     0.071 A 
BRANCH   9  11
HETATM   11  C   UNL     1       8.379  30.932  60.161  1.00  0.00    -0.005 A 
HETATM   12  C   UNL     1       9.051  30.457  61.296  1.00  0.00     0.016 A 
HETATM   13  C   UNL     1       8.924  31.102  62.533  1.00  0.00     0.037 A 
HETATM   14  C   UNL     1       8.117  32.232  62.654  1.00  0.00     0.068 A 
HETATM   15  C   UNL     1       7.421  32.694  61.534  1.00  0.00     0.037 A 
HETATM   16  C   UNL     1       7.552  32.054  60.297  1.00  0.00     0.016 A 
BRANCH  14  17
HETATM   17  O   UNL     1       7.918  32.960  63.793  1.00  0.00    -0.356 OA
HETATM   18  C   UNL     1       6.754  33.775  63.833  1.00  0.00     0.210 C 
ENDBRANCH  14  17
ENDBRANCH   9  11
ENDBRANCH   1   5
BRANCH   2  19
HETATM   19  N   UNL     1       6.348  28.547  53.847  1.00  0.00    -0.267 N 
HETATM   20  C   UNL     1       5.119  27.945  53.987  1.00  0.00     0.240 C 
HETATM   21  O   UNL     1       4.479  27.950  55.035  1.00  0.00    -0.271 OA
HETATM   22  H   UNL     1       6.891  28.542  52.986  1.00  0.00     0.190 HD
BRANCH  20  23
HETATM   23  C   UNL     1       4.622  27.277  52.756  1.00  0.00     0.089 A 
HETATM   24  C   UNL     1       5.070  25.878  52.366  1.00  0.00     0.036 A 
HETATM   25  C   UNL     1       5.542  27.076  51.579  1.00  0.00     0.025 A 
BRANCH  24  26
HETATM   26  C   UNL     1       6.029  25.085  53.225  1.00  0.00    -0.015 A 
HETATM   27  C   UNL     1       7.241  24.600  52.708  1.00  0.00     0.123 A 
HETATM   28  F   UNL     1       7.542  24.831  51.419  1.00  0.00    -0.206 F 
HETATM   29  C   UNL     1       8.154  23.889  53.485  1.00  0.00     0.043 A 
HETATM   30  C   UNL     1       7.873  23.648  54.827  1.00  0.00     0.003 A 
HETATM   31  C   UNL     1       6.686  24.124  55.378  1.00  0.00     0.001 A 
HETATM   32  C   UNL     1       5.779  24.838  54.586  1.00  0.00     0.011 A 
ENDBRANCH  24  26
ENDBRANCH  20  23
ENDBRANCH   2  19
TORSDOF 6
ENDMDL
MODEL 5
REMARK VINA RESULT:      -9.2      6.681     10.168
REMARK  6 active torsions:
REMARK  status: ('A' for Active; 'I' for Inactive)
REMARK    1  A    between atoms: O_2  and  C_3 
REMARK    2  A    between atoms: C_6  and  C_7 
REMARK    3  A    between atoms: C_11  and  C_12 
REMARK       I    between atoms: C_12  and  N_13 
REMARK    4  A    between atoms: N_13  and  N_14 
REMARK       I    between atoms: N_14  and  C_15 
REMARK    5  A    between atoms: C_15  and  C_16 
REMARK    6  A    between atoms: C_17  and  C_18 
ROOT
HETATM    1  C   UNL     1       5.593  27.250  51.593  1.00  0.00     0.288 C 
HETATM    2  N   UNL     1       6.207  26.064  51.941  1.00  0.00    -0.262 N 
HETATM    3  O   UNL     1       5.803  28.298  52.199  1.00  0.00    -0.264 OA
HETATM    4  H   UNL     1       5.944  25.165  51.547  1.00  0.00     0.190 HD
ENDROOT
BRANCH   1   5
HETATM    5  C   UNL     1       4.703  27.169  50.467  1.00  0.00     0.121 A 
HETATM    6  N   UNL     1       4.473  25.993  49.810  1.00  0.00    -0.272 N 
HETATM    7  N   UNL     1       3.574  26.084  48.818  1.00  0.00    -0.174 NA
HETATM    8  H   UNL     1       4.891  25.090  50.012  1.00  0.00     0.189 HD
HETATM    9  C   UNL     1       3.214  27.377  48.804  1.00  0.00     0.089 A 
HETATM   10  C   UNL     1       3.909  28.093  49.818  1.00  0.00     0.071 A 
BRANCH   9  11
HETATM   11  C   UNL     1       2.209  27.894  47.870  1.00  0.00    -0.005 A 
HETATM   12  C   UNL     1       1.156  27.076  47.436  1.00  0.00     0.016 A 
HETATM   13  C   UNL     1       0.159  27.573  46.587  1.00  0.00     0.037 A 
HETATM   14  C   UNL     1       0.203  28.898  46.156  1.00  0.00     0.068 A 
HETATM   15  C   UNL     1       1.265  29.710  46.561  1.00  0.00     0.037 A 
HETATM   16  C   UNL     1       2.259  29.216  47.414  1.00  0.00     0.016 A 
BRANCH  14  17
HETATM   17  O   UNL     1      -0.709  29.510  45.343  1.00  0.00    -0.356 OA
HETATM   18  C   UNL     1      -2.053  29.544  45.805  1.00  0.00     0.210 C 
ENDBRANCH  14  17
ENDBRANCH   9  11
ENDBRANCH   1   5
BRANCH   2  19
HETATM   19  N   UNL     1       7.013  26.021  53.080  1.00  0.00    -0.267 N 
HETATM   20  C   UNL     1       6.504  25.435  54.216  1.00  0.00     0.240 C 
HETATM   21  O   UNL     1       5.384  24.935  54.275  1.00  0.00    -0.271 OA
HETATM   22  H   UNL     1       7.936  26.445  53.021  1.00  0.00     0.190 HD
BRANCH  20  23
HETATM   23  C   UNL     1       7.426  25.459  55.382  1.00  0.00     0.089 A 
HETATM   24  C   UNL     1       8.246  24.244  55.780  1.00  0.00     0.036 A 
HETATM   25  C   UNL     1       7.084  24.691  56.633  1.00  0.00     0.025 A 
BRANCH  24  26
HETATM   26  C   UNL     1       8.183  22.953  54.996  1.00  0.00    -0.015 A 
HETATM   27  C   UNL     1       8.017  21.716  55.640  1.00  0.00     0.123 A 
HETATM   28  F   UNL     1       7.932  21.681  56.980  1.00  0.00    -0.206 F 
HETATM   29  C   UNL     1       7.930  20.515  54.937  1.00  0.00     0.043 A 
HETATM   30  C   UNL     1       8.002  20.524  53.548  1.00  0.00     0.003 A 
HETATM   31  C   UNL     1       8.155  21.734  52.874  1.00  0.00     0.001 A 
HETATM   32  C   UNL     1       8.239  22.933  53.591  1.00  0.00     0.011 A 
ENDBRANCH  24  26
ENDBRANCH  20  23
ENDBRANCH   2  19
TORSDOF 6
ENDMDL
MODEL 6
REMARK VINA RESULT:      -8.8      2.014      2.668
REMARK  6 active torsions:
REMARK  status: ('A' for Active; 'I' for Inactive)
REMARK    1  A    between atoms: O_2  and  C_3 
REMARK    2  A    between atoms: C_6  and  C_7 
REMARK    3  A    between atoms: C_11  and  C_12 
REMARK       I    between atoms: C_12  and  N_13 
REMARK    4  A    between atoms: N_13  and  N_14 
REMARK       I    between atoms: N_14  and  C_15 
REMARK    5  A    between atoms: C_15  and  C_16 
REMARK    6  A    between atoms: C_17  and  C_18 
ROOT
HETATM    1  C   UNL     1       5.630  29.271  56.943  1.00  0.00     0.288 C 
HETATM    2  N   UNL     1       4.803  29.647  57.980  1.00  0.00    -0.262 N 
HETATM    3  O   UNL     1       6.239  30.091  56.259  1.00  0.00    -0.264 OA
HETATM    4  H   UNL     1       4.186  29.000  58.464  1.00  0.00     0.190 HD
ENDROOT
BRANCH   1   5
HETATM    5  C   UNL     1       5.733  27.853  56.728  1.00  0.00     0.121 A 
HETATM    6  N   UNL     1       4.688  27.007  56.969  1.00  0.00    -0.272 N 
HETATM    7  N   UNL     1       4.937  25.724  56.665  1.00  0.00    -0.174 NA
HETATM    8  H   UNL     1       3.770  27.258  57.325  1.00  0.00     0.189 HD
HETATM    9  C   UNL     1       6.206  25.719  56.228  1.00  0.00     0.089 A 
HETATM   10  C   UNL     1       6.744  27.036  56.263  1.00  0.00     0.071 A 
BRANCH   9  11
HETATM   11  C   UNL     1       6.862  24.495  55.760  1.00  0.00    -0.005 A 
HETATM   12  C   UNL     1       7.585  23.691  56.652  1.00  0.00     0.016 A 
HETATM   13  C   UNL     1       8.171  22.490  56.229  1.00  0.00     0.037 A 
HETATM   14  C   UNL     1       8.043  22.078  54.904  1.00  0.00     0.068 A 
HETATM   15  C   UNL     1       7.349  22.889  54.003  1.00  0.00     0.037 A 
HETATM   16  C   UNL     1       6.759  24.085  54.425  1.00  0.00     0.016 A 
BRANCH  14  17
HETATM   17  O   UNL     1       8.550  20.928  54.367  1.00  0.00    -0.356 OA
HETATM   18  C   UNL     1       8.082  20.569  53.073  1.00  0.00     0.210 C 
ENDBRANCH  14  17
ENDBRANCH   9  11
ENDBRANCH   1   5
BRANCH   2  19
HETATM   19  N   UNL     1       4.562  31.004  58.204  1.00  0.00    -0.267 N 
HETATM   20  C   UNL     1       3.630  31.352  59.154  1.00  0.00     0.240 C 
HETATM   21  O   UNL     1       3.010  30.531  59.826  1.00  0.00    -0.271 OA
HETATM   22  H   UNL     1       5.075  31.675  57.636  1.00  0.00     0.190 HD
BRANCH  20  23
HETATM   23  C   UNL     1       3.425  32.817  59.303  1.00  0.00     0.089 A 
HETATM   24  C   UNL     1       4.225  33.641  60.297  1.00  0.00     0.036 A 
HETATM   25  C   UNL     1       2.760  33.367  60.539  1.00  0.00     0.025 A 
BRANCH  24  26
HETATM   26  C   UNL     1       5.287  33.016  61.172  1.00  0.00    -0.015 A 
HETATM   27  C   UNL     1       6.536  32.643  60.649  1.00  0.00     0.123 A 
HETATM   28  F   UNL     1       6.780  32.829  59.341  1.00  0.00    -0.206 F 
HETATM   29  C   UNL     1       7.541  32.089  61.439  1.00  0.00     0.043 A 
HETATM   30  C   UNL     1       7.320  31.898  62.800  1.00  0.00     0.003 A 
HETATM   31  C   UNL     1       6.097  32.267  63.357  1.00  0.00     0.001 A 
HETATM   32  C   UNL     1       5.097  32.824  62.552  1.00  0.00     0.011 A 
ENDBRANCH  24  26
ENDBRANCH  20  23
ENDBRANCH   2  19
TORSDOF 6
ENDMDL
MODEL 7
REMARK VINA RESULT:      -8.7      3.502      9.683
REMARK  6 active torsions:
REMARK  status: ('A' for Active; 'I' for Inactive)
REMARK    1  A    between atoms: O_2  and  C_3 
REMARK    2  A    between atoms: C_6  and  C_7 
REMARK    3  A    between atoms: C_11  and  C_12 
REMARK       I    between atoms: C_12  and  N_13 
REMARK    4  A    between atoms: N_13  and  N_14 
REMARK       I    between atoms: N_14  and  C_15 
REMARK    5  A    between atoms: C_15  and  C_16 
REMARK    6  A    between atoms: C_17  and  C_18 
ROOT
HETATM    1  C   UNL     1       4.687  29.709  55.766  1.00  0.00     0.288 C 
HETATM    2  N   UNL     1       5.086  28.389  55.804  1.00  0.00    -0.262 N 
HETATM    3  O   UNL     1       3.894  30.129  54.925  1.00  0.00    -0.264 OA
HETATM    4  H   UNL     1       5.841  28.053  56.397  1.00  0.00     0.190 HD
ENDROOT
BRANCH   1   5
HETATM    5  C   UNL     1       5.257  30.549  56.783  1.00  0.00     0.121 A 
HETATM    6  N   UNL     1       5.315  31.908  56.650  1.00  0.00    -0.272 N 
HETATM    7  N   UNL     1       5.827  32.543  57.715  1.00  0.00    -0.174 NA
HETATM    8  H   UNL     1       4.999  32.456  55.856  1.00  0.00     0.189 HD
HETATM    9  C   UNL     1       6.142  31.563  58.576  1.00  0.00     0.089 A 
HETATM   10  C   UNL     1       5.809  30.295  58.023  1.00  0.00     0.071 A 
BRANCH   9  11
HETATM   11  C   UNL     1       6.709  31.843  59.898  1.00  0.00    -0.005 A 
HETATM   12  C   UNL     1       7.945  31.296  60.271  1.00  0.00     0.016 A 
HETATM   13  C   UNL     1       8.524  31.599  61.511  1.00  0.00     0.037 A 
HETATM   14  C   UNL     1       7.871  32.454  62.398  1.00  0.00     0.068 A 
HETATM   15  C   UNL     1       6.626  32.979  62.044  1.00  0.00     0.037 A 
HETATM   16  C   UNL     1       6.050  32.681  60.805  1.00  0.00     0.016 A 
BRANCH  14  17
HETATM   17  O   UNL     1       8.330  32.842  63.625  1.00  0.00    -0.356 OA
HETATM   18  C   UNL     1       7.351  33.258  64.569  1.00  0.00     0.210 C 
ENDBRANCH  14  17
ENDBRANCH   9  11
ENDBRANCH   1   5
BRANCH   2  19
HETATM   19  N   UNL     1       4.663  27.517  54.799  1.00  0.00    -0.267 N 
HETATM   20  C   UNL     1       5.551  27.201  53.796  1.00  0.00     0.240 C 
HETATM   21  O   UNL     1       6.700  27.632  53.748  1.00  0.00    -0.271 OA
HETATM   22  H   UNL     1       3.707  27.172  54.844  1.00  0.00     0.190 HD
BRANCH  20  23
HETATM   23  C   UNL     1       5.002  26.287  52.760  1.00  0.00     0.089 A 
HETATM   24  C   UNL     1       5.434  24.834  52.661  1.00  0.00     0.036 A 
HETATM   25  C   UNL     1       5.870  25.831  51.615  1.00  0.00     0.025 A 
BRANCH  24  26
HETATM   26  C   UNL     1       6.431  24.237  53.628  1.00  0.00    -0.015 A 
HETATM   27  C   UNL     1       7.629  23.659  53.177  1.00  0.00     0.123 A 
HETATM   28  F   UNL     1       7.882  23.622  51.859  1.00  0.00    -0.206 F 
HETATM   29  C   UNL     1       8.575  23.125  54.050  1.00  0.00     0.043 A 
HETATM   30  C   UNL     1       8.344  23.163  55.422  1.00  0.00     0.003 A 
HETATM   31  C   UNL     1       7.172  23.739  55.907  1.00  0.00     0.001 A 
HETATM   32  C   UNL     1       6.231  24.273  55.019  1.00  0.00     0.011 A 
ENDBRANCH  24  26
ENDBRANCH  20  23
ENDBRANCH   2  19
TORSDOF 6
ENDMDL
MODEL 8
REMARK VINA RESULT:      -8.5      2.275      2.977
REMARK  6 active torsions:
REMARK  status: ('A' for Active; 'I' for Inactive)
REMARK    1  A    between atoms: O_2  and  C_3 
REMARK    2  A    between atoms: C_6  and  C_7 
REMARK    3  A    between atoms: C_11  and  C_12 
REMARK       I    between atoms: C_12  and  N_13 
REMARK    4  A    between atoms: N_13  and  N_14 
REMARK       I    between atoms: N_14  and  C_15 
REMARK    5  A    between atoms: C_15  and  C_16 
REMARK    6  A    between atoms: C_17  and  C_18 
ROOT
HETATM    1  C   UNL     1       6.794  31.379  58.753  1.00  0.00     0.288 C 
HETATM    2  N   UNL     1       5.436  31.466  58.977  1.00  0.00    -0.262 N 
HETATM    3  O   UNL     1       7.560  32.308  59.001  1.00  0.00    -0.264 OA
HETATM    4  H   UNL     1       4.772  30.769  58.651  1.00  0.00     0.190 HD
ENDROOT
BRANCH   1   5
HETATM    5  C   UNL     1       7.245  30.123  58.219  1.00  0.00     0.121 A 
HETATM    6  N   UNL     1       8.551  29.729  58.302  1.00  0.00    -0.272 N 
HETATM    7  N   UNL     1       8.790  28.508  57.802  1.00  0.00    -0.174 NA
HETATM    8  H   UNL     1       9.320  30.252  58.710  1.00  0.00     0.189 HD
HETATM    9  C   UNL     1       7.598  28.087  57.349  1.00  0.00     0.089 A 
HETATM   10  C   UNL     1       6.605  29.078  57.583  1.00  0.00     0.071 A 
BRANCH   9  11
HETATM   11  C   UNL     1       7.419  26.763  56.747  1.00  0.00    -0.005 A 
HETATM   12  C   UNL     1       6.898  26.636  55.452  1.00  0.00     0.016 A 
HETATM   13  C   UNL     1       6.772  25.380  54.844  1.00  0.00     0.037 A 
HETATM   14  C   UNL     1       7.165  24.230  55.527  1.00  0.00     0.068 A 
HETATM   15  C   UNL     1       7.658  24.346  56.828  1.00  0.00     0.037 A 
HETATM   16  C   UNL     1       7.789  25.601  57.434  1.00  0.00     0.016 A 
BRANCH  14  17
HETATM   17  O   UNL     1       7.110  22.952  55.047  1.00  0.00    -0.356 OA
HETATM   18  C   UNL     1       7.594  22.745  53.726  1.00  0.00     0.210 C 
ENDBRANCH  14  17
ENDBRANCH   9  11
ENDBRANCH   1   5
BRANCH   2  19
HETATM   19  N   UNL     1       4.890  32.679  59.403  1.00  0.00    -0.267 N 
HETATM   20  C   UNL     1       4.014  32.662  60.463  1.00  0.00     0.240 C 
HETATM   21  O   UNL     1       3.698  31.639  61.064  1.00  0.00    -0.271 OA
HETATM   22  H   UNL     1       5.152  33.520  58.892  1.00  0.00     0.190 HD
BRANCH  20  23
HETATM   23  C   UNL     1       3.467  33.996  60.826  1.00  0.00     0.089 A 
HETATM   24  C   UNL     1       3.978  34.772  62.028  1.00  0.00     0.036 A 
HETATM   25  C   UNL     1       2.602  34.153  62.051  1.00  0.00     0.025 A 
BRANCH  24  26
HETATM   26  C   UNL     1       5.087  34.235  62.905  1.00  0.00    -0.015 A 
HETATM   27  C   UNL     1       4.889  34.013  64.277  1.00  0.00     0.123 A 
HETATM   28  F   UNL     1       3.695  34.301  64.821  1.00  0.00    -0.206 F 
HETATM   29  C   UNL     1       5.886  33.495  65.101  1.00  0.00     0.043 A 
HETATM   30  C   UNL     1       7.128  33.173  64.560  1.00  0.00     0.003 A 
HETATM   31  C   UNL     1       7.357  33.370  63.200  1.00  0.00     0.001 A 
HETATM   32  C   UNL     1       6.346  33.889  62.384  1.00  0.00     0.011 A 
ENDBRANCH  24  26
ENDBRANCH  20  23
ENDBRANCH   2  19
TORSDOF 6
ENDMDL
MODEL 9
REMARK VINA RESULT:      -8.5      7.773      9.849
REMARK  6 active torsions:
REMARK  status: ('A' for Active; 'I' for Inactive)
REMARK    1  A    between atoms: O_2  and  C_3 
REMARK    2  A    between atoms: C_6  and  C_7 
REMARK    3  A    between atoms: C_11  and  C_12 
REMARK       I    between atoms: C_12  and  N_13 
REMARK    4  A    between atoms: N_13  and  N_14 
REMARK       I    between atoms: N_14  and  C_15 
REMARK    5  A    between atoms: C_15  and  C_16 
REMARK    6  A    between atoms: C_17  and  C_18 
ROOT
HETATM    1  C   UNL     1       4.799  27.043  50.228  1.00  0.00     0.288 C 
HETATM    2  N   UNL     1       3.879  26.443  49.394  1.00  0.00    -0.262 N 
HETATM    3  O   UNL     1       5.223  28.179  50.026  1.00  0.00    -0.264 OA
HETATM    4  H   UNL     1       3.622  25.462  49.462  1.00  0.00     0.190 HD
ENDROOT
BRANCH   1   5
HETATM    5  C   UNL     1       5.214  26.248  51.351  1.00  0.00     0.121 A 
HETATM    6  N   UNL     1       4.480  26.183  52.502  1.00  0.00    -0.272 N 
HETATM    7  N   UNL     1       4.982  25.354  53.429  1.00  0.00    -0.174 NA
HETATM    8  H   UNL     1       3.613  26.674  52.700  1.00  0.00     0.189 HD
HETATM    9  C   UNL     1       6.106  24.869  52.878  1.00  0.00     0.089 A 
HETATM   10  C   UNL     1       6.292  25.416  51.577  1.00  0.00     0.071 A 
BRANCH   9  11
HETATM   11  C   UNL     1       6.949  23.888  53.567  1.00  0.00    -0.005 A 
HETATM   12  C   UNL     1       7.790  23.036  52.836  1.00  0.00     0.016 A 
HETATM   13  C   UNL     1       8.640  22.131  53.485  1.00  0.00     0.037 A 
HETATM   14  C   UNL     1       8.659  22.063  54.877  1.00  0.00     0.068 A 
HETATM   15  C   UNL     1       7.803  22.889  55.610  1.00  0.00     0.037 A 
HETATM   16  C   UNL     1       6.957  23.796  54.963  1.00  0.00     0.016 A 
BRANCH  14  17
HETATM   17  O   UNL     1       9.447  21.241  55.631  1.00  0.00    -0.356 OA
HETATM   18  C   UNL     1       8.782  20.412  56.576  1.00  0.00     0.210 C 
ENDBRANCH  14  17
ENDBRANCH   9  11
ENDBRANCH   1   5
BRANCH   2  19
HETATM   19  N   UNL     1       3.488  27.098  48.224  1.00  0.00    -0.267 N 
HETATM   20  C   UNL     1       2.287  27.768  48.223  1.00  0.00     0.240 C 
HETATM   21  O   UNL     1       1.549  27.835  49.202  1.00  0.00    -0.271 OA
HETATM   22  H   UNL     1       4.104  27.029  47.416  1.00  0.00     0.190 HD
BRANCH  20  23
HETATM   23  C   UNL     1       1.947  28.412  46.926  1.00  0.00     0.089 A 
HETATM   24  C   UNL     1       2.336  29.847  46.617  1.00  0.00     0.036 A 
HETATM   25  C   UNL     1       0.892  29.487  46.868  1.00  0.00     0.025 A 
BRANCH  24  26
HETATM   26  C   UNL     1       3.110  30.689  47.606  1.00  0.00    -0.015 A 
HETATM   27  C   UNL     1       2.454  31.470  48.570  1.00  0.00     0.123 A 
HETATM   28  F   UNL     1       1.111  31.482  48.600  1.00  0.00    -0.206 F 
HETATM   29  C   UNL     1       3.145  32.235  49.509  1.00  0.00     0.043 A 
HETATM   30  C   UNL     1       4.537  32.230  49.509  1.00  0.00     0.003 A 
HETATM   31  C   UNL     1       5.223  31.458  48.575  1.00  0.00     0.001 A 
HETATM   32  C   UNL     1       4.516  30.694  47.639  1.00  0.00     0.011 A 
ENDBRANCH  24  26
ENDBRANCH  20  23
ENDBRANCH   2  19
TORSDOF 6
ENDMDL
MODEL 10
REMARK VINA RESULT:      -8.4      3.026      9.337
REMARK  6 active torsions:
REMARK  status: ('A' for Active; 'I' for Inactive)
REMARK    1  A    between atoms: O_2  and  C_3 
REMARK    2  A    between atoms: C_6  and  C_7 
REMARK    3  A    between atoms: C_11  and  C_12 
REMARK       I    between atoms: C_12  and  N_13 
REMARK    4  A    between atoms: N_13  and  N_14 
REMARK       I    between atoms: N_14  and  C_15 
REMARK    5  A    between atoms: C_15  and  C_16 
REMARK    6  A    between atoms: C_17  and  C_18 
ROOT
HETATM    1  C   UNL     1       7.984  29.342  56.781  1.00  0.00     0.288 C 
HETATM    2  N   UNL     1       6.926  29.724  55.982  1.00  0.00    -0.262 N 
HETATM    3  O   UNL     1       8.692  28.373  56.512  1.00  0.00    -0.264 OA
HETATM    4  H   UNL     1       6.247  30.429  56.256  1.00  0.00     0.190 HD
ENDROOT
BRANCH   1   5
HETATM    5  C   UNL     1       8.200  30.163  57.941  1.00  0.00     0.121 A 
HETATM    6  N   UNL     1       9.380  30.820  58.152  1.00  0.00    -0.272 N 
HETATM    7  N   UNL     1       9.394  31.585  59.254  1.00  0.00    -0.174 NA
HETATM    8  H   UNL     1      10.205  30.795  57.560  1.00  0.00     0.189 HD
HETATM    9  C   UNL     1       8.183  31.408  59.806  1.00  0.00     0.089 A 
HETATM   10  C   UNL     1       7.408  30.513  59.016  1.00  0.00     0.071 A 
BRANCH   9  11
HETATM   11  C   UNL     1       7.778  32.104  61.029  1.00  0.00    -0.005 A 
HETATM   12  C   UNL     1       8.482  31.906  62.226  1.00  0.00     0.016 A 
HETATM   13  C   UNL     1       8.138  32.607  63.390  1.00  0.00     0.037 A 
HETATM   14  C   UNL     1       7.082  33.516  63.373  1.00  0.00     0.068 A 
HETATM   15  C   UNL     1       6.358  33.697  62.192  1.00  0.00     0.037 A 
HETATM   16  C   UNL     1       6.703  33.001  61.028  1.00  0.00     0.016 A 
BRANCH  14  17
HETATM   17  O   UNL     1       6.655  34.272  64.428  1.00  0.00    -0.356 OA
HETATM   18  C   UNL     1       5.627  33.714  65.238  1.00  0.00     0.210 C 
ENDBRANCH  14  17
ENDBRANCH   9  11
ENDBRANCH   1   5
BRANCH   2  19
HETATM   19  N   UNL     1       6.577  28.931  54.886  1.00  0.00    -0.267 N 
HETATM   20  C   UNL     1       5.375  28.263  54.924  1.00  0.00     0.240 C 
HETATM   21  O   UNL     1       4.587  28.339  55.862  1.00  0.00    -0.271 OA
HETATM   22  H   UNL     1       7.241  28.869  54.118  1.00  0.00     0.190 HD
BRANCH  20  23
HETATM   23  C   UNL     1       5.103  27.427  53.725  1.00  0.00     0.089 A 
HETATM   24  C   UNL     1       5.652  26.016  53.590  1.00  0.00     0.036 A 
HETATM   25  C   UNL     1       6.206  27.133  52.740  1.00  0.00     0.025 A 
BRANCH  24  26
HETATM   26  C   UNL     1       6.486  25.383  54.680  1.00  0.00    -0.015 A 
HETATM   27  C   UNL     1       5.926  25.042  55.922  1.00  0.00     0.123 A 
HETATM   28  F   UNL     1       4.628  25.304  56.149  1.00  0.00    -0.206 F 
HETATM   29  C   UNL     1       6.667  24.434  56.934  1.00  0.00     0.043 A 
HETATM   30  C   UNL     1       8.010  24.139  56.720  1.00  0.00     0.003 A 
HETATM   31  C   UNL     1       8.597  24.451  55.496  1.00  0.00     0.001 A 
HETATM   32  C   UNL     1       7.841  25.060  54.488  1.00  0.00     0.011 A 
ENDBRANCH  24  26
ENDBRANCH  20  23
ENDBRANCH   2  19
TORSDOF 6
ENDMDL
