MODEL 1
REMARK VINA RESULT:      -9.7      0.000      0.000
REMARK  5 active torsions:
REMARK  status: ('A' for Active; 'I' for Inactive)
REMARK    1  A    between atoms: C_4  and  C_5 
REMARK    2  A    between atoms: C_5  and  C_6 
REMARK    3  A    between atoms: C_6  and  C_7 
REMARK       I    between atoms: C_7  and  N_8 
REMARK    4  A    between atoms: N_8  and  C_9 
REMARK    5  A    between atoms: C_16  and  C_17 
REMARK       I    between atoms: C_17  and  N_18 
ROOT
HETATM    1  C   UNL     1       8.429  28.771  57.119  1.00  0.00     0.035 A 
HETATM    2  C   UNL     1       7.815  29.592  58.073  1.00  0.00     0.046 A 
HETATM    3  C   UNL     1       8.535  30.675  58.627  1.00  0.00     0.030 A 
HETATM    4  C   UNL     1       9.842  30.894  58.210  1.00  0.00     0.063 A 
HETATM    5  N   UNL     1      10.271  31.983  58.916  1.00  0.00    -0.277 N 
HETATM    6  H   UNL     1      11.183  32.423  58.871  1.00  0.00     0.189 HD
HETATM    7  N   UNL     1       9.356  32.500  59.753  1.00  0.00    -0.168 NA
HETATM    8  C   UNL     1       8.276  31.702  59.584  1.00  0.00     0.156 A 
HETATM    9  C   UNL     1      10.483  30.099  57.258  1.00  0.00     0.034 A 
HETATM   10  C   UNL     1       9.746  29.037  56.721  1.00  0.00     0.032 A 
ENDROOT
BRANCH   1  11
HETATM   11  N   UNL     1       7.803  27.654  56.527  1.00  0.00    -0.326 N 
HETATM   12  C   UNL     1       7.665  26.388  57.055  1.00  0.00     0.231 C 
HETATM   13  O   UNL     1       7.987  26.001  58.167  1.00  0.00    -0.272 OA
HETATM   14  H   UNL     1       7.443  27.785  55.592  1.00  0.00     0.169 HD
BRANCH  12  15
HETATM   15  C   UNL     1       7.030  25.420  56.082  1.00  0.00     0.045 A 
HETATM   16  C   UNL     1       5.699  25.870  55.472  1.00  0.00     0.020 A 
HETATM   17  C   UNL     1       5.709  24.767  56.480  1.00  0.00     0.020 A 
BRANCH  15  18
HETATM   18  C   UNL     1       7.974  24.621  55.188  1.00  0.00     0.057 C 
BRANCH  18  19
HETATM   19  C   UNL     1       8.000  23.130  55.447  1.00  0.00    -0.057 A 
HETATM   20  C   UNL     1       8.385  22.579  56.676  1.00  0.00     0.007 A 
HETATM   21  C   UNL     1       8.453  21.192  56.849  1.00  0.00     0.001 A 
HETATM   22  C   UNL     1       8.157  20.339  55.790  1.00  0.00     0.000 A 
HETATM   23  C   UNL     1       7.792  20.869  54.557  1.00  0.00     0.001 A 
HETATM   24  C   UNL     1       7.718  22.253  54.385  1.00  0.00     0.007 A 
ENDBRANCH  18  19
ENDBRANCH  15  18
ENDBRANCH  12  15
ENDBRANCH   1  11
BRANCH   8  25
HETATM   25  C   UNL     1       7.034  31.939  60.335  1.00  0.00     0.270 C 
HETATM   26  N   UNL     1       6.951  31.243  61.511  1.00  0.00    -0.365 N 
HETATM   27  H   UNL     1       7.722  30.641  61.773  1.00  0.00     0.159 HD
HETATM   28  H   UNL     1       6.138  31.348  62.096  1.00  0.00     0.159 HD
HETATM   29  O   UNL     1       6.130  32.685  59.975  1.00  0.00    -0.266 OA
ENDBRANCH   8  25
TORSDOF 5
ENDMDL
MODEL 2
REMARK VINA RESULT:      -9.5      2.449      3.359
REMARK  5 active torsions:
REMARK  status: ('A' for Active; 'I' for Inactive)
REMARK    1  A    between atoms: C_4  and  C_5 
REMARK    2  A    between atoms: C_5  and  C_6 
REMARK    3  A    between atoms: C_6  and  C_7 
REMARK       I    between atoms: C_7  and  N_8 
REMARK    4  A    between atoms: N_8  and  C_9 
REMARK    5  A    between atoms: C_16  and  C_17 
REMARK       I    between atoms: C_17  and  N_18 
ROOT
HETATM    1  C   UNL     1       6.587  27.599  55.941  1.00  0.00     0.035 A 
HETATM    2  C   UNL     1       7.753  28.304  56.264  1.00  0.00     0.046 A 
HETATM    3  C   UNL     1       7.692  29.356  57.206  1.00  0.00     0.030 A 
HETATM    4  C   UNL     1       6.469  29.666  57.788  1.00  0.00     0.063 A 
HETATM    5  N   UNL     1       6.722  30.711  58.631  1.00  0.00    -0.277 N 
HETATM    6  H   UNL     1       6.057  31.200  59.219  1.00  0.00     0.189 HD
HETATM    7  N   UNL     1       8.006  31.106  58.659  1.00  0.00    -0.168 NA
HETATM    8  C   UNL     1       8.619  30.277  57.783  1.00  0.00     0.156 A 
HETATM    9  C   UNL     1       5.290  28.981  57.493  1.00  0.00     0.034 A 
HETATM   10  C   UNL     1       5.377  27.940  56.560  1.00  0.00     0.032 A 
ENDROOT
BRANCH   1  11
HETATM   11  N   UNL     1       6.540  26.552  54.997  1.00  0.00    -0.326 N 
HETATM   12  C   UNL     1       7.164  26.497  53.769  1.00  0.00     0.231 C 
HETATM   13  O   UNL     1       7.939  27.307  53.285  1.00  0.00    -0.272 OA
HETATM   14  H   UNL     1       5.954  25.763  55.230  1.00  0.00     0.169 HD
BRANCH  12  15
HETATM   15  C   UNL     1       6.794  25.258  52.984  1.00  0.00     0.045 A 
HETATM   16  C   UNL     1       5.752  25.460  51.879  1.00  0.00     0.020 A 
HETATM   17  C   UNL     1       5.371  24.721  53.122  1.00  0.00     0.020 A 
BRANCH  15  18
HETATM   18  C   UNL     1       7.909  24.251  52.717  1.00  0.00     0.057 C 
BRANCH  18  19
HETATM   19  C   UNL     1       7.863  22.999  53.567  1.00  0.00    -0.057 A 
HETATM   20  C   UNL     1       7.899  23.028  54.967  1.00  0.00     0.007 A 
HETATM   21  C   UNL     1       7.917  21.842  55.707  1.00  0.00     0.001 A 
HETATM   22  C   UNL     1       7.919  20.610  55.059  1.00  0.00     0.000 A 
HETATM   23  C   UNL     1       7.903  20.563  53.668  1.00  0.00     0.001 A 
HETATM   24  C   UNL     1       7.879  21.747  52.929  1.00  0.00     0.007 A 
ENDBRANCH  18  19
ENDBRANCH  15  18
ENDBRANCH  12  15
ENDBRANCH   1  11
BRANCH   8  25
HETATM   25  C   UNL     1      10.062  30.382  57.522  1.00  0.00     0.270 C 
HETATM   26  N   UNL     1      10.621  29.244  57.007  1.00  0.00    -0.365 N 
HETATM   27  H   UNL     1      10.024  28.441  56.846  1.00  0.00     0.159 HD
HETATM   28  H   UNL     1      11.604  29.225  56.791  1.00  0.00     0.159 HD
HETATM   29  O   UNL     1      10.739  31.382  57.730  1.00  0.00    -0.266 OA
ENDBRANCH   8  25
TORSDOF 5
ENDMDL
MODEL 3
REMARK VINA RESULT:      -9.3      2.199      2.572
REMARK  5 active torsions:
REMARK  status: ('A' for Active; 'I' for Inactive)
REMARK    1  A    between atoms: C_4  and  C_5 
REMARK    2  A    between atoms: C_5  and  C_6 
REMARK    3  A    between atoms: C_6  and  C_7 
REMARK       I    between atoms: C_7  and  N_8 
REMARK    4  A    between atoms: N_8  and  C_9 
REMARK    5  A    between atoms: C_16  and  C_17 
REMARK       I    between atoms: C_17  and  N_18 
ROOT
HETATM    1  C   UNL     1       7.416  28.003  56.489  1.00  0.00     0.035 A 
HETATM    2  C   UNL     1       6.389  28.884  56.854  1.00  0.00     0.046 A 
HETATM    3  C   UNL     1       6.694  30.027  57.628  1.00  0.00     0.030 A 
HETATM    4  C   UNL     1       8.011  30.246  58.011  1.00  0.00     0.063 A 
HETATM    5  N   UNL     1       7.989  31.399  58.743  1.00  0.00    -0.277 N 
HETATM    6  H   UNL     1       8.775  31.859  59.188  1.00  0.00     0.189 HD
HETATM    7  N   UNL     1       6.774  31.959  58.865  1.00  0.00    -0.168 NA
HETATM    8  C   UNL     1       5.962  31.121  58.179  1.00  0.00     0.156 A 
HETATM    9  C   UNL     1       9.059  29.393  57.662  1.00  0.00     0.034 A 
HETATM   10  C   UNL     1       8.732  28.270  56.890  1.00  0.00     0.032 A 
ENDROOT
BRANCH   1  11
HETATM   11  N   UNL     1       7.210  26.826  55.741  1.00  0.00    -0.326 N 
HETATM   12  C   UNL     1       7.380  26.649  54.385  1.00  0.00     0.231 C 
HETATM   13  O   UNL     1       7.813  27.451  53.573  1.00  0.00    -0.272 OA
HETATM   14  H   UNL     1       6.865  26.025  56.252  1.00  0.00     0.169 HD
BRANCH  12  15
HETATM   15  C   UNL     1       6.957  25.273  53.921  1.00  0.00     0.045 A 
HETATM   16  C   UNL     1       5.492  25.139  53.492  1.00  0.00     0.020 A 
HETATM   17  C   UNL     1       5.943  24.510  54.771  1.00  0.00     0.020 A 
BRANCH  15  18
HETATM   18  C   UNL     1       7.988  24.457  53.147  1.00  0.00     0.057 C 
BRANCH  18  19
HETATM   19  C   UNL     1       8.218  23.052  53.662  1.00  0.00    -0.057 A 
HETATM   20  C   UNL     1       7.808  21.910  52.964  1.00  0.00     0.007 A 
HETATM   21  C   UNL     1       7.986  20.634  53.510  1.00  0.00     0.001 A 
HETATM   22  C   UNL     1       8.558  20.485  54.770  1.00  0.00     0.000 A 
HETATM   23  C   UNL     1       8.953  21.610  55.486  1.00  0.00     0.001 A 
HETATM   24  C   UNL     1       8.781  22.883  54.939  1.00  0.00     0.007 A 
ENDBRANCH  18  19
ENDBRANCH  15  18
ENDBRANCH  12  15
ENDBRANCH   1  11
BRANCH   8  25
HETATM   25  C   UNL     1       4.520  31.386  58.068  1.00  0.00     0.270 C 
HETATM   26  N   UNL     1       3.731  30.434  58.655  1.00  0.00    -0.365 N 
HETATM   27  H   UNL     1       4.178  29.647  59.110  1.00  0.00     0.159 HD
HETATM   28  H   UNL     1       2.729  30.535  58.634  1.00  0.00     0.159 HD
HETATM   29  O   UNL     1       4.028  32.360  57.509  1.00  0.00    -0.266 OA
ENDBRANCH   8  25
TORSDOF 5
ENDMDL
MODEL 4
REMARK VINA RESULT:      -9.2      3.426      8.605
REMARK  5 active torsions:
REMARK  status: ('A' for Active; 'I' for Inactive)
REMARK    1  A    between atoms: C_4  and  C_5 
REMARK    2  A    between atoms: C_5  and  C_6 
REMARK    3  A    between atoms: C_6  and  C_7 
REMARK       I    between atoms: C_7  and  N_8 
REMARK    4  A    between atoms: N_8  and  C_9 
REMARK    5  A    between atoms: C_16  and  C_17 
REMARK       I    between atoms: C_17  and  N_18 
ROOT
HETATM    1  C   UNL     1       7.016  24.940  54.986  1.00  0.00     0.035 A 
HETATM    2  C   UNL     1       7.544  23.785  55.579  1.00  0.00     0.046 A 
HETATM    3  C   UNL     1       7.797  22.647  54.780  1.00  0.00     0.030 A 
HETATM    4  C   UNL     1       7.511  22.702  53.422  1.00  0.00     0.063 A 
HETATM    5  N   UNL     1       7.846  21.472  52.930  1.00  0.00    -0.277 N 
HETATM    6  H   UNL     1       7.764  21.152  51.971  1.00  0.00     0.189 HD
HETATM    7  N   UNL     1       8.334  20.620  53.845  1.00  0.00    -0.168 NA
HETATM    8  C   UNL     1       8.312  21.332  54.996  1.00  0.00     0.156 A 
HETATM    9  C   UNL     1       6.989  23.837  52.799  1.00  0.00     0.034 A 
HETATM   10  C   UNL     1       6.752  24.953  53.610  1.00  0.00     0.032 A 
ENDROOT
BRANCH   1  11
HETATM   11  N   UNL     1       6.706  26.115  55.701  1.00  0.00    -0.326 N 
HETATM   12  C   UNL     1       7.042  27.412  55.375  1.00  0.00     0.231 C 
HETATM   13  O   UNL     1       7.607  27.810  54.369  1.00  0.00    -0.272 OA
HETATM   14  H   UNL     1       6.209  25.993  56.572  1.00  0.00     0.169 HD
BRANCH  12  15
HETATM   15  C   UNL     1       6.629  28.404  56.440  1.00  0.00     0.045 A 
HETATM   16  C   UNL     1       5.131  28.718  56.508  1.00  0.00     0.020 A 
HETATM   17  C   UNL     1       6.076  29.753  55.988  1.00  0.00     0.020 A 
BRANCH  15  18
HETATM   18  C   UNL     1       7.394  28.357  57.761  1.00  0.00     0.057 C 
BRANCH  18  19
HETATM   19  C   UNL     1       8.572  29.303  57.856  1.00  0.00    -0.057 A 
HETATM   20  C   UNL     1       8.563  30.451  58.657  1.00  0.00     0.007 A 
HETATM   21  C   UNL     1       9.653  31.328  58.664  1.00  0.00     0.001 A 
HETATM   22  C   UNL     1      10.758  31.080  57.856  1.00  0.00     0.000 A 
HETATM   23  C   UNL     1      10.776  29.953  57.038  1.00  0.00     0.001 A 
HETATM   24  C   UNL     1       9.691  29.074  57.035  1.00  0.00     0.007 A 
ENDBRANCH  18  19
ENDBRANCH  15  18
ENDBRANCH  12  15
ENDBRANCH   1  11
BRANCH   8  25
HETATM   25  C   UNL     1       8.778  20.745  56.260  1.00  0.00     0.270 C 
HETATM   26  N   UNL     1       9.833  19.883  56.120  1.00  0.00    -0.365 N 
HETATM   27  H   UNL     1      10.205  19.720  55.192  1.00  0.00     0.159 HD
HETATM   28  H   UNL     1      10.224  19.438  56.934  1.00  0.00     0.159 HD
HETATM   29  O   UNL     1       8.295  20.981  57.362  1.00  0.00    -0.266 OA
ENDBRANCH   8  25
TORSDOF 5
ENDMDL
MODEL 5
REMARK VINA RESULT:      -9.0      1.493      3.109
REMARK  5 active torsions:
REMARK  status: ('A' for Active; 'I' for Inactive)
REMARK    1  A    between atoms: C_4  and  C_5 
REMARK    2  A    between atoms: C_5  and  C_6 
REMARK    3  A    between atoms: C_6  and  C_7 
REMARK       I    between atoms: C_7  and  N_8 
REMARK    4  A    between atoms: N_8  and  C_9 
REMARK    5  A    between atoms: C_16  and  C_17 
REMARK       I    between atoms: C_17  and  N_18 
ROOT
HETATM    1  C   UNL     1       8.532  28.626  57.161  1.00  0.00     0.035 A 
HETATM    2  C   UNL     1       7.878  29.489  58.051  1.00  0.00     0.046 A 
HETATM    3  C   UNL     1       8.571  30.605  58.574  1.00  0.00     0.030 A 
HETATM    4  C   UNL     1       9.889  30.816  58.191  1.00  0.00     0.063 A 
HETATM    5  N   UNL     1      10.285  31.943  58.855  1.00  0.00    -0.277 N 
HETATM    6  H   UNL     1      11.194  32.389  58.818  1.00  0.00     0.189 HD
HETATM    7  N   UNL     1       9.337  32.493  59.632  1.00  0.00    -0.168 NA
HETATM    8  C   UNL     1       8.270  31.677  59.468  1.00  0.00     0.156 A 
HETATM    9  C   UNL     1      10.569  29.980  57.303  1.00  0.00     0.034 A 
HETATM   10  C   UNL     1       9.859  28.884  56.796  1.00  0.00     0.032 A 
ENDROOT
BRANCH   1  11
HETATM   11  N   UNL     1       7.936  27.475  56.607  1.00  0.00    -0.326 N 
HETATM   12  C   UNL     1       7.714  26.261  57.222  1.00  0.00     0.231 C 
HETATM   13  O   UNL     1       7.920  25.964  58.387  1.00  0.00    -0.272 OA
HETATM   14  H   UNL     1       7.669  27.532  55.633  1.00  0.00     0.169 HD
BRANCH  12  15
HETATM   15  C   UNL     1       7.149  25.225  56.276  1.00  0.00     0.045 A 
HETATM   16  C   UNL     1       7.527  23.772  56.582  1.00  0.00     0.020 A 
HETATM   17  C   UNL     1       8.126  24.452  55.393  1.00  0.00     0.020 A 
BRANCH  15  18
HETATM   18  C   UNL     1       5.748  25.482  55.727  1.00  0.00     0.057 C 
BRANCH  18  19
HETATM   19  C   UNL     1       5.682  25.779  54.244  1.00  0.00    -0.057 A 
HETATM   20  C   UNL     1       6.038  27.019  53.701  1.00  0.00     0.007 A 
HETATM   21  C   UNL     1       5.901  27.267  52.331  1.00  0.00     0.001 A 
HETATM   22  C   UNL     1       5.387  26.285  51.489  1.00  0.00     0.000 A 
HETATM   23  C   UNL     1       5.010  25.053  52.015  1.00  0.00     0.001 A 
HETATM   24  C   UNL     1       5.153  24.803  53.382  1.00  0.00     0.007 A 
ENDBRANCH  18  19
ENDBRANCH  15  18
ENDBRANCH  12  15
ENDBRANCH   1  11
BRANCH   8  25
HETATM   25  C   UNL     1       7.001  31.939  60.162  1.00  0.00     0.270 C 
HETATM   26  N   UNL     1       6.866  31.271  61.350  1.00  0.00    -0.365 N 
HETATM   27  H   UNL     1       7.622  30.670  61.656  1.00  0.00     0.159 HD
HETATM   28  H   UNL     1       6.031  31.395  61.899  1.00  0.00     0.159 HD
HETATM   29  O   UNL     1       6.119  32.683  59.750  1.00  0.00    -0.266 OA
ENDBRANCH   8  25
TORSDOF 5
ENDMDL
MODEL 6
REMARK VINA RESULT:      -8.9      5.393      8.080
REMARK  5 active torsions:
REMARK  status: ('A' for Active; 'I' for Inactive)
REMARK    1  A    between atoms: C_4  and  C_5 
REMARK    2  A    between atoms: C_5  and  C_6 
REMARK    3  A    between atoms: C_6  and  C_7 
REMARK       I    between atoms: C_7  and  N_8 
REMARK    4  A    between atoms: N_8  and  C_9 
REMARK    5  A    between atoms: C_16  and  C_17 
REMARK       I    between atoms: C_17  and  N_18 
ROOT
HETATM    1  C   UNL     1       4.909  27.571  52.386  1.00  0.00     0.035 A 
HETATM    2  C   UNL     1       5.040  27.255  51.027  1.00  0.00     0.046 A 
HETATM    3  C   UNL     1       4.214  27.901  50.079  1.00  0.00     0.030 A 
HETATM    4  C   UNL     1       3.288  28.836  50.523  1.00  0.00     0.063 A 
HETATM    5  N   UNL     1       2.644  29.272  49.399  1.00  0.00    -0.277 N 
HETATM    6  H   UNL     1       1.898  29.956  49.346  1.00  0.00     0.189 HD
HETATM    7  N   UNL     1       3.075  28.711  48.258  1.00  0.00    -0.168 NA
HETATM    8  C   UNL     1       4.047  27.861  48.662  1.00  0.00     0.156 A 
HETATM    9  C   UNL     1       3.134  29.178  51.867  1.00  0.00     0.034 A 
HETATM   10  C   UNL     1       3.967  28.528  52.787  1.00  0.00     0.032 A 
ENDROOT
BRANCH   1  11
HETATM   11  N   UNL     1       5.667  26.964  53.408  1.00  0.00    -0.326 N 
HETATM   12  C   UNL     1       5.602  25.658  53.843  1.00  0.00     0.231 C 
HETATM   13  O   UNL     1       4.932  24.748  53.382  1.00  0.00    -0.272 OA
HETATM   14  H   UNL     1       6.311  27.564  53.905  1.00  0.00     0.169 HD
BRANCH  12  15
HETATM   15  C   UNL     1       6.495  25.398  55.036  1.00  0.00     0.045 A 
HETATM   16  C   UNL     1       5.774  24.999  56.327  1.00  0.00     0.020 A 
HETATM   17  C   UNL     1       6.400  26.352  56.223  1.00  0.00     0.020 A 
BRANCH  15  18
HETATM   18  C   UNL     1       7.845  24.743  54.758  1.00  0.00     0.057 C 
BRANCH  18  19
HETATM   19  C   UNL     1       7.796  23.254  54.488  1.00  0.00    -0.057 A 
HETATM   20  C   UNL     1       7.728  22.298  55.509  1.00  0.00     0.007 A 
HETATM   21  C   UNL     1       7.747  20.931  55.212  1.00  0.00     0.001 A 
HETATM   22  C   UNL     1       7.855  20.502  53.893  1.00  0.00     0.000 A 
HETATM   23  C   UNL     1       7.943  21.438  52.867  1.00  0.00     0.001 A 
HETATM   24  C   UNL     1       7.917  22.803  53.162  1.00  0.00     0.007 A 
ENDBRANCH  18  19
ENDBRANCH  15  18
ENDBRANCH  12  15
ENDBRANCH   1  11
BRANCH   8  25
HETATM   25  C   UNL     1       4.787  27.039  47.693  1.00  0.00     0.270 C 
HETATM   26  N   UNL     1       5.963  27.598  47.269  1.00  0.00    -0.365 N 
HETATM   27  H   UNL     1       6.232  28.501  47.642  1.00  0.00     0.159 HD
HETATM   28  H   UNL     1       6.541  27.103  46.609  1.00  0.00     0.159 HD
HETATM   29  O   UNL     1       4.419  25.946  47.277  1.00  0.00    -0.266 OA
ENDBRANCH   8  25
TORSDOF 5
ENDMDL
MODEL 7
REMARK VINA RESULT:      -8.9      5.400      8.236
REMARK  5 active torsions:
REMARK  status: ('A' for Active; 'I' for Inactive)
REMARK    1  A    between atoms: C_4  and  C_5 
REMARK    2  A    between atoms: C_5  and  C_6 
REMARK    3  A    between atoms: C_6  and  C_7 
REMARK       I    between atoms: C_7  and  N_8 
REMARK    4  A    between atoms: N_8  and  C_9 
REMARK    5  A    between atoms: C_16  and  C_17 
REMARK       I    between atoms: C_17  and  N_18 
ROOT
HETATM    1  C   UNL     1       5.497  25.673  52.354  1.00  0.00     0.035 A 
HETATM    2  C   UNL     1       5.412  25.821  50.963  1.00  0.00     0.046 A 
HETATM    3  C   UNL     1       4.789  26.968  50.422  1.00  0.00     0.030 A 
HETATM    4  C   UNL     1       4.273  27.923  51.288  1.00  0.00     0.063 A 
HETATM    5  N   UNL     1       3.736  28.890  50.485  1.00  0.00    -0.277 N 
HETATM    6  H   UNL     1       3.267  29.740  50.777  1.00  0.00     0.189 HD
HETATM    7  N   UNL     1       3.865  28.656  49.169  1.00  0.00    -0.168 NA
HETATM    8  C   UNL     1       4.515  27.470  49.113  1.00  0.00     0.156 A 
HETATM    9  C   UNL     1       4.344  27.811  52.677  1.00  0.00     0.034 A 
HETATM   10  C   UNL     1       4.970  26.667  53.189  1.00  0.00     0.032 A 
ENDROOT
BRANCH   1  11
HETATM   11  N   UNL     1       6.075  24.555  52.989  1.00  0.00    -0.326 N 
HETATM   12  C   UNL     1       7.412  24.233  53.076  1.00  0.00     0.231 C 
HETATM   13  O   UNL     1       8.367  24.888  52.688  1.00  0.00    -0.272 OA
HETATM   14  H   UNL     1       5.433  23.891  53.401  1.00  0.00     0.169 HD
BRANCH  12  15
HETATM   15  C   UNL     1       7.646  22.896  53.743  1.00  0.00     0.045 A 
HETATM   16  C   UNL     1       8.944  22.180  53.355  1.00  0.00     0.020 A 
HETATM   17  C   UNL     1       7.636  21.646  52.866  1.00  0.00     0.020 A 
BRANCH  15  18
HETATM   18  C   UNL     1       7.174  22.753  55.187  1.00  0.00     0.057 C 
BRANCH  18  19
HETATM   19  C   UNL     1       7.330  23.993  56.042  1.00  0.00    -0.057 A 
HETATM   20  C   UNL     1       8.554  24.383  56.600  1.00  0.00     0.007 A 
HETATM   21  C   UNL     1       8.636  25.503  57.434  1.00  0.00     0.001 A 
HETATM   22  C   UNL     1       7.493  26.236  57.738  1.00  0.00     0.000 A 
HETATM   23  C   UNL     1       6.265  25.851  57.208  1.00  0.00     0.001 A 
HETATM   24  C   UNL     1       6.183  24.737  56.370  1.00  0.00     0.007 A 
ENDBRANCH  18  19
ENDBRANCH  15  18
ENDBRANCH  12  15
ENDBRANCH   1  11
BRANCH   8  25
HETATM   25  C   UNL     1       4.857  26.853  47.824  1.00  0.00     0.270 C 
HETATM   26  N   UNL     1       5.974  27.378  47.232  1.00  0.00    -0.365 N 
HETATM   27  H   UNL     1       6.469  28.123  47.707  1.00  0.00     0.159 HD
HETATM   28  H   UNL     1       6.288  27.012  46.347  1.00  0.00     0.159 HD
HETATM   29  O   UNL     1       4.225  25.946  47.293  1.00  0.00    -0.266 OA
ENDBRANCH   8  25
TORSDOF 5
ENDMDL
MODEL 8
REMARK VINA RESULT:      -8.7      4.069      9.041
REMARK  5 active torsions:
REMARK  status: ('A' for Active; 'I' for Inactive)
REMARK    1  A    between atoms: C_4  and  C_5 
REMARK    2  A    between atoms: C_5  and  C_6 
REMARK    3  A    between atoms: C_6  and  C_7 
REMARK       I    between atoms: C_7  and  N_8 
REMARK    4  A    between atoms: N_8  and  C_9 
REMARK    5  A    between atoms: C_16  and  C_17 
REMARK       I    between atoms: C_17  and  N_18 
ROOT
HETATM    1  C   UNL     1       8.260  29.530  58.047  1.00  0.00     0.035 A 
HETATM    2  C   UNL     1       7.106  29.051  57.412  1.00  0.00     0.046 A 
HETATM    3  C   UNL     1       7.156  28.715  56.040  1.00  0.00     0.030 A 
HETATM    4  C   UNL     1       8.354  28.873  55.354  1.00  0.00     0.063 A 
HETATM    5  N   UNL     1       8.091  28.484  54.070  1.00  0.00    -0.277 N 
HETATM    6  H   UNL     1       8.736  28.473  53.288  1.00  0.00     0.189 HD
HETATM    7  N   UNL     1       6.829  28.077  53.859  1.00  0.00    -0.168 NA
HETATM    8  C   UNL     1       6.238  28.213  55.069  1.00  0.00     0.156 A 
HETATM    9  C   UNL     1       9.522  29.343  55.956  1.00  0.00     0.034 A 
HETATM   10  C   UNL     1       9.448  29.664  57.317  1.00  0.00     0.032 A 
ENDROOT
BRANCH   1  11
HETATM   11  N   UNL     1       8.304  29.915  59.403  1.00  0.00    -0.326 N 
HETATM   12  C   UNL     1       8.053  31.162  59.934  1.00  0.00     0.231 C 
HETATM   13  O   UNL     1       7.669  32.162  59.348  1.00  0.00    -0.272 OA
HETATM   14  H   UNL     1       8.587  29.203  60.062  1.00  0.00     0.169 HD
BRANCH  12  15
HETATM   15  C   UNL     1       8.306  31.221  61.424  1.00  0.00     0.045 A 
HETATM   16  C   UNL     1       9.561  31.987  61.853  1.00  0.00     0.020 A 
HETATM   17  C   UNL     1       9.533  30.497  61.972  1.00  0.00     0.020 A 
BRANCH  15  18
HETATM   18  C   UNL     1       7.081  31.324  62.329  1.00  0.00     0.057 C 
BRANCH  18  19
HETATM   19  C   UNL     1       6.824  32.698  62.910  1.00  0.00    -0.057 A 
HETATM   20  C   UNL     1       7.128  33.032  64.236  1.00  0.00     0.007 A 
HETATM   21  C   UNL     1       6.815  34.296  64.746  1.00  0.00     0.001 A 
HETATM   22  C   UNL     1       6.176  35.237  63.944  1.00  0.00     0.000 A 
HETATM   23  C   UNL     1       5.848  34.916  62.630  1.00  0.00     0.001 A 
HETATM   24  C   UNL     1       6.166  33.656  62.119  1.00  0.00     0.007 A 
ENDBRANCH  18  19
ENDBRANCH  15  18
ENDBRANCH  12  15
ENDBRANCH   1  11
BRANCH   8  25
HETATM   25  C   UNL     1       4.824  27.863  55.266  1.00  0.00     0.270 C 
HETATM   26  N   UNL     1       4.625  26.780  56.079  1.00  0.00    -0.365 N 
HETATM   27  H   UNL     1       5.434  26.317  56.476  1.00  0.00     0.159 HD
HETATM   28  H   UNL     1       3.687  26.471  56.277  1.00  0.00     0.159 HD
HETATM   29  O   UNL     1       3.878  28.462  54.766  1.00  0.00    -0.266 OA
ENDBRANCH   8  25
TORSDOF 5
ENDMDL
MODEL 9
REMARK VINA RESULT:      -8.5      5.332      7.590
REMARK  5 active torsions:
REMARK  status: ('A' for Active; 'I' for Inactive)
REMARK    1  A    between atoms: C_4  and  C_5 
REMARK    2  A    between atoms: C_5  and  C_6 
REMARK    3  A    between atoms: C_6  and  C_7 
REMARK       I    between atoms: C_7  and  N_8 
REMARK    4  A    between atoms: N_8  and  C_9 
REMARK    5  A    between atoms: C_16  and  C_17 
REMARK       I    between atoms: C_17  and  N_18 
ROOT
HETATM    1  C   UNL     1       5.361  27.011  51.855  1.00  0.00     0.035 A 
HETATM    2  C   UNL     1       5.445  28.307  51.330  1.00  0.00     0.046 A 
HETATM    3  C   UNL     1       5.191  28.520  49.956  1.00  0.00     0.030 A 
HETATM    4  C   UNL     1       4.866  27.430  49.157  1.00  0.00     0.063 A 
HETATM    5  N   UNL     1       4.692  27.940  47.901  1.00  0.00    -0.277 N 
HETATM    6  H   UNL     1       4.451  27.429  47.060  1.00  0.00     0.189 HD
HETATM    7  N   UNL     1       4.865  29.269  47.811  1.00  0.00    -0.168 NA
HETATM    8  C   UNL     1       5.173  29.642  49.074  1.00  0.00     0.156 A 
HETATM    9  C   UNL     1       4.769  26.127  49.647  1.00  0.00     0.034 A 
HETATM   10  C   UNL     1       5.020  25.943  51.013  1.00  0.00     0.032 A 
ENDROOT
BRANCH   1  11
HETATM   11  N   UNL     1       5.620  26.694  53.204  1.00  0.00    -0.326 N 
HETATM   12  C   UNL     1       6.770  26.941  53.922  1.00  0.00     0.231 C 
HETATM   13  O   UNL     1       7.763  27.550  53.559  1.00  0.00    -0.272 OA
HETATM   14  H   UNL     1       4.890  26.195  53.696  1.00  0.00     0.169 HD
BRANCH  12  15
HETATM   15  C   UNL     1       6.720  26.359  55.317  1.00  0.00     0.045 A 
HETATM   16  C   UNL     1       6.258  27.317  56.420  1.00  0.00     0.020 A 
HETATM   17  C   UNL     1       7.694  26.906  56.357  1.00  0.00     0.020 A 
BRANCH  15  18
HETATM   18  C   UNL     1       6.299  24.897  55.441  1.00  0.00     0.057 C 
BRANCH  18  19
HETATM   19  C   UNL     1       7.242  23.899  54.803  1.00  0.00    -0.057 A 
HETATM   20  C   UNL     1       7.080  23.430  53.493  1.00  0.00     0.007 A 
HETATM   21  C   UNL     1       7.941  22.461  52.968  1.00  0.00     0.001 A 
HETATM   22  C   UNL     1       8.963  21.933  53.751  1.00  0.00     0.000 A 
HETATM   23  C   UNL     1       9.127  22.373  55.062  1.00  0.00     0.001 A 
HETATM   24  C   UNL     1       8.271  23.345  55.584  1.00  0.00     0.007 A 
ENDBRANCH  18  19
ENDBRANCH  15  18
ENDBRANCH  12  15
ENDBRANCH   1  11
BRANCH   8  25
HETATM   25  C   UNL     1       5.440  31.050  49.405  1.00  0.00     0.270 C 
HETATM   26  N   UNL     1       4.439  31.909  49.041  1.00  0.00    -0.365 N 
HETATM   27  H   UNL     1       3.615  31.528  48.590  1.00  0.00     0.159 HD
HETATM   28  H   UNL     1       4.531  32.893  49.234  1.00  0.00     0.159 HD
HETATM   29  O   UNL     1       6.455  31.458  49.958  1.00  0.00    -0.266 OA
ENDBRANCH   8  25
TORSDOF 5
ENDMDL
MODEL 10
REMARK VINA RESULT:      -8.2      5.166      8.152
REMARK  5 active torsions:
REMARK  status: ('A' for Active; 'I' for Inactive)
REMARK    1  A    between atoms: C_4  and  C_5 
REMARK    2  A    between atoms: C_5  and  C_6 
REMARK    3  A    between atoms: C_6  and  C_7 
REMARK       I    between atoms: C_7  and  N_8 
REMARK    4  A    between atoms: N_8  and  C_9 
REMARK    5  A    between atoms: C_16  and  C_17 
REMARK       I    between atoms: C_17  and  N_18 
ROOT
HETATM    1  C   UNL     1       6.923  25.848  52.840  1.00  0.00     0.035 A 
HETATM    2  C   UNL     1       7.121  25.770  54.224  1.00  0.00     0.046 A 
HETATM    3  C   UNL     1       7.757  24.633  54.773  1.00  0.00     0.030 A 
HETATM    4  C   UNL     1       8.168  23.616  53.920  1.00  0.00     0.063 A 
HETATM    5  N   UNL     1       8.728  22.667  54.729  1.00  0.00    -0.277 N 
HETATM    6  H   UNL     1       9.130  21.781  54.447  1.00  0.00     0.189 HD
HETATM    7  N   UNL     1       8.727  22.979  56.035  1.00  0.00    -0.168 NA
HETATM    8  C   UNL     1       8.130  24.192  56.079  1.00  0.00     0.156 A 
HETATM    9  C   UNL     1       7.990  23.664  52.537  1.00  0.00     0.034 A 
HETATM   10  C   UNL     1       7.363  24.803  52.017  1.00  0.00     0.032 A 
ENDROOT
BRANCH   1  11
HETATM   11  N   UNL     1       6.278  26.927  52.200  1.00  0.00    -0.326 N 
HETATM   12  C   UNL     1       4.985  27.367  52.390  1.00  0.00     0.231 C 
HETATM   13  O   UNL     1       4.167  26.962  53.199  1.00  0.00    -0.272 OA
HETATM   14  H   UNL     1       6.812  27.415  51.495  1.00  0.00     0.169 HD
BRANCH  12  15
HETATM   15  C   UNL     1       4.609  28.487  51.445  1.00  0.00     0.045 A 
HETATM   16  C   UNL     1       4.467  29.872  52.083  1.00  0.00     0.020 A 
HETATM   17  C   UNL     1       3.244  29.146  51.622  1.00  0.00     0.020 A 
BRANCH  15  18
HETATM   18  C   UNL     1       5.188  28.424  50.034  1.00  0.00     0.057 C 
BRANCH  18  19
HETATM   19  C   UNL     1       4.327  27.704  49.017  1.00  0.00    -0.057 A 
HETATM   20  C   UNL     1       3.554  28.378  48.063  1.00  0.00     0.007 A 
HETATM   21  C   UNL     1       2.726  27.671  47.185  1.00  0.00     0.001 A 
HETATM   22  C   UNL     1       2.645  26.284  47.259  1.00  0.00     0.000 A 
HETATM   23  C   UNL     1       3.393  25.600  48.214  1.00  0.00     0.001 A 
HETATM   24  C   UNL     1       4.224  26.304  49.087  1.00  0.00     0.007 A 
ENDBRANCH  18  19
ENDBRANCH  15  18
ENDBRANCH  12  15
ENDBRANCH   1  11
BRANCH   8  25
HETATM   25  C   UNL     1       7.935  24.895  57.355  1.00  0.00     0.270 C 
HETATM   26  N   UNL     1       8.750  24.458  58.364  1.00  0.00    -0.365 N 
HETATM   27  H   UNL     1       9.408  23.713  58.167  1.00  0.00     0.159 HD
HETATM   28  H   UNL     1       8.691  24.887  59.274  1.00  0.00     0.159 HD
HETATM   29  O   UNL     1       7.126  25.798  57.540  1.00  0.00    -0.266 OA
ENDBRANCH   8  25
TORSDOF 5
ENDMDL
