MODEL 1
REMARK VINA RESULT:      -9.8      0.000      0.000
REMARK  6 active torsions:
REMARK  status: ('A' for Active; 'I' for Inactive)
REMARK    1  A    between atoms: O_2  and  C_3 
REMARK    2  A    between atoms: C_4  and  C_5 
REMARK       I    between atoms: C_5  and  N_6 
REMARK    3  A    between atoms: N_6  and  C_7 
REMARK    4  A    between atoms: C_9  and  C_10 
REMARK    5  A    between atoms: C_10  and  C_11 
REMARK    6  A    between atoms: C_11  and  C_12 
ROOT
HETATM    1  C   UNL     1       7.986  29.875  58.530  1.00  0.00     0.725 A 
HETATM    2  N   UNL     1       7.260  29.182  57.688  1.00  0.00    -0.046 NA
HETATM    3  C   UNL     1       8.153  28.754  56.743  1.00  0.00     0.166 A 
HETATM    4  N   UNL     1       9.418  29.136  56.963  1.00  0.00    -0.144 NA
HETATM    5  N   UNL     1       9.282  29.852  58.092  1.00  0.00    -0.106 N 
HETATM    6  H   UNL     1      10.101  30.281  58.502  1.00  0.00     0.208 HD
ENDROOT
BRANCH   1   7
HETATM    7  N   UNL     1       7.605  30.547  59.667  1.00  0.00    -0.152 N 
HETATM    8  C   UNL     1       8.134  31.788  59.986  1.00  0.00     0.272 C 
HETATM    9  O   UNL     1       8.931  32.448  59.337  1.00  0.00    -0.267 OA
HETATM   10  H   UNL     1       6.957  30.107  60.302  1.00  0.00     0.187 HD
BRANCH   8  11
HETATM   11  C   UNL     1       7.647  32.324  61.284  1.00  0.00     0.066 A 
HETATM   12  C   UNL     1       6.374  32.896  61.410  1.00  0.00     0.084 A 
HETATM   13  C   UNL     1       5.928  33.329  62.662  1.00  0.00     0.038 A 
HETATM   14  C   UNL     1       6.757  33.229  63.780  1.00  0.00     0.003 A 
HETATM   15  C   UNL     1       8.028  32.671  63.659  1.00  0.00     0.001 A 
HETATM   16  C   UNL     1       8.472  32.210  62.416  1.00  0.00     0.020 A 
BRANCH  12  17
HETATM   17  O   UNL     1       5.471  33.003  60.386  1.00  0.00    -0.355 OA
HETATM   18  C   UNL     1       4.189  32.492  60.745  1.00  0.00     0.210 C 
ENDBRANCH  12  17
ENDBRANCH   8  11
ENDBRANCH   1   7
BRANCH   3  19
HETATM   19  C   UNL     1       7.720  27.917  55.594  1.00  0.00     0.087 C 
BRANCH  19  20
HETATM   20  C   UNL     1       6.835  26.736  55.992  1.00  0.00     0.048 C 
BRANCH  20  21
HETATM   21  C   UNL     1       7.614  25.461  56.112  1.00  0.00    -0.030 A 
HETATM   22  C   UNL     1       7.807  24.467  55.098  1.00  0.00    -0.002 A 
HETATM   23  C   UNL     1       8.623  23.472  55.637  1.00  0.00     0.042 A 
HETATM   24  C   UNL     1       7.374  24.328  53.762  1.00  0.00     0.014 A 
HETATM   25  C   UNL     1       9.033  22.348  54.910  1.00  0.00     0.030 A 
HETATM   26  N   UNL     1       8.902  23.837  56.933  1.00  0.00    -0.365 N 
HETATM   27  C   UNL     1       8.593  22.237  53.587  1.00  0.00     0.002 A 
HETATM   28  C   UNL     1       7.775  23.211  53.020  1.00  0.00     0.001 A 
HETATM   29  H   UNL     1       9.477  23.301  57.568  1.00  0.00     0.165 HD
HETATM   30  C   UNL     1       8.301  25.029  57.230  1.00  0.00     0.096 A 
ENDBRANCH  20  21
ENDBRANCH  19  20
ENDBRANCH   3  19
TORSDOF 6
ENDMDL
MODEL 2
REMARK VINA RESULT:      -9.8      1.463      2.093
REMARK  6 active torsions:
REMARK  status: ('A' for Active; 'I' for Inactive)
REMARK    1  A    between atoms: O_2  and  C_3 
REMARK    2  A    between atoms: C_4  and  C_5 
REMARK       I    between atoms: C_5  and  N_6 
REMARK    3  A    between atoms: N_6  and  C_7 
REMARK    4  A    between atoms: C_9  and  C_10 
REMARK    5  A    between atoms: C_10  and  C_11 
REMARK    6  A    between atoms: C_11  and  C_12 
ROOT
HETATM    1  C   UNL     1       7.122  28.829  57.179  1.00  0.00     0.725 A 
HETATM    2  N   UNL     1       6.572  27.648  57.043  1.00  0.00    -0.046 NA
HETATM    3  C   UNL     1       6.785  27.324  55.730  1.00  0.00     0.166 A 
HETATM    4  N   UNL     1       7.463  28.248  55.035  1.00  0.00    -0.144 NA
HETATM    5  N   UNL     1       7.652  29.193  55.971  1.00  0.00    -0.106 N 
HETATM    6  H   UNL     1       8.148  30.038  55.722  1.00  0.00     0.208 HD
ENDROOT
BRANCH   1   7
HETATM    7  N   UNL     1       7.193  29.638  58.288  1.00  0.00    -0.152 N 
HETATM    8  C   UNL     1       8.401  30.152  58.732  1.00  0.00     0.272 C 
HETATM    9  O   UNL     1       9.502  30.014  58.224  1.00  0.00    -0.267 OA
HETATM   10  H   UNL     1       6.352  29.825  58.813  1.00  0.00     0.187 HD
BRANCH   8  11
HETATM   11  C   UNL     1       8.283  30.950  59.980  1.00  0.00     0.066 A 
HETATM   12  C   UNL     1       7.452  32.077  60.055  1.00  0.00     0.084 A 
HETATM   13  C   UNL     1       7.318  32.762  61.267  1.00  0.00     0.038 A 
HETATM   14  C   UNL     1       8.034  32.352  62.392  1.00  0.00     0.003 A 
HETATM   15  C   UNL     1       8.869  31.239  62.321  1.00  0.00     0.001 A 
HETATM   16  C   UNL     1       8.988  30.531  61.122  1.00  0.00     0.020 A 
BRANCH  12  17
HETATM   17  O   UNL     1       6.679  32.536  59.022  1.00  0.00    -0.355 OA
HETATM   18  C   UNL     1       5.307  32.656  59.392  1.00  0.00     0.210 C 
ENDBRANCH  12  17
ENDBRANCH   8  11
ENDBRANCH   1   7
BRANCH   3  19
HETATM   19  C   UNL     1       6.311  26.034  55.165  1.00  0.00     0.087 C 
BRANCH  19  20
HETATM   20  C   UNL     1       7.390  25.258  54.410  1.00  0.00     0.048 C 
BRANCH  20  21
HETATM   21  C   UNL     1       7.784  24.000  55.123  1.00  0.00    -0.030 A 
HETATM   22  C   UNL     1       8.003  22.709  54.541  1.00  0.00    -0.002 A 
HETATM   23  C   UNL     1       8.386  21.846  55.569  1.00  0.00     0.042 A 
HETATM   24  C   UNL     1       7.925  22.196  53.229  1.00  0.00     0.014 A 
HETATM   25  C   UNL     1       8.699  20.499  55.353  1.00  0.00     0.030 A 
HETATM   26  N   UNL     1       8.383  22.578  56.733  1.00  0.00    -0.365 N 
HETATM   27  C   UNL     1       8.618  20.017  54.043  1.00  0.00     0.002 A 
HETATM   28  C   UNL     1       8.236  20.851  52.995  1.00  0.00     0.001 A 
HETATM   29  H   UNL     1       8.623  22.209  57.642  1.00  0.00     0.165 HD
HETATM   30  C   UNL     1       8.023  23.873  56.477  1.00  0.00     0.096 A 
ENDBRANCH  20  21
ENDBRANCH  19  20
ENDBRANCH   3  19
TORSDOF 6
ENDMDL
MODEL 3
REMARK VINA RESULT:      -9.1      2.807     10.069
REMARK  6 active torsions:
REMARK  status: ('A' for Active; 'I' for Inactive)
REMARK    1  A    between atoms: O_2  and  C_3 
REMARK    2  A    between atoms: C_4  and  C_5 
REMARK       I    between atoms: C_5  and  N_6 
REMARK    3  A    between atoms: N_6  and  C_7 
REMARK    4  A    between atoms: C_9  and  C_10 
REMARK    5  A    between atoms: C_10  and  C_11 
REMARK    6  A    between atoms: C_11  and  C_12 
ROOT
HETATM    1  C   UNL     1       7.809  27.116  56.715  1.00  0.00     0.725 A 
HETATM    2  N   UNL     1       8.727  27.980  57.072  1.00  0.00    -0.046 NA
HETATM    3  C   UNL     1       8.028  28.974  57.703  1.00  0.00     0.166 A 
HETATM    4  N   UNL     1       6.707  28.765  57.773  1.00  0.00    -0.144 NA
HETATM    5  N   UNL     1       6.594  27.589  57.131  1.00  0.00    -0.106 N 
HETATM    6  H   UNL     1       5.678  27.175  57.023  1.00  0.00     0.208 HD
ENDROOT
BRANCH   1   7
HETATM    7  N   UNL     1       7.942  25.929  56.035  1.00  0.00    -0.152 N 
HETATM    8  C   UNL     1       7.046  24.888  56.213  1.00  0.00     0.272 C 
HETATM    9  O   UNL     1       6.048  24.875  56.917  1.00  0.00    -0.267 OA
HETATM   10  H   UNL     1       8.735  25.801  55.425  1.00  0.00     0.187 HD
BRANCH   8  11
HETATM   11  C   UNL     1       7.393  23.667  55.440  1.00  0.00     0.066 A 
HETATM   12  C   UNL     1       7.268  23.621  54.045  1.00  0.00     0.084 A 
HETATM   13  C   UNL     1       7.667  22.477  53.348  1.00  0.00     0.038 A 
HETATM   14  C   UNL     1       8.156  21.366  54.037  1.00  0.00     0.003 A 
HETATM   15  C   UNL     1       8.273  21.401  55.425  1.00  0.00     0.001 A 
HETATM   16  C   UNL     1       7.902  22.551  56.127  1.00  0.00     0.020 A 
BRANCH  12  17
HETATM   17  O   UNL     1       6.839  24.668  53.273  1.00  0.00    -0.355 OA
HETATM   18  C   UNL     1       7.882  25.194  52.454  1.00  0.00     0.210 C 
ENDBRANCH  12  17
ENDBRANCH   8  11
ENDBRANCH   1   7
BRANCH   3  19
HETATM   19  C   UNL     1       8.718  30.162  58.271  1.00  0.00     0.087 C 
BRANCH  19  20
HETATM   20  C   UNL     1       8.581  30.285  59.788  1.00  0.00     0.048 C 
BRANCH  20  21
HETATM   21  C   UNL     1       7.630  31.374  60.184  1.00  0.00    -0.030 A 
HETATM   22  C   UNL     1       7.537  32.020  61.460  1.00  0.00    -0.002 A 
HETATM   23  C   UNL     1       6.539  32.990  61.366  1.00  0.00     0.042 A 
HETATM   24  C   UNL     1       8.221  31.878  62.685  1.00  0.00     0.014 A 
HETATM   25  C   UNL     1       6.193  33.830  62.431  1.00  0.00     0.030 A 
HETATM   26  N   UNL     1       6.033  32.927  60.089  1.00  0.00    -0.365 N 
HETATM   27  C   UNL     1       6.889  33.672  63.632  1.00  0.00     0.002 A 
HETATM   28  C   UNL     1       7.889  32.710  63.761  1.00  0.00     0.001 A 
HETATM   29  H   UNL     1       5.295  33.519  59.735  1.00  0.00     0.165 HD
HETATM   30  C   UNL     1       6.680  31.959  59.370  1.00  0.00     0.096 A 
ENDBRANCH  20  21
ENDBRANCH  19  20
ENDBRANCH   3  19
TORSDOF 6
ENDMDL
MODEL 4
REMARK VINA RESULT:      -9.1      2.582     10.090
REMARK  6 active torsions:
REMARK  status: ('A' for Active; 'I' for Inactive)
REMARK    1  A    between atoms: O_2  and  C_3 
REMARK    2  A    between atoms: C_4  and  C_5 
REMARK       I    between atoms: C_5  and  N_6 
REMARK    3  A    between atoms: N_6  and  C_7 
REMARK    4  A    between atoms: C_9  and  C_10 
REMARK    5  A    between atoms: C_10  and  C_11 
REMARK    6  A    between atoms: C_11  and  C_12 
ROOT
HETATM    1  C   UNL     1       7.801  28.481  56.863  1.00  0.00     0.725 A 
HETATM    2  N   UNL     1       8.373  28.705  58.020  1.00  0.00    -0.046 NA
HETATM    3  C   UNL     1       7.804  29.871  58.458  1.00  0.00     0.166 A 
HETATM    4  N   UNL     1       6.884  30.384  57.631  1.00  0.00    -0.144 NA
HETATM    5  N   UNL     1       6.910  29.492  56.626  1.00  0.00    -0.106 N 
HETATM    6  H   UNL     1       6.301  29.631  55.832  1.00  0.00     0.208 HD
ENDROOT
BRANCH   1   7
HETATM    7  N   UNL     1       8.001  27.453  55.973  1.00  0.00    -0.152 N 
HETATM    8  C   UNL     1       6.943  26.857  55.305  1.00  0.00     0.272 C 
HETATM    9  O   UNL     1       5.760  27.156  55.365  1.00  0.00    -0.267 OA
HETATM   10  H   UNL     1       8.935  27.098  55.837  1.00  0.00     0.187 HD
BRANCH   8  11
HETATM   11  C   UNL     1       7.353  25.724  54.435  1.00  0.00     0.066 A 
HETATM   12  C   UNL     1       7.770  24.499  54.975  1.00  0.00     0.084 A 
HETATM   13  C   UNL     1       8.085  23.436  54.122  1.00  0.00     0.038 A 
HETATM   14  C   UNL     1       8.020  23.599  52.738  1.00  0.00     0.003 A 
HETATM   15  C   UNL     1       7.616  24.817  52.196  1.00  0.00     0.001 A 
HETATM   16  C   UNL     1       7.274  25.877  53.040  1.00  0.00     0.020 A 
BRANCH  12  17
HETATM   17  O   UNL     1       7.828  24.226  56.315  1.00  0.00    -0.355 OA
HETATM   18  C   UNL     1       8.265  22.892  56.572  1.00  0.00     0.210 C 
ENDBRANCH  12  17
ENDBRANCH   8  11
ENDBRANCH   1   7
BRANCH   3  19
HETATM   19  C   UNL     1       8.186  30.474  59.762  1.00  0.00     0.087 C 
BRANCH  19  20
HETATM   20  C   UNL     1       8.022  31.993  59.808  1.00  0.00     0.048 C 
BRANCH  20  21
HETATM   21  C   UNL     1       6.886  32.413  60.692  1.00  0.00    -0.030 A 
HETATM   22  C   UNL     1       6.945  32.709  62.093  1.00  0.00    -0.002 A 
HETATM   23  C   UNL     1       5.663  33.087  62.494  1.00  0.00     0.042 A 
HETATM   24  C   UNL     1       7.975  32.704  63.057  1.00  0.00     0.014 A 
HETATM   25  C   UNL     1       5.358  33.466  63.807  1.00  0.00     0.030 A 
HETATM   26  N   UNL     1       4.853  33.008  61.386  1.00  0.00    -0.365 N 
HETATM   27  C   UNL     1       6.398  33.457  64.741  1.00  0.00     0.002 A 
HETATM   28  C   UNL     1       7.689  33.081  64.374  1.00  0.00     0.001 A 
HETATM   29  H   UNL     1       3.867  33.228  61.380  1.00  0.00     0.165 HD
HETATM   30  C   UNL     1       5.577  32.604  60.297  1.00  0.00     0.096 A 
ENDBRANCH  20  21
ENDBRANCH  19  20
ENDBRANCH   3  19
TORSDOF 6
ENDMDL
MODEL 5
REMARK VINA RESULT:      -9.0      3.064      4.695
REMARK  6 active torsions:
REMARK  status: ('A' for Active; 'I' for Inactive)
REMARK    1  A    between atoms: O_2  and  C_3 
REMARK    2  A    between atoms: C_4  and  C_5 
REMARK       I    between atoms: C_5  and  N_6 
REMARK    3  A    between atoms: N_6  and  C_7 
REMARK    4  A    between atoms: C_9  and  C_10 
REMARK    5  A    between atoms: C_10  and  C_11 
REMARK    6  A    between atoms: C_11  and  C_12 
ROOT
HETATM    1  C   UNL     1       6.269  26.967  54.841  1.00  0.00     0.725 A 
HETATM    2  N   UNL     1       6.971  26.390  53.898  1.00  0.00    -0.046 NA
HETATM    3  C   UNL     1       6.183  25.354  53.474  1.00  0.00     0.166 A 
HETATM    4  N   UNL     1       5.003  25.263  54.102  1.00  0.00    -0.144 NA
HETATM    5  N   UNL     1       5.089  26.286  54.968  1.00  0.00    -0.106 N 
HETATM    6  H   UNL     1       4.317  26.462  55.597  1.00  0.00     0.208 HD
ENDROOT
BRANCH   1   7
HETATM    7  N   UNL     1       6.581  28.053  55.624  1.00  0.00    -0.152 N 
HETATM    8  C   UNL     1       7.263  27.910  56.821  1.00  0.00     0.272 C 
HETATM    9  O   UNL     1       7.698  26.881  57.314  1.00  0.00    -0.267 OA
HETATM   10  H   UNL     1       6.268  28.968  55.338  1.00  0.00     0.187 HD
BRANCH   8  11
HETATM   11  C   UNL     1       7.450  29.190  57.553  1.00  0.00     0.066 A 
HETATM   12  C   UNL     1       6.394  30.094  57.733  1.00  0.00     0.084 A 
HETATM   13  C   UNL     1       6.594  31.256  58.484  1.00  0.00     0.038 A 
HETATM   14  C   UNL     1       7.849  31.539  59.026  1.00  0.00     0.003 A 
HETATM   15  C   UNL     1       8.905  30.650  58.841  1.00  0.00     0.001 A 
HETATM   16  C   UNL     1       8.708  29.472  58.115  1.00  0.00     0.020 A 
BRANCH  12  17
HETATM   17  O   UNL     1       5.118  29.891  57.279  1.00  0.00    -0.355 OA
HETATM   18  C   UNL     1       4.169  30.706  57.963  1.00  0.00     0.210 C 
ENDBRANCH  12  17
ENDBRANCH   8  11
ENDBRANCH   1   7
BRANCH   3  19
HETATM   19  C   UNL     1       6.625  24.441  52.388  1.00  0.00     0.087 C 
BRANCH  19  20
HETATM   20  C   UNL     1       8.036  23.888  52.584  1.00  0.00     0.048 C 
BRANCH  20  21
HETATM   21  C   UNL     1       8.034  22.579  53.314  1.00  0.00    -0.030 A 
HETATM   22  C   UNL     1       8.147  22.378  54.729  1.00  0.00    -0.002 A 
HETATM   23  C   UNL     1       8.064  21.005  54.964  1.00  0.00     0.042 A 
HETATM   24  C   UNL     1       8.298  23.239  55.835  1.00  0.00     0.014 A 
HETATM   25  C   UNL     1       8.120  20.449  56.247  1.00  0.00     0.030 A 
HETATM   26  N   UNL     1       7.923  20.393  53.740  1.00  0.00    -0.365 N 
HETATM   27  C   UNL     1       8.265  21.325  57.326  1.00  0.00     0.002 A 
HETATM   28  C   UNL     1       8.355  22.701  57.126  1.00  0.00     0.001 A 
HETATM   29  H   UNL     1       7.837  19.396  53.605  1.00  0.00     0.165 HD
HETATM   30  C   UNL     1       7.904  21.329  52.742  1.00  0.00     0.096 A 
ENDBRANCH  20  21
ENDBRANCH  19  20
ENDBRANCH   3  19
TORSDOF 6
ENDMDL
MODEL 6
REMARK VINA RESULT:      -8.9      7.122     10.575
REMARK  6 active torsions:
REMARK  status: ('A' for Active; 'I' for Inactive)
REMARK    1  A    between atoms: O_2  and  C_3 
REMARK    2  A    between atoms: C_4  and  C_5 
REMARK       I    between atoms: C_5  and  N_6 
REMARK    3  A    between atoms: N_6  and  C_7 
REMARK    4  A    between atoms: C_9  and  C_10 
REMARK    5  A    between atoms: C_10  and  C_11 
REMARK    6  A    between atoms: C_11  and  C_12 
ROOT
HETATM    1  C   UNL     1       5.444  25.772  52.864  1.00  0.00     0.725 A 
HETATM    2  N   UNL     1       5.723  26.376  51.735  1.00  0.00    -0.046 NA
HETATM    3  C   UNL     1       4.926  27.489  51.741  1.00  0.00     0.166 A 
HETATM    4  N   UNL     1       4.167  27.621  52.837  1.00  0.00    -0.144 NA
HETATM    5  N   UNL     1       4.505  26.517  53.524  1.00  0.00    -0.106 N 
HETATM    6  H   UNL     1       4.070  26.345  54.420  1.00  0.00     0.208 HD
ENDROOT
BRANCH   1   7
HETATM    7  N   UNL     1       5.943  24.597  53.374  1.00  0.00    -0.152 N 
HETATM    8  C   UNL     1       7.262  24.223  53.173  1.00  0.00     0.272 C 
HETATM    9  O   UNL     1       8.134  24.848  52.591  1.00  0.00    -0.267 OA
HETATM   10  H   UNL     1       5.321  23.976  53.869  1.00  0.00     0.187 HD
BRANCH   8  11
HETATM   11  C   UNL     1       7.594  22.892  53.746  1.00  0.00     0.066 A 
HETATM   12  C   UNL     1       7.540  22.653  55.126  1.00  0.00     0.084 A 
HETATM   13  C   UNL     1       7.796  21.370  55.619  1.00  0.00     0.038 A 
HETATM   14  C   UNL     1       8.142  20.335  54.749  1.00  0.00     0.003 A 
HETATM   15  C   UNL     1       8.208  20.570  53.378  1.00  0.00     0.001 A 
HETATM   16  C   UNL     1       7.927  21.842  52.872  1.00  0.00     0.020 A 
BRANCH  12  17
HETATM   17  O   UNL     1       7.173  23.587  56.057  1.00  0.00    -0.355 OA
HETATM   18  C   UNL     1       8.266  23.976  56.887  1.00  0.00     0.210 C 
ENDBRANCH  12  17
ENDBRANCH   8  11
ENDBRANCH   1   7
BRANCH   3  19
HETATM   19  C   UNL     1       4.948  28.460  50.616  1.00  0.00     0.087 C 
BRANCH  19  20
HETATM   20  C   UNL     1       5.187  27.816  49.251  1.00  0.00     0.048 C 
BRANCH  20  21
HETATM   21  C   UNL     1       3.940  27.203  48.689  1.00  0.00    -0.030 A 
HETATM   22  C   UNL     1       2.909  27.867  47.948  1.00  0.00    -0.002 A 
HETATM   23  C   UNL     1       1.961  26.905  47.597  1.00  0.00     0.042 A 
HETATM   24  C   UNL     1       2.700  29.198  47.530  1.00  0.00     0.014 A 
HETATM   25  C   UNL     1       0.818  27.203  46.846  1.00  0.00     0.030 A 
HETATM   26  N   UNL     1       2.389  25.707  48.118  1.00  0.00    -0.365 N 
HETATM   27  C   UNL     1       0.637  28.529  46.440  1.00  0.00     0.002 A 
HETATM   28  C   UNL     1       1.562  29.514  46.776  1.00  0.00     0.001 A 
HETATM   29  H   UNL     1       1.897  24.830  48.017  1.00  0.00     0.165 HD
HETATM   30  C   UNL     1       3.577  25.874  48.776  1.00  0.00     0.096 A 
ENDBRANCH  20  21
ENDBRANCH  19  20
ENDBRANCH   3  19
TORSDOF 6
ENDMDL
MODEL 7
REMARK VINA RESULT:      -8.9      2.417      4.186
REMARK  6 active torsions:
REMARK  status: ('A' for Active; 'I' for Inactive)
REMARK    1  A    between atoms: O_2  and  C_3 
REMARK    2  A    between atoms: C_4  and  C_5 
REMARK       I    between atoms: C_5  and  N_6 
REMARK    3  A    between atoms: N_6  and  C_7 
REMARK    4  A    between atoms: C_9  and  C_10 
REMARK    5  A    between atoms: C_10  and  C_11 
REMARK    6  A    between atoms: C_11  and  C_12 
ROOT
HETATM    1  C   UNL     1       6.616  27.339  56.745  1.00  0.00     0.725 A 
HETATM    2  N   UNL     1       7.009  27.025  55.535  1.00  0.00    -0.046 NA
HETATM    3  C   UNL     1       6.187  25.993  55.169  1.00  0.00     0.166 A 
HETATM    4  N   UNL     1       5.279  25.654  56.094  1.00  0.00    -0.144 NA
HETATM    5  N   UNL     1       5.580  26.512  57.083  1.00  0.00    -0.106 N 
HETATM    6  H   UNL     1       5.043  26.482  57.939  1.00  0.00     0.208 HD
ENDROOT
BRANCH   1   7
HETATM    7  N   UNL     1       7.101  28.300  57.600  1.00  0.00    -0.152 N 
HETATM    8  C   UNL     1       6.929  29.651  57.344  1.00  0.00     0.272 C 
HETATM    9  O   UNL     1       6.330  30.162  56.411  1.00  0.00    -0.267 OA
HETATM   10  H   UNL     1       7.630  28.013  58.410  1.00  0.00     0.187 HD
BRANCH   8  11
HETATM   11  C   UNL     1       7.578  30.533  58.349  1.00  0.00     0.066 A 
HETATM   12  C   UNL     1       8.957  30.475  58.594  1.00  0.00     0.084 A 
HETATM   13  C   UNL     1       9.538  31.367  59.500  1.00  0.00     0.038 A 
HETATM   14  C   UNL     1       8.749  32.290  60.188  1.00  0.00     0.003 A 
HETATM   15  C   UNL     1       7.377  32.344  59.956  1.00  0.00     0.001 A 
HETATM   16  C   UNL     1       6.790  31.475  59.032  1.00  0.00     0.020 A 
BRANCH  12  17
HETATM   17  O   UNL     1       9.822  29.637  57.944  1.00  0.00    -0.355 OA
HETATM   18  C   UNL     1      10.646  30.334  57.012  1.00  0.00     0.210 C 
ENDBRANCH  12  17
ENDBRANCH   8  11
ENDBRANCH   1   7
BRANCH   3  19
HETATM   19  C   UNL     1       6.307  25.345  53.838  1.00  0.00     0.087 C 
BRANCH  19  20
HETATM   20  C   UNL     1       7.722  24.873  53.508  1.00  0.00     0.048 C 
BRANCH  20  21
HETATM   21  C   UNL     1       7.881  23.393  53.688  1.00  0.00    -0.030 A 
HETATM   22  C   UNL     1       8.075  22.687  54.919  1.00  0.00    -0.002 A 
HETATM   23  C   UNL     1       8.138  21.326  54.617  1.00  0.00     0.042 A 
HETATM   24  C   UNL     1       8.189  23.079  56.270  1.00  0.00     0.014 A 
HETATM   25  C   UNL     1       8.304  20.337  55.593  1.00  0.00     0.030 A 
HETATM   26  N   UNL     1       8.005  21.209  53.253  1.00  0.00    -0.365 N 
HETATM   27  C   UNL     1       8.410  20.752  56.924  1.00  0.00     0.002 A 
HETATM   28  C   UNL     1       8.355  22.103  57.260  1.00  0.00     0.001 A 
HETATM   29  H   UNL     1       8.011  20.333  52.750  1.00  0.00     0.165 HD
HETATM   30  C   UNL     1       7.850  22.444  52.684  1.00  0.00     0.096 A 
ENDBRANCH  20  21
ENDBRANCH  19  20
ENDBRANCH   3  19
TORSDOF 6
ENDMDL
MODEL 8
REMARK VINA RESULT:      -8.9      3.312      9.819
REMARK  6 active torsions:
REMARK  status: ('A' for Active; 'I' for Inactive)
REMARK    1  A    between atoms: O_2  and  C_3 
REMARK    2  A    between atoms: C_4  and  C_5 
REMARK       I    between atoms: C_5  and  N_6 
REMARK    3  A    between atoms: N_6  and  C_7 
REMARK    4  A    between atoms: C_9  and  C_10 
REMARK    5  A    between atoms: C_10  and  C_11 
REMARK    6  A    between atoms: C_11  and  C_12 
ROOT
HETATM    1  C   UNL     1       6.000  26.437  55.487  1.00  0.00     0.725 A 
HETATM    2  N   UNL     1       6.254  27.343  56.398  1.00  0.00    -0.046 NA
HETATM    3  C   UNL     1       5.357  28.345  56.140  1.00  0.00     0.166 A 
HETATM    4  N   UNL     1       4.535  28.100  55.110  1.00  0.00    -0.144 NA
HETATM    5  N   UNL     1       4.971  26.894  54.709  1.00  0.00    -0.106 N 
HETATM    6  H   UNL     1       4.523  26.449  53.919  1.00  0.00     0.208 HD
ENDROOT
BRANCH   1   7
HETATM    7  N   UNL     1       6.608  25.225  55.265  1.00  0.00    -0.152 N 
HETATM    8  C   UNL     1       7.405  25.007  54.152  1.00  0.00     0.272 C 
HETATM    9  O   UNL     1       7.703  25.809  53.281  1.00  0.00    -0.267 OA
HETATM   10  H   UNL     1       6.435  24.466  55.906  1.00  0.00     0.187 HD
BRANCH   8  11
HETATM   11  C   UNL     1       7.921  23.617  54.055  1.00  0.00     0.066 A 
HETATM   12  C   UNL     1       8.742  23.068  55.049  1.00  0.00     0.084 A 
HETATM   13  C   UNL     1       9.153  21.735  54.952  1.00  0.00     0.038 A 
HETATM   14  C   UNL     1       8.780  20.959  53.854  1.00  0.00     0.003 A 
HETATM   15  C   UNL     1       7.972  21.503  52.858  1.00  0.00     0.001 A 
HETATM   16  C   UNL     1       7.534  22.826  52.959  1.00  0.00     0.020 A 
BRANCH  12  17
HETATM   17  O   UNL     1       9.130  23.731  56.182  1.00  0.00    -0.355 OA
HETATM   18  C   UNL     1       8.496  23.213  57.350  1.00  0.00     0.210 C 
ENDBRANCH  12  17
ENDBRANCH   8  11
ENDBRANCH   1   7
BRANCH   3  19
HETATM   19  C   UNL     1       5.314  29.577  56.970  1.00  0.00     0.087 C 
BRANCH  19  20
HETATM   20  C   UNL     1       6.694  30.102  57.363  1.00  0.00     0.048 C 
BRANCH  20  21
HETATM   21  C   UNL     1       6.626  31.070  58.506  1.00  0.00    -0.030 A 
HETATM   22  C   UNL     1       7.529  31.166  59.614  1.00  0.00    -0.002 A 
HETATM   23  C   UNL     1       7.102  32.227  60.413  1.00  0.00     0.042 A 
HETATM   24  C   UNL     1       8.683  30.455  60.005  1.00  0.00     0.014 A 
HETATM   25  C   UNL     1       7.770  32.617  61.579  1.00  0.00     0.030 A 
HETATM   26  N   UNL     1       5.973  32.746  59.824  1.00  0.00    -0.365 N 
HETATM   27  C   UNL     1       8.913  31.899  61.942  1.00  0.00     0.002 A 
HETATM   28  C   UNL     1       9.365  30.832  61.168  1.00  0.00     0.001 A 
HETATM   29  H   UNL     1       5.447  33.529  60.186  1.00  0.00     0.165 HD
HETATM   30  C   UNL     1       5.677  32.060  58.678  1.00  0.00     0.096 A 
ENDBRANCH  20  21
ENDBRANCH  19  20
ENDBRANCH   3  19
TORSDOF 6
ENDMDL
MODEL 9
REMARK VINA RESULT:      -8.8      2.760      9.727
REMARK  6 active torsions:
REMARK  status: ('A' for Active; 'I' for Inactive)
REMARK    1  A    between atoms: O_2  and  C_3 
REMARK    2  A    between atoms: C_4  and  C_5 
REMARK       I    between atoms: C_5  and  N_6 
REMARK    3  A    between atoms: N_6  and  C_7 
REMARK    4  A    between atoms: C_9  and  C_10 
REMARK    5  A    between atoms: C_10  and  C_11 
REMARK    6  A    between atoms: C_11  and  C_12 
ROOT
HETATM    1  C   UNL     1       6.999  28.316  56.115  1.00  0.00     0.725 A 
HETATM    2  N   UNL     1       7.086  28.798  57.330  1.00  0.00    -0.046 NA
HETATM    3  C   UNL     1       6.495  30.031  57.249  1.00  0.00     0.166 A 
HETATM    4  N   UNL     1       6.024  30.340  56.033  1.00  0.00    -0.144 NA
HETATM    5  N   UNL     1       6.365  29.245  55.334  1.00  0.00    -0.106 N 
HETATM    6  H   UNL     1       6.133  29.198  54.351  1.00  0.00     0.208 HD
ENDROOT
BRANCH   1   7
HETATM    7  N   UNL     1       7.442  27.114  55.617  1.00  0.00    -0.152 N 
HETATM    8  C   UNL     1       6.611  26.285  54.882  1.00  0.00     0.272 C 
HETATM    9  O   UNL     1       5.455  26.493  54.549  1.00  0.00    -0.267 OA
HETATM   10  H   UNL     1       8.381  26.813  55.830  1.00  0.00     0.187 HD
BRANCH   8  11
HETATM   11  C   UNL     1       7.252  25.004  54.486  1.00  0.00     0.066 A 
HETATM   12  C   UNL     1       7.706  24.085  55.441  1.00  0.00     0.084 A 
HETATM   13  C   UNL     1       8.244  22.862  55.028  1.00  0.00     0.038 A 
HETATM   14  C   UNL     1       8.363  22.566  53.669  1.00  0.00     0.003 A 
HETATM   15  C   UNL     1       7.922  23.480  52.715  1.00  0.00     0.001 A 
HETATM   16  C   UNL     1       7.359  24.693  53.118  1.00  0.00     0.020 A 
BRANCH  12  17
HETATM   17  O   UNL     1       7.599  24.261  56.794  1.00  0.00    -0.355 OA
HETATM   18  C   UNL     1       8.874  24.348  57.428  1.00  0.00     0.210 C 
ENDBRANCH  12  17
ENDBRANCH   8  11
ENDBRANCH   1   7
BRANCH   3  19
HETATM   19  C   UNL     1       6.384  30.915  58.438  1.00  0.00     0.087 C 
BRANCH  19  20
HETATM   20  C   UNL     1       7.695  31.600  58.821  1.00  0.00     0.048 C 
BRANCH  20  21
HETATM   21  C   UNL     1       8.010  31.445  60.278  1.00  0.00    -0.030 A 
HETATM   22  C   UNL     1       7.562  32.280  61.353  1.00  0.00    -0.002 A 
HETATM   23  C   UNL     1       8.068  31.745  62.538  1.00  0.00     0.042 A 
HETATM   24  C   UNL     1       6.758  33.437  61.430  1.00  0.00     0.014 A 
HETATM   25  C   UNL     1       7.809  32.303  63.795  1.00  0.00     0.030 A 
HETATM   26  N   UNL     1       8.809  30.638  62.197  1.00  0.00    -0.365 N 
HETATM   27  C   UNL     1       7.006  33.446  63.843  1.00  0.00     0.002 A 
HETATM   28  C   UNL     1       6.487  34.008  62.679  1.00  0.00     0.001 A 
HETATM   29  H   UNL     1       9.295  30.048  62.858  1.00  0.00     0.165 HD
HETATM   30  C   UNL     1       8.782  30.448  60.842  1.00  0.00     0.096 A 
ENDBRANCH  20  21
ENDBRANCH  19  20
ENDBRANCH   3  19
TORSDOF 6
ENDMDL
MODEL 10
REMARK VINA RESULT:      -8.8      7.421     10.820
REMARK  6 active torsions:
REMARK  status: ('A' for Active; 'I' for Inactive)
REMARK    1  A    between atoms: O_2  and  C_3 
REMARK    2  A    between atoms: C_4  and  C_5 
REMARK       I    between atoms: C_5  and  N_6 
REMARK    3  A    between atoms: N_6  and  C_7 
REMARK    4  A    between atoms: C_9  and  C_10 
REMARK    5  A    between atoms: C_10  and  C_11 
REMARK    6  A    between atoms: C_11  and  C_12 
ROOT
HETATM    1  C   UNL     1       4.430  27.119  50.266  1.00  0.00     0.725 A 
HETATM    2  N   UNL     1       5.007  25.948  50.368  1.00  0.00    -0.046 NA
HETATM    3  C   UNL     1       5.981  26.130  51.313  1.00  0.00     0.166 A 
HETATM    4  N   UNL     1       6.031  27.367  51.825  1.00  0.00    -0.144 NA
HETATM    5  N   UNL     1       5.049  27.974  51.138  1.00  0.00    -0.106 N 
HETATM    6  H   UNL     1       4.856  28.950  51.317  1.00  0.00     0.208 HD
ENDROOT
BRANCH   1   7
HETATM    7  N   UNL     1       3.395  27.517  49.455  1.00  0.00    -0.152 N 
HETATM    8  C   UNL     1       3.419  27.292  48.088  1.00  0.00     0.272 C 
HETATM    9  O   UNL     1       4.279  26.713  47.443  1.00  0.00    -0.267 OA
HETATM   10  H   UNL     1       2.621  28.020  49.861  1.00  0.00     0.187 HD
BRANCH   8  11
HETATM   11  C   UNL     1       2.241  27.850  47.374  1.00  0.00     0.066 A 
HETATM   12  C   UNL     1       2.102  29.227  47.151  1.00  0.00     0.084 A 
HETATM   13  C   UNL     1       1.012  29.706  46.418  1.00  0.00     0.038 A 
HETATM   14  C   UNL     1       0.042  28.825  45.938  1.00  0.00     0.003 A 
HETATM   15  C   UNL     1       0.169  27.456  46.166  1.00  0.00     0.001 A 
HETATM   16  C   UNL     1       1.269  26.965  46.874  1.00  0.00     0.020 A 
BRANCH  12  17
HETATM   17  O   UNL     1       3.016  30.168  47.544  1.00  0.00    -0.355 OA
HETATM   18  C   UNL     1       3.779  30.665  46.447  1.00  0.00     0.210 C 
ENDBRANCH  12  17
ENDBRANCH   8  11
ENDBRANCH   1   7
BRANCH   3  19
HETATM   19  C   UNL     1       6.874  25.017  51.728  1.00  0.00     0.087 C 
BRANCH  19  20
HETATM   20  C   UNL     1       7.824  25.382  52.868  1.00  0.00     0.048 C 
BRANCH  20  21
HETATM   21  C   UNL     1       7.694  24.448  54.033  1.00  0.00    -0.030 A 
HETATM   22  C   UNL     1       7.834  23.022  54.018  1.00  0.00    -0.002 A 
HETATM   23  C   UNL     1       7.667  22.572  55.328  1.00  0.00     0.042 A 
HETATM   24  C   UNL     1       8.103  22.071  53.012  1.00  0.00     0.014 A 
HETATM   25  C   UNL     1       7.758  21.221  55.685  1.00  0.00     0.030 A 
HETATM   26  N   UNL     1       7.418  23.677  56.107  1.00  0.00    -0.365 N 
HETATM   27  C   UNL     1       8.030  20.300  54.669  1.00  0.00     0.002 A 
HETATM   28  C   UNL     1       8.199  20.716  53.350  1.00  0.00     0.001 A 
HETATM   29  H   UNL     1       7.257  23.651  57.104  1.00  0.00     0.165 HD
HETATM   30  C   UNL     1       7.432  24.810  55.340  1.00  0.00     0.096 A 
ENDBRANCH  20  21
ENDBRANCH  19  20
ENDBRANCH   3  19
TORSDOF 6
ENDMDL
