MODEL 1
REMARK VINA RESULT:      -8.7      0.000      0.000
REMARK  3 active torsions:
REMARK  status: ('A' for Active; 'I' for Inactive)
REMARK    1  A    between atoms: O_2  and  C_3 
REMARK    2  A    between atoms: C_7  and  C_8 
REMARK    3  A    between atoms: C_19  and  N_20 
ROOT
HETATM    1  C   UNL     1       5.771  26.683  55.361  1.00  0.00     0.244 A 
HETATM    2  N   UNL     1       6.229  25.554  54.584  1.00  0.00    -0.151 N 
HETATM    3  C   UNL     1       5.655  25.258  53.373  1.00  0.00     0.734 A 
HETATM    4  N   UNL     1       6.209  24.174  52.878  1.00  0.00    -0.060 NA
HETATM    5  C   UNL     1       7.127  23.747  53.805  1.00  0.00     0.103 A 
HETATM    6  C   UNL     1       7.155  24.599  54.905  1.00  0.00     0.083 A 
HETATM    7  C   UNL     1       7.972  22.629  53.775  1.00  0.00     0.034 A 
HETATM    8  C   UNL     1       8.822  22.400  54.862  1.00  0.00     0.002 A 
HETATM    9  C   UNL     1       8.832  23.268  55.956  1.00  0.00     0.002 A 
HETATM   10  C   UNL     1       7.996  24.390  56.004  1.00  0.00     0.033 A 
HETATM   11  N   UNL     1       4.672  26.006  52.827  1.00  0.00    -0.033 NA
HETATM   12  C   UNL     1       4.225  27.021  53.473  1.00  0.00     0.193 A 
HETATM   13  N   UNL     1       4.687  27.429  54.729  1.00  0.00    -0.339 N 
HETATM   14  H   UNL     1       4.254  28.202  55.209  1.00  0.00     0.164 HD
ENDROOT
BRANCH   1  15
HETATM   15  C   UNL     1       6.874  27.686  55.646  1.00  0.00    -0.014 A 
HETATM   16  C   UNL     1       6.999  28.299  56.903  1.00  0.00     0.033 A 
HETATM   17  C   UNL     1       8.053  29.185  57.165  1.00  0.00     0.044 A 
HETATM   18  C   UNL     1       9.011  29.474  56.182  1.00  0.00     0.085 A 
HETATM   19 BR   UNL     1       8.139  29.958  58.898  1.00  0.00    -0.048 Br
HETATM   20  C   UNL     1       8.888  28.866  54.930  1.00  0.00     0.039 A 
HETATM   21  C   UNL     1       7.836  27.978  54.666  1.00  0.00     0.014 A 
BRANCH  18  22
HETATM   22  O   UNL     1      10.011  30.340  56.529  1.00  0.00    -0.355 OA
HETATM   23  C   UNL     1      11.225  29.795  57.030  1.00  0.00     0.210 C 
ENDBRANCH  18  22
ENDBRANCH   1  15
BRANCH  12  24
HETATM   24  N   UNL     1       3.240  27.813  53.003  1.00  0.00    -0.272 NA
HETATM   25  H   UNL     1       2.771  27.374  52.213  1.00  0.00     0.127 HD
HETATM   26  H   UNL     1       3.500  28.765  52.777  1.00  0.00     0.127 HD
ENDBRANCH  12  24
TORSDOF 3
ENDMDL
MODEL 2
REMARK VINA RESULT:      -8.4      1.715      2.262
REMARK  3 active torsions:
REMARK  status: ('A' for Active; 'I' for Inactive)
REMARK    1  A    between atoms: O_2  and  C_3 
REMARK    2  A    between atoms: C_7  and  C_8 
REMARK    3  A    between atoms: C_19  and  N_20 
ROOT
HETATM    1  C   UNL     1       5.360  25.770  54.261  1.00  0.00     0.244 A 
HETATM    2  N   UNL     1       6.387  24.900  53.735  1.00  0.00    -0.151 N 
HETATM    3  C   UNL     1       6.664  24.877  52.391  1.00  0.00     0.734 A 
HETATM    4  N   UNL     1       7.600  23.986  52.150  1.00  0.00    -0.060 NA
HETATM    5  C   UNL     1       7.900  23.402  53.356  1.00  0.00     0.103 A 
HETATM    6  C   UNL     1       7.137  23.954  54.380  1.00  0.00     0.083 A 
HETATM    7  C   UNL     1       8.815  22.381  53.649  1.00  0.00     0.034 A 
HETATM    8  C   UNL     1       8.932  21.944  54.973  1.00  0.00     0.002 A 
HETATM    9  C   UNL     1       8.155  22.513  55.984  1.00  0.00     0.002 A 
HETATM   10  C   UNL     1       7.236  23.533  55.711  1.00  0.00     0.033 A 
HETATM   11  N   UNL     1       6.035  25.674  51.500  1.00  0.00    -0.033 NA
HETATM   12  C   UNL     1       5.113  26.467  51.911  1.00  0.00     0.193 A 
HETATM   13  N   UNL     1       4.698  26.580  53.242  1.00  0.00    -0.339 N 
HETATM   14  H   UNL     1       3.929  27.180  53.492  1.00  0.00     0.164 HD
ENDROOT
BRANCH   1  15
HETATM   15  C   UNL     1       5.889  26.738  55.303  1.00  0.00    -0.014 A 
HETATM   16  C   UNL     1       7.108  27.413  55.124  1.00  0.00     0.033 A 
HETATM   17  C   UNL     1       7.557  28.341  56.072  1.00  0.00     0.044 A 
HETATM   18  C   UNL     1       6.799  28.625  57.218  1.00  0.00     0.085 A 
HETATM   19 BR   UNL     1       9.215  29.206  55.736  1.00  0.00    -0.048 Br
HETATM   20  C   UNL     1       5.586  27.953  57.399  1.00  0.00     0.039 A 
HETATM   21  C   UNL     1       5.134  27.025  56.451  1.00  0.00     0.014 A 
BRANCH  18  22
HETATM   22  O   UNL     1       7.309  29.552  58.084  1.00  0.00    -0.355 OA
HETATM   23  C   UNL     1       6.678  30.825  58.149  1.00  0.00     0.210 C 
ENDBRANCH  18  22
ENDBRANCH   1  15
BRANCH  12  24
HETATM   24  N   UNL     1       4.431  27.288  51.087  1.00  0.00    -0.272 NA
HETATM   25  H   UNL     1       5.061  27.946  50.632  1.00  0.00     0.127 HD
HETATM   26  H   UNL     1       3.641  27.774  51.492  1.00  0.00     0.127 HD
ENDBRANCH  12  24
TORSDOF 3
ENDMDL
MODEL 3
REMARK VINA RESULT:      -8.2      3.207      6.001
REMARK  3 active torsions:
REMARK  status: ('A' for Active; 'I' for Inactive)
REMARK    1  A    between atoms: O_2  and  C_3 
REMARK    2  A    between atoms: C_7  and  C_8 
REMARK    3  A    between atoms: C_19  and  N_20 
ROOT
HETATM    1  C   UNL     1       6.356  28.948  55.582  1.00  0.00     0.244 A 
HETATM    2  N   UNL     1       7.098  29.552  56.664  1.00  0.00    -0.151 N 
HETATM    3  C   UNL     1       6.446  30.158  57.708  1.00  0.00     0.734 A 
HETATM    4  N   UNL     1       7.326  30.664  58.543  1.00  0.00    -0.060 NA
HETATM    5  C   UNL     1       8.563  30.409  58.004  1.00  0.00     0.103 A 
HETATM    6  C   UNL     1       8.450  29.713  56.805  1.00  0.00     0.083 A 
HETATM    7  C   UNL     1       9.834  30.752  58.487  1.00  0.00     0.034 A 
HETATM    8  C   UNL     1      10.958  30.384  57.740  1.00  0.00     0.002 A 
HETATM    9  C   UNL     1      10.820  29.686  56.538  1.00  0.00     0.002 A 
HETATM   10  C   UNL     1       9.559  29.334  56.040  1.00  0.00     0.033 A 
HETATM   11  N   UNL     1       5.099  30.199  57.806  1.00  0.00    -0.033 NA
HETATM   12  C   UNL     1       4.388  29.678  56.872  1.00  0.00     0.193 A 
HETATM   13  N   UNL     1       4.907  29.054  55.733  1.00  0.00    -0.339 N 
HETATM   14  H   UNL     1       4.295  28.716  55.008  1.00  0.00     0.164 HD
ENDROOT
BRANCH   1  15
HETATM   15  C   UNL     1       6.663  27.471  55.410  1.00  0.00    -0.014 A 
HETATM   16  C   UNL     1       7.039  26.942  54.166  1.00  0.00     0.033 A 
HETATM   17  C   UNL     1       7.368  25.586  54.036  1.00  0.00     0.044 A 
HETATM   18  C   UNL     1       7.339  24.729  55.145  1.00  0.00     0.085 A 
HETATM   19 BR   UNL     1       7.870  24.966  52.311  1.00  0.00    -0.048 Br
HETATM   20  C   UNL     1       6.963  25.254  56.385  1.00  0.00     0.039 A 
HETATM   21  C   UNL     1       6.635  26.609  56.518  1.00  0.00     0.014 A 
BRANCH  18  22
HETATM   22  O   UNL     1       7.686  23.424  54.928  1.00  0.00    -0.355 OA
HETATM   23  C   UNL     1       8.947  22.978  55.411  1.00  0.00     0.210 C 
ENDBRANCH  18  22
ENDBRANCH   1  15
BRANCH  12  24
HETATM   24  N   UNL     1       3.040  29.683  56.889  1.00  0.00    -0.272 NA
HETATM   25  H   UNL     1       2.685  30.623  57.059  1.00  0.00     0.127 HD
HETATM   26  H   UNL     1       2.597  29.019  57.510  1.00  0.00     0.127 HD
ENDBRANCH  12  24
TORSDOF 3
ENDMDL
MODEL 4
REMARK VINA RESULT:      -8.2      3.473      5.825
REMARK  3 active torsions:
REMARK  status: ('A' for Active; 'I' for Inactive)
REMARK    1  A    between atoms: O_2  and  C_3 
REMARK    2  A    between atoms: C_7  and  C_8 
REMARK    3  A    between atoms: C_19  and  N_20 
ROOT
HETATM    1  C   UNL     1       7.493  25.981  53.161  1.00  0.00     0.244 A 
HETATM    2  N   UNL     1       6.798  27.001  53.912  1.00  0.00    -0.151 N 
HETATM    3  C   UNL     1       5.736  27.674  53.362  1.00  0.00     0.734 A 
HETATM    4  N   UNL     1       5.296  28.573  54.214  1.00  0.00    -0.060 NA
HETATM    5  C   UNL     1       6.114  28.499  55.314  1.00  0.00     0.103 A 
HETATM    6  C   UNL     1       7.085  27.516  55.147  1.00  0.00     0.083 A 
HETATM    7  C   UNL     1       6.089  29.251  56.497  1.00  0.00     0.034 A 
HETATM    8  C   UNL     1       7.050  28.990  57.479  1.00  0.00     0.002 A 
HETATM    9  C   UNL     1       8.015  27.999  57.289  1.00  0.00     0.002 A 
HETATM   10  C   UNL     1       8.056  27.237  56.115  1.00  0.00     0.033 A 
HETATM   11  N   UNL     1       5.263  27.409  52.125  1.00  0.00    -0.033 NA
HETATM   12  C   UNL     1       5.842  26.513  51.411  1.00  0.00     0.193 A 
HETATM   13  N   UNL     1       6.952  25.766  51.822  1.00  0.00    -0.339 N 
HETATM   14  H   UNL     1       7.396  25.118  51.193  1.00  0.00     0.164 HD
ENDROOT
BRANCH   1  15
HETATM   15  C   UNL     1       7.479  24.630  53.852  1.00  0.00    -0.014 A 
HETATM   16  C   UNL     1       7.819  23.453  53.166  1.00  0.00     0.033 A 
HETATM   17  C   UNL     1       7.849  22.221  53.832  1.00  0.00     0.044 A 
HETATM   18  C   UNL     1       7.549  22.134  55.200  1.00  0.00     0.085 A 
HETATM   19 BR   UNL     1       8.326  20.687  52.819  1.00  0.00    -0.048 Br
HETATM   20  C   UNL     1       7.209  23.305  55.884  1.00  0.00     0.039 A 
HETATM   21  C   UNL     1       7.180  24.538  55.221  1.00  0.00     0.014 A 
BRANCH  18  22
HETATM   22  O   UNL     1       7.615  20.893  55.771  1.00  0.00    -0.355 OA
HETATM   23  C   UNL     1       8.682  20.626  56.671  1.00  0.00     0.210 C 
ENDBRANCH  18  22
ENDBRANCH   1  15
BRANCH  12  24
HETATM   24  N   UNL     1       5.438  26.194  50.165  1.00  0.00    -0.272 NA
HETATM   25  H   UNL     1       4.448  25.956  50.157  1.00  0.00     0.127 HD
HETATM   26  H   UNL     1       5.979  25.484  49.687  1.00  0.00     0.127 HD
ENDBRANCH  12  24
TORSDOF 3
ENDMDL
MODEL 5
REMARK VINA RESULT:      -8.1      3.454      4.972
REMARK  3 active torsions:
REMARK  status: ('A' for Active; 'I' for Inactive)
REMARK    1  A    between atoms: O_2  and  C_3 
REMARK    2  A    between atoms: C_7  and  C_8 
REMARK    3  A    between atoms: C_19  and  N_20 
ROOT
HETATM    1  C   UNL     1       7.607  27.371  55.194  1.00  0.00     0.244 A 
HETATM    2  N   UNL     1       7.581  25.972  55.556  1.00  0.00    -0.151 N 
HETATM    3  C   UNL     1       7.617  25.588  56.872  1.00  0.00     0.734 A 
HETATM    4  N   UNL     1       7.623  24.276  56.948  1.00  0.00    -0.060 NA
HETATM    5  C   UNL     1       7.627  23.812  55.656  1.00  0.00     0.103 A 
HETATM    6  C   UNL     1       7.612  24.867  54.749  1.00  0.00     0.083 A 
HETATM    7  C   UNL     1       7.652  22.493  55.182  1.00  0.00     0.034 A 
HETATM    8  C   UNL     1       7.663  22.276  53.800  1.00  0.00     0.002 A 
HETATM    9  C   UNL     1       7.649  23.351  52.908  1.00  0.00     0.002 A 
HETATM   10  C   UNL     1       7.623  24.675  53.362  1.00  0.00     0.033 A 
HETATM   11  N   UNL     1       7.644  26.473  57.893  1.00  0.00    -0.033 NA
HETATM   12  C   UNL     1       7.670  27.730  57.631  1.00  0.00     0.193 A 
HETATM   13  N   UNL     1       7.669  28.272  56.341  1.00  0.00    -0.339 N 
HETATM   14  H   UNL     1       7.747  29.266  56.202  1.00  0.00     0.164 HD
ENDROOT
BRANCH   1  15
HETATM   15  C   UNL     1       6.396  27.790  54.382  1.00  0.00    -0.014 A 
HETATM   16  C   UNL     1       6.423  27.798  52.978  1.00  0.00     0.033 A 
HETATM   17  C   UNL     1       5.280  28.140  52.243  1.00  0.00     0.044 A 
HETATM   18  C   UNL     1       4.081  28.474  52.890  1.00  0.00     0.085 A 
HETATM   19 BR   UNL     1       5.415  28.114  50.348  1.00  0.00    -0.048 Br
HETATM   20  C   UNL     1       4.053  28.469  54.288  1.00  0.00     0.039 A 
HETATM   21  C   UNL     1       5.194  28.126  55.025  1.00  0.00     0.014 A 
BRANCH  18  22
HETATM   22  O   UNL     1       3.013  28.783  52.094  1.00  0.00    -0.355 OA
HETATM   23  C   UNL     1       2.778  30.153  51.791  1.00  0.00     0.210 C 
ENDBRANCH  18  22
ENDBRANCH   1  15
BRANCH  12  24
HETATM   24  N   UNL     1       7.706  28.677  58.589  1.00  0.00    -0.272 NA
HETATM   25  H   UNL     1       7.285  28.334  59.451  1.00  0.00     0.127 HD
HETATM   26  H   UNL     1       7.323  29.580  58.341  1.00  0.00     0.127 HD
ENDBRANCH  12  24
TORSDOF 3
ENDMDL
MODEL 6
REMARK VINA RESULT:      -7.8      3.463      6.040
REMARK  3 active torsions:
REMARK  status: ('A' for Active; 'I' for Inactive)
REMARK    1  A    between atoms: O_2  and  C_3 
REMARK    2  A    between atoms: C_7  and  C_8 
REMARK    3  A    between atoms: C_19  and  N_20 
ROOT
HETATM    1  C   UNL     1       6.194  25.557  55.214  1.00  0.00     0.244 A 
HETATM    2  N   UNL     1       6.174  26.593  54.207  1.00  0.00    -0.151 N 
HETATM    3  C   UNL     1       6.604  27.863  54.499  1.00  0.00     0.734 A 
HETATM    4  N   UNL     1       6.454  28.632  53.444  1.00  0.00    -0.060 NA
HETATM    5  C   UNL     1       5.883  27.850  52.470  1.00  0.00     0.103 A 
HETATM    6  C   UNL     1       5.683  26.552  52.929  1.00  0.00     0.083 A 
HETATM    7  C   UNL     1       5.500  28.188  51.165  1.00  0.00     0.034 A 
HETATM    8  C   UNL     1       4.921  27.203  50.359  1.00  0.00     0.002 A 
HETATM    9  C   UNL     1       4.729  25.906  50.841  1.00  0.00     0.002 A 
HETATM   10  C   UNL     1       5.105  25.550  52.142  1.00  0.00     0.033 A 
HETATM   11  N   UNL     1       7.095  28.209  55.709  1.00  0.00    -0.033 NA
HETATM   12  C   UNL     1       7.137  27.329  56.643  1.00  0.00     0.193 A 
HETATM   13  N   UNL     1       6.706  26.005  56.506  1.00  0.00    -0.339 N 
HETATM   14  H   UNL     1       6.712  25.378  57.294  1.00  0.00     0.164 HD
ENDROOT
BRANCH   1  15
HETATM   15  C   UNL     1       7.036  24.361  54.808  1.00  0.00    -0.014 A 
HETATM   16  C   UNL     1       7.207  23.262  55.666  1.00  0.00     0.033 A 
HETATM   17  C   UNL     1       7.946  22.145  55.257  1.00  0.00     0.044 A 
HETATM   18  C   UNL     1       8.524  22.092  53.980  1.00  0.00     0.085 A 
HETATM   19 BR   UNL     1       8.115  20.706  56.486  1.00  0.00    -0.048 Br
HETATM   20  C   UNL     1       8.356  23.185  53.125  1.00  0.00     0.039 A 
HETATM   21  C   UNL     1       7.617  24.304  53.532  1.00  0.00     0.014 A 
BRANCH  18  22
HETATM   22  O   UNL     1       9.218  20.957  53.661  1.00  0.00    -0.355 OA
HETATM   23  C   UNL     1       8.643  20.065  52.715  1.00  0.00     0.210 C 
ENDBRANCH  18  22
ENDBRANCH   1  15
BRANCH  12  24
HETATM   24  N   UNL     1       7.604  27.594  57.879  1.00  0.00    -0.272 NA
HETATM   25  H   UNL     1       8.476  28.119  57.830  1.00  0.00     0.127 HD
HETATM   26  H   UNL     1       7.701  26.801  58.501  1.00  0.00     0.127 HD
ENDBRANCH  12  24
TORSDOF 3
ENDMDL
MODEL 7
REMARK VINA RESULT:      -7.8      4.516      6.256
REMARK  3 active torsions:
REMARK  status: ('A' for Active; 'I' for Inactive)
REMARK    1  A    between atoms: O_2  and  C_3 
REMARK    2  A    between atoms: C_7  and  C_8 
REMARK    3  A    between atoms: C_19  and  N_20 
ROOT
HETATM    1  C   UNL     1       5.961  28.060  52.332  1.00  0.00     0.244 A 
HETATM    2  N   UNL     1       5.989  26.943  53.249  1.00  0.00    -0.151 N 
HETATM    3  C   UNL     1       5.338  27.011  54.455  1.00  0.00     0.734 A 
HETATM    4  N   UNL     1       5.538  25.898  55.126  1.00  0.00    -0.060 NA
HETATM    5  C   UNL     1       6.364  25.121  54.352  1.00  0.00     0.103 A 
HETATM    6  C   UNL     1       6.676  25.763  53.158  1.00  0.00     0.083 A 
HETATM    7  C   UNL     1       6.894  23.850  54.613  1.00  0.00     0.034 A 
HETATM    8  C   UNL     1       7.730  23.262  53.657  1.00  0.00     0.002 A 
HETATM    9  C   UNL     1       8.031  23.926  52.466  1.00  0.00     0.002 A 
HETATM   10  C   UNL     1       7.510  25.196  52.188  1.00  0.00     0.033 A 
HETATM   11  N   UNL     1       4.617  28.087  54.839  1.00  0.00    -0.033 NA
HETATM   12  C   UNL     1       4.557  29.109  54.064  1.00  0.00     0.193 A 
HETATM   13  N   UNL     1       5.192  29.201  52.821  1.00  0.00    -0.339 N 
HETATM   14  H   UNL     1       5.153  30.053  52.286  1.00  0.00     0.164 HD
ENDROOT
BRANCH   1  15
HETATM   15  C   UNL     1       5.377  27.694  50.980  1.00  0.00    -0.014 A 
HETATM   16  C   UNL     1       5.313  28.629  49.934  1.00  0.00     0.033 A 
HETATM   17  C   UNL     1       4.817  28.261  48.676  1.00  0.00     0.044 A 
HETATM   18  C   UNL     1       4.381  26.951  48.429  1.00  0.00     0.085 A 
HETATM   19 BR   UNL     1       4.777  29.595  47.324  1.00  0.00    -0.048 Br
HETATM   20  C   UNL     1       4.443  26.020  49.470  1.00  0.00     0.039 A 
HETATM   21  C   UNL     1       4.940  26.385  50.728  1.00  0.00     0.014 A 
BRANCH  18  22
HETATM   22  O   UNL     1       3.923  26.678  47.170  1.00  0.00    -0.355 OA
HETATM   23  C   UNL     1       2.729  25.916  47.043  1.00  0.00     0.210 C 
ENDBRANCH  18  22
ENDBRANCH   1  15
BRANCH  12  24
HETATM   24  N   UNL     1       3.867  30.225  54.375  1.00  0.00    -0.272 NA
HETATM   25  H   UNL     1       4.471  31.044  54.335  1.00  0.00     0.127 HD
HETATM   26  H   UNL     1       3.353  30.205  55.246  1.00  0.00     0.127 HD
ENDBRANCH  12  24
TORSDOF 3
ENDMDL
MODEL 8
REMARK VINA RESULT:      -7.7      2.798      5.373
REMARK  3 active torsions:
REMARK  status: ('A' for Active; 'I' for Inactive)
REMARK    1  A    between atoms: O_2  and  C_3 
REMARK    2  A    between atoms: C_7  and  C_8 
REMARK    3  A    between atoms: C_19  and  N_20 
ROOT
HETATM    1  C   UNL     1       7.117  26.341  52.861  1.00  0.00     0.244 A 
HETATM    2  N   UNL     1       6.288  27.053  53.806  1.00  0.00    -0.151 N 
HETATM    3  C   UNL     1       4.992  27.379  53.495  1.00  0.00     0.734 A 
HETATM    4  N   UNL     1       4.457  28.054  54.488  1.00  0.00    -0.060 NA
HETATM    5  C   UNL     1       5.440  28.193  55.437  1.00  0.00     0.103 A 
HETATM    6  C   UNL     1       6.618  27.577  55.027  1.00  0.00     0.083 A 
HETATM    7  C   UNL     1       5.396  28.845  56.677  1.00  0.00     0.034 A 
HETATM    8  C   UNL     1       6.549  28.858  57.469  1.00  0.00     0.002 A 
HETATM    9  C   UNL     1       7.721  28.234  57.036  1.00  0.00     0.002 A 
HETATM   10  C   UNL     1       7.784  27.578  55.801  1.00  0.00     0.033 A 
HETATM   11  N   UNL     1       4.410  27.033  52.325  1.00  0.00    -0.033 NA
HETATM   12  C   UNL     1       5.100  26.400  51.447  1.00  0.00     0.193 A 
HETATM   13  N   UNL     1       6.438  26.026  51.606  1.00  0.00    -0.339 N 
HETATM   14  H   UNL     1       6.940  25.580  50.856  1.00  0.00     0.164 HD
ENDROOT
BRANCH   1  15
HETATM   15  C   UNL     1       7.637  25.025  53.410  1.00  0.00    -0.014 A 
HETATM   16  C   UNL     1       7.804  24.824  54.790  1.00  0.00     0.033 A 
HETATM   17  C   UNL     1       8.238  23.587  55.284  1.00  0.00     0.044 A 
HETATM   18  C   UNL     1       8.508  22.519  54.415  1.00  0.00     0.085 A 
HETATM   19 BR   UNL     1       8.427  23.410  57.166  1.00  0.00    -0.048 Br
HETATM   20  C   UNL     1       8.344  22.718  53.041  1.00  0.00     0.039 A 
HETATM   21  C   UNL     1       7.909  23.954  52.544  1.00  0.00     0.014 A 
BRANCH  18  22
HETATM   22  O   UNL     1       8.916  21.345  54.985  1.00  0.00    -0.355 OA
HETATM   23  C   UNL     1       7.978  20.279  55.067  1.00  0.00     0.210 C 
ENDBRANCH  18  22
ENDBRANCH   1  15
BRANCH  12  24
HETATM   24  N   UNL     1       4.598  26.025  50.253  1.00  0.00    -0.272 NA
HETATM   25  H   UNL     1       4.103  25.139  50.332  1.00  0.00     0.127 HD
HETATM   26  H   UNL     1       5.252  25.999  49.481  1.00  0.00     0.127 HD
ENDBRANCH  12  24
TORSDOF 3
ENDMDL
MODEL 9
REMARK VINA RESULT:      -7.6      8.558     10.454
REMARK  3 active torsions:
REMARK  status: ('A' for Active; 'I' for Inactive)
REMARK    1  A    between atoms: O_2  and  C_3 
REMARK    2  A    between atoms: C_7  and  C_8 
REMARK    3  A    between atoms: C_19  and  N_20 
ROOT
HETATM    1  C   UNL     1       4.870  32.115  62.524  1.00  0.00     0.244 A 
HETATM    2  N   UNL     1       5.809  32.277  61.438  1.00  0.00    -0.151 N 
HETATM    3  C   UNL     1       5.396  32.754  60.219  1.00  0.00     0.734 A 
HETATM    4  N   UNL     1       6.413  32.775  59.387  1.00  0.00    -0.060 NA
HETATM    5  C   UNL     1       7.488  32.268  60.074  1.00  0.00     0.103 A 
HETATM    6  C   UNL     1       7.132  31.933  61.377  1.00  0.00     0.083 A 
HETATM    7  C   UNL     1       8.805  32.059  59.641  1.00  0.00     0.034 A 
HETATM    8  C   UNL     1       9.727  31.512  60.539  1.00  0.00     0.002 A 
HETATM    9  C   UNL     1       9.347  31.181  61.841  1.00  0.00     0.002 A 
HETATM   10  C   UNL     1       8.037  31.384  62.292  1.00  0.00     0.033 A 
HETATM   11  N   UNL     1       4.120  33.126  59.973  1.00  0.00    -0.033 NA
HETATM   12  C   UNL     1       3.242  33.004  60.902  1.00  0.00     0.193 A 
HETATM   13  N   UNL     1       3.505  32.505  62.182  1.00  0.00    -0.339 N 
HETATM   14  H   UNL     1       2.760  32.380  62.848  1.00  0.00     0.164 HD
ENDROOT
BRANCH   1  15
HETATM   15  C   UNL     1       5.251  32.917  63.754  1.00  0.00    -0.014 A 
HETATM   16  C   UNL     1       4.297  33.654  64.472  1.00  0.00     0.033 A 
HETATM   17  C   UNL     1       4.656  34.349  65.635  1.00  0.00     0.044 A 
HETATM   18  C   UNL     1       5.974  34.317  66.114  1.00  0.00     0.085 A 
HETATM   19 BR   UNL     1       3.291  35.312  66.539  1.00  0.00    -0.048 Br
HETATM   20  C   UNL     1       6.927  33.584  65.400  1.00  0.00     0.039 A 
HETATM   21  C   UNL     1       6.569  32.888  64.237  1.00  0.00     0.014 A 
BRANCH  18  22
HETATM   22  O   UNL     1       6.232  35.014  67.262  1.00  0.00    -0.355 OA
HETATM   23  C   UNL     1       6.515  34.276  68.444  1.00  0.00     0.210 C 
ENDBRANCH  18  22
ENDBRANCH   1  15
BRANCH  12  24
HETATM   24  N   UNL     1       1.948  33.344  60.735  1.00  0.00    -0.272 NA
HETATM   25  H   UNL     1       1.778  33.659  59.782  1.00  0.00     0.127 HD
HETATM   26  H   UNL     1       1.570  34.006  61.401  1.00  0.00     0.127 HD
ENDBRANCH  12  24
TORSDOF 3
ENDMDL
MODEL 10
REMARK VINA RESULT:      -7.5     10.342     13.507
REMARK  3 active torsions:
REMARK  status: ('A' for Active; 'I' for Inactive)
REMARK    1  A    between atoms: O_2  and  C_3 
REMARK    2  A    between atoms: C_7  and  C_8 
REMARK    3  A    between atoms: C_19  and  N_20 
ROOT
HETATM    1  C   UNL     1       4.648  34.543  64.345  1.00  0.00     0.244 A 
HETATM    2  N   UNL     1       4.972  35.944  64.492  1.00  0.00    -0.151 N 
HETATM    3  C   UNL     1       4.946  36.543  65.726  1.00  0.00     0.734 A 
HETATM    4  N   UNL     1       5.236  37.819  65.602  1.00  0.00    -0.060 NA
HETATM    5  C   UNL     1       5.414  38.048  64.260  1.00  0.00     0.103 A 
HETATM    6  C   UNL     1       5.242  36.878  63.528  1.00  0.00     0.083 A 
HETATM    7  C   UNL     1       5.719  39.242  63.592  1.00  0.00     0.034 A 
HETATM    8  C   UNL     1       5.840  39.220  62.199  1.00  0.00     0.002 A 
HETATM    9  C   UNL     1       5.661  38.033  61.485  1.00  0.00     0.002 A 
HETATM   10  C   UNL     1       5.356  36.831  62.134  1.00  0.00     0.033 A 
HETATM   11  N   UNL     1       4.657  35.870  66.862  1.00  0.00    -0.033 NA
HETATM   12  C   UNL     1       4.361  34.623  66.791  1.00  0.00     0.193 A 
HETATM   13  N   UNL     1       4.314  33.883  65.604  1.00  0.00    -0.339 N 
HETATM   14  H   UNL     1       4.019  32.921  65.610  1.00  0.00     0.164 HD
ENDROOT
BRANCH   1  15
HETATM   15  C   UNL     1       5.777  33.742  63.725  1.00  0.00    -0.014 A 
HETATM   16  C   UNL     1       5.740  33.346  62.378  1.00  0.00     0.033 A 
HETATM   17  C   UNL     1       6.814  32.649  61.809  1.00  0.00     0.044 A 
HETATM   18  C   UNL     1       7.953  32.338  62.565  1.00  0.00     0.085 A 
HETATM   19 BR   UNL     1       6.671  32.163  59.978  1.00  0.00    -0.048 Br
HETATM   20  C   UNL     1       7.992  32.730  63.906  1.00  0.00     0.039 A 
HETATM   21  C   UNL     1       6.920  33.428  64.479  1.00  0.00     0.014 A 
BRANCH  18  22
HETATM   22  O   UNL     1       8.957  31.666  61.924  1.00  0.00    -0.355 OA
HETATM   23  C   UNL     1       9.132  30.286  62.217  1.00  0.00     0.210 C 
ENDBRANCH  18  22
ENDBRANCH   1  15
BRANCH  12  24
HETATM   24  N   UNL     1       4.052  33.881  67.874  1.00  0.00    -0.272 NA
HETATM   25  H   UNL     1       3.187  34.209  68.300  1.00  0.00     0.127 HD
HETATM   26  H   UNL     1       4.778  33.784  68.572  1.00  0.00     0.127 HD
ENDBRANCH  12  24
TORSDOF 3
ENDMDL
