MODEL 1
REMARK VINA RESULT:      -9.8      0.000      0.000
REMARK  3 active torsions:
REMARK  status: ('A' for Active; 'I' for Inactive)
REMARK    1  A    between atoms: O_2  and  C_3 
REMARK    2  A    between atoms: C_4  and  N_5 
REMARK       I    between atoms: N_5  and  C_6 
REMARK       I    between atoms: C_6  and  N_7 
REMARK    3  A    between atoms: C_10  and  C_11 
ROOT
HETATM    1  N   UNL     1       3.858  27.527  50.637  1.00  0.00    -0.306 N 
HETATM    2  C   UNL     1       4.855  27.929  51.492  1.00  0.00     0.323 C 
HETATM    3  N   UNL     1       5.398  26.919  52.292  1.00  0.00    -0.330 N 
HETATM    4  C   UNL     1       6.693  27.248  52.882  1.00  0.00     0.155 C 
HETATM    5  C   UNL     1       7.291  26.153  53.707  1.00  0.00     0.001 C 
HETATM    6  C   UNL     1       6.672  25.010  54.047  1.00  0.00    -0.046 C 
HETATM    7  C   UNL     1       5.267  24.772  53.576  1.00  0.00     0.059 C 
HETATM    8  C   UNL     1       4.986  25.512  52.267  1.00  0.00     0.132 C 
HETATM    9  O   UNL     1       5.285  29.079  51.554  1.00  0.00    -0.247 OA
HETATM   10  H   UNL     1       3.739  26.538  50.477  1.00  0.00     0.171 HD
ENDROOT
BRANCH   1  11
HETATM   11  C   UNL     1       3.110  28.316  49.731  1.00  0.00     0.072 A 
HETATM   12  C   UNL     1       3.457  28.209  48.363  1.00  0.00     0.095 A 
HETATM   13  C   UNL     1       2.766  28.963  47.407  1.00  0.00     0.042 A 
HETATM   14  C   UNL     1       1.739  29.819  47.807  1.00  0.00     0.045 A 
HETATM   15  C   UNL     1       1.405  29.912  49.152  1.00  0.00     0.118 A 
HETATM   16  C   UNL     1       2.075  29.169  50.117  1.00  0.00     0.074 A 
HETATM   17  F   UNL     1       0.413  30.735  49.523  1.00  0.00    -0.206 F 
BRANCH  12  18
HETATM   18  O   UNL     1       4.486  27.340  48.082  1.00  0.00    -0.354 OA
HETATM   19  C   UNL     1       5.561  27.843  47.297  1.00  0.00     0.210 C 
ENDBRANCH  12  18
ENDBRANCH   1  11
BRANCH   6  20
HETATM   20  C   UNL     1       7.290  23.945  54.783  1.00  0.00    -0.002 A 
HETATM   21  C   UNL     1       7.731  22.659  54.329  1.00  0.00     0.003 A 
HETATM   22  C   UNL     1       8.295  22.007  55.430  1.00  0.00     0.043 A 
HETATM   23  C   UNL     1       7.709  21.969  53.096  1.00  0.00     0.014 A 
HETATM   24  C   UNL     1       8.847  20.722  55.358  1.00  0.00     0.030 A 
HETATM   25  N   UNL     1       8.182  22.854  56.508  1.00  0.00    -0.364 N 
HETATM   26  C   UNL     1       8.821  20.072  54.121  1.00  0.00     0.002 A 
HETATM   27  C   UNL     1       8.259  20.683  53.005  1.00  0.00     0.001 A 
HETATM   28  H   UNL     1       8.503  22.638  57.441  1.00  0.00     0.165 HD
HETATM   29  C   UNL     1       7.579  24.022  56.131  1.00  0.00     0.101 A 
ENDBRANCH   6  20
TORSDOF 3
ENDMDL
MODEL 2
REMARK VINA RESULT:      -9.5      7.515      9.649
REMARK  3 active torsions:
REMARK  status: ('A' for Active; 'I' for Inactive)
REMARK    1  A    between atoms: O_2  and  C_3 
REMARK    2  A    between atoms: C_4  and  N_5 
REMARK       I    between atoms: N_5  and  C_6 
REMARK       I    between atoms: C_6  and  N_7 
REMARK    3  A    between atoms: C_10  and  C_11 
ROOT
HETATM    1  N   UNL     1       6.925  31.170  59.923  1.00  0.00    -0.306 N 
HETATM    2  C   UNL     1       8.056  30.556  59.444  1.00  0.00     0.323 C 
HETATM    3  N   UNL     1       7.850  29.682  58.371  1.00  0.00    -0.330 N 
HETATM    4  C   UNL     1       9.059  29.357  57.619  1.00  0.00     0.155 C 
HETATM    5  C   UNL     1       8.833  28.453  56.450  1.00  0.00     0.001 C 
HETATM    6  C   UNL     1       7.678  27.832  56.159  1.00  0.00    -0.046 C 
HETATM    7  C   UNL     1       6.492  28.041  57.054  1.00  0.00     0.059 C 
HETATM    8  C   UNL     1       6.552  29.402  57.750  1.00  0.00     0.132 C 
HETATM    9  O   UNL     1       9.187  30.758  59.882  1.00  0.00    -0.247 OA
HETATM   10  H   UNL     1       6.090  31.137  59.358  1.00  0.00     0.171 HD
ENDROOT
BRANCH   1  11
HETATM   11  C   UNL     1       6.813  32.078  61.003  1.00  0.00     0.072 A 
HETATM   12  C   UNL     1       5.843  33.102  60.872  1.00  0.00     0.095 A 
HETATM   13  C   UNL     1       5.678  34.041  61.896  1.00  0.00     0.042 A 
HETATM   14  C   UNL     1       6.469  33.967  63.042  1.00  0.00     0.045 A 
HETATM   15  C   UNL     1       7.415  32.955  63.161  1.00  0.00     0.118 A 
HETATM   16  C   UNL     1       7.592  32.010  62.158  1.00  0.00     0.074 A 
HETATM   17  F   UNL     1       8.166  32.892  64.270  1.00  0.00    -0.206 F 
BRANCH  12  18
HETATM   18  O   UNL     1       5.122  33.083  59.699  1.00  0.00    -0.354 OA
HETATM   19  C   UNL     1       3.710  32.944  59.812  1.00  0.00     0.210 C 
ENDBRANCH  12  18
ENDBRANCH   1  11
BRANCH   6  20
HETATM   20  C   UNL     1       7.466  27.022  54.994  1.00  0.00    -0.002 A 
HETATM   21  C   UNL     1       7.506  25.596  54.854  1.00  0.00     0.003 A 
HETATM   22  C   UNL     1       7.197  25.307  53.521  1.00  0.00     0.043 A 
HETATM   23  C   UNL     1       7.777  24.512  55.718  1.00  0.00     0.014 A 
HETATM   24  C   UNL     1       7.130  24.001  53.018  1.00  0.00     0.030 A 
HETATM   25  N   UNL     1       6.999  26.506  52.879  1.00  0.00    -0.364 N 
HETATM   26  C   UNL     1       7.391  22.950  53.901  1.00  0.00     0.002 A 
HETATM   27  C   UNL     1       7.713  23.199  55.232  1.00  0.00     0.001 A 
HETATM   28  H   UNL     1       6.767  26.599  51.900  1.00  0.00     0.165 HD
HETATM   29  C   UNL     1       7.157  27.545  53.754  1.00  0.00     0.101 A 
ENDBRANCH   6  20
TORSDOF 3
ENDMDL
MODEL 3
REMARK VINA RESULT:      -9.4      5.580      7.538
REMARK  3 active torsions:
REMARK  status: ('A' for Active; 'I' for Inactive)
REMARK    1  A    between atoms: O_2  and  C_3 
REMARK    2  A    between atoms: C_4  and  N_5 
REMARK       I    between atoms: N_5  and  C_6 
REMARK       I    between atoms: C_6  and  N_7 
REMARK    3  A    between atoms: C_10  and  C_11 
ROOT
HETATM    1  N   UNL     1       6.969  29.200  58.149  1.00  0.00    -0.306 N 
HETATM    2  C   UNL     1       7.167  28.777  56.858  1.00  0.00     0.323 C 
HETATM    3  N   UNL     1       7.444  27.414  56.712  1.00  0.00    -0.330 N 
HETATM    4  C   UNL     1       7.252  26.901  55.359  1.00  0.00     0.155 C 
HETATM    5  C   UNL     1       7.511  25.436  55.212  1.00  0.00     0.001 C 
HETATM    6  C   UNL     1       8.033  24.640  56.160  1.00  0.00    -0.046 C 
HETATM    7  C   UNL     1       8.392  25.231  57.492  1.00  0.00     0.059 C 
HETATM    8  C   UNL     1       7.525  26.449  57.813  1.00  0.00     0.132 C 
HETATM    9  O   UNL     1       7.083  29.510  55.874  1.00  0.00    -0.247 OA
HETATM   10  H   UNL     1       6.814  28.501  58.860  1.00  0.00     0.171 HD
ENDROOT
BRANCH   1  11
HETATM   11  C   UNL     1       6.697  30.510  58.610  1.00  0.00     0.072 A 
HETATM   12  C   UNL     1       7.555  31.019  59.614  1.00  0.00     0.095 A 
HETATM   13  C   UNL     1       7.345  32.306  60.124  1.00  0.00     0.042 A 
HETATM   14  C   UNL     1       6.291  33.082  59.642  1.00  0.00     0.045 A 
HETATM   15  C   UNL     1       5.458  32.573  58.653  1.00  0.00     0.118 A 
HETATM   16  C   UNL     1       5.651  31.299  58.130  1.00  0.00     0.074 A 
HETATM   17  F   UNL     1       4.451  33.329  58.196  1.00  0.00    -0.206 F 
BRANCH  12  18
HETATM   18  O   UNL     1       8.558  30.168  60.018  1.00  0.00    -0.354 OA
HETATM   19  C   UNL     1       9.233  30.494  61.228  1.00  0.00     0.210 C 
ENDBRANCH  12  18
ENDBRANCH   1  11
BRANCH   6  20
HETATM   20  C   UNL     1       8.211  23.224  56.019  1.00  0.00    -0.002 A 
HETATM   21  C   UNL     1       8.236  22.422  54.831  1.00  0.00     0.003 A 
HETATM   22  C   UNL     1       8.473  21.103  55.232  1.00  0.00     0.043 A 
HETATM   23  C   UNL     1       8.078  22.671  53.450  1.00  0.00     0.014 A 
HETATM   24  C   UNL     1       8.575  20.036  54.330  1.00  0.00     0.030 A 
HETATM   25  N   UNL     1       8.566  21.104  56.604  1.00  0.00    -0.364 N 
HETATM   26  C   UNL     1       8.427  20.319  52.970  1.00  0.00     0.002 A 
HETATM   27  C   UNL     1       8.179  21.616  52.533  1.00  0.00     0.001 A 
HETATM   28  H   UNL     1       8.729  20.282  57.167  1.00  0.00     0.165 HD
HETATM   29  C   UNL     1       8.411  22.374  57.088  1.00  0.00     0.101 A 
ENDBRANCH   6  20
TORSDOF 3
ENDMDL
MODEL 4
REMARK VINA RESULT:      -9.3      2.261      2.877
REMARK  3 active torsions:
REMARK  status: ('A' for Active; 'I' for Inactive)
REMARK    1  A    between atoms: O_2  and  C_3 
REMARK    2  A    between atoms: C_4  and  N_5 
REMARK       I    between atoms: N_5  and  C_6 
REMARK       I    between atoms: C_6  and  N_7 
REMARK    3  A    between atoms: C_10  and  C_11 
ROOT
HETATM    1  N   UNL     1       5.485  29.233  51.065  1.00  0.00    -0.306 N 
HETATM    2  C   UNL     1       5.303  27.920  50.707  1.00  0.00     0.323 C 
HETATM    3  N   UNL     1       5.786  26.980  51.623  1.00  0.00    -0.330 N 
HETATM    4  C   UNL     1       5.245  25.635  51.448  1.00  0.00     0.155 C 
HETATM    5  C   UNL     1       5.732  24.639  52.451  1.00  0.00     0.001 C 
HETATM    6  C   UNL     1       6.702  24.857  53.355  1.00  0.00    -0.046 C 
HETATM    7  C   UNL     1       7.373  26.198  53.396  1.00  0.00     0.059 C 
HETATM    8  C   UNL     1       6.441  27.303  52.894  1.00  0.00     0.132 C 
HETATM    9  O   UNL     1       4.735  27.560  49.677  1.00  0.00    -0.247 OA
HETATM   10  H   UNL     1       5.734  29.435  52.021  1.00  0.00     0.171 HD
ENDROOT
BRANCH   1  11
HETATM   11  C   UNL     1       5.127  30.395  50.341  1.00  0.00     0.072 A 
HETATM   12  C   UNL     1       3.775  30.804  50.426  1.00  0.00     0.095 A 
HETATM   13  C   UNL     1       3.344  31.941  49.733  1.00  0.00     0.042 A 
HETATM   14  C   UNL     1       4.249  32.668  48.959  1.00  0.00     0.045 A 
HETATM   15  C   UNL     1       5.575  32.260  48.887  1.00  0.00     0.118 A 
HETATM   16  C   UNL     1       6.024  31.136  49.571  1.00  0.00     0.074 A 
HETATM   17  F   UNL     1       6.436  32.969  48.144  1.00  0.00    -0.206 F 
BRANCH  12  18
HETATM   18  O   UNL     1       2.969  30.012  51.213  1.00  0.00    -0.354 OA
HETATM   19  C   UNL     1       1.856  29.392  50.579  1.00  0.00     0.210 C 
ENDBRANCH  12  18
ENDBRANCH   1  11
BRANCH   6  20
HETATM   20  C   UNL     1       7.106  23.907  54.351  1.00  0.00    -0.002 A 
HETATM   21  C   UNL     1       7.632  22.583  54.190  1.00  0.00     0.003 A 
HETATM   22  C   UNL     1       7.898  22.090  55.471  1.00  0.00     0.043 A 
HETATM   23  C   UNL     1       7.908  21.742  53.090  1.00  0.00     0.014 A 
HETATM   24  C   UNL     1       8.436  20.817  55.704  1.00  0.00     0.030 A 
HETATM   25  N   UNL     1       7.531  23.065  56.369  1.00  0.00    -0.364 N 
HETATM   26  C   UNL     1       8.710  20.015  54.594  1.00  0.00     0.002 A 
HETATM   27  C   UNL     1       8.448  20.467  53.304  1.00  0.00     0.001 A 
HETATM   28  H   UNL     1       7.608  22.977  57.372  1.00  0.00     0.165 HD
HETATM   29  C   UNL     1       7.054  24.162  55.707  1.00  0.00     0.101 A 
ENDBRANCH   6  20
TORSDOF 3
ENDMDL
MODEL 5
REMARK VINA RESULT:      -9.0      7.335      9.789
REMARK  3 active torsions:
REMARK  status: ('A' for Active; 'I' for Inactive)
REMARK    1  A    between atoms: O_2  and  C_3 
REMARK    2  A    between atoms: C_4  and  N_5 
REMARK       I    between atoms: N_5  and  C_6 
REMARK       I    between atoms: C_6  and  N_7 
REMARK    3  A    between atoms: C_10  and  C_11 
ROOT
HETATM    1  N   UNL     1       7.216  31.062  60.084  1.00  0.00    -0.306 N 
HETATM    2  C   UNL     1       6.856  31.325  58.786  1.00  0.00     0.323 C 
HETATM    3  N   UNL     1       7.050  30.270  57.888  1.00  0.00    -0.330 N 
HETATM    4  C   UNL     1       6.310  30.401  56.635  1.00  0.00     0.155 C 
HETATM    5  C   UNL     1       6.488  29.254  55.692  1.00  0.00     0.001 C 
HETATM    6  C   UNL     1       7.360  28.245  55.851  1.00  0.00    -0.046 C 
HETATM    7  C   UNL     1       8.242  28.227  57.065  1.00  0.00     0.059 C 
HETATM    8  C   UNL     1       7.586  28.952  58.241  1.00  0.00     0.132 C 
HETATM    9  O   UNL     1       6.367  32.389  58.409  1.00  0.00    -0.247 OA
HETATM   10  H   UNL     1       7.373  30.102  60.349  1.00  0.00     0.171 HD
ENDROOT
BRANCH   1  11
HETATM   11  C   UNL     1       7.158  31.929  61.201  1.00  0.00     0.072 A 
HETATM   12  C   UNL     1       7.850  31.512  62.364  1.00  0.00     0.095 A 
HETATM   13  C   UNL     1       7.835  32.314  63.511  1.00  0.00     0.042 A 
HETATM   14  C   UNL     1       7.136  33.521  63.506  1.00  0.00     0.045 A 
HETATM   15  C   UNL     1       6.464  33.922  62.358  1.00  0.00     0.118 A 
HETATM   16  C   UNL     1       6.471  33.143  61.206  1.00  0.00     0.074 A 
HETATM   17  F   UNL     1       5.800  35.087  62.364  1.00  0.00    -0.206 F 
BRANCH  12  18
HETATM   18  O   UNL     1       8.501  30.303  62.259  1.00  0.00    -0.354 OA
HETATM   19  C   UNL     1       9.902  30.343  62.013  1.00  0.00     0.210 C 
ENDBRANCH  12  18
ENDBRANCH   1  11
BRANCH   6  20
HETATM   20  C   UNL     1       7.466  27.121  54.966  1.00  0.00    -0.002 A 
HETATM   21  C   UNL     1       7.480  25.720  55.268  1.00  0.00     0.003 A 
HETATM   22  C   UNL     1       7.566  25.039  54.050  1.00  0.00     0.043 A 
HETATM   23  C   UNL     1       7.435  24.949  56.451  1.00  0.00     0.014 A 
HETATM   24  C   UNL     1       7.591  23.641  53.955  1.00  0.00     0.030 A 
HETATM   25  N   UNL     1       7.620  25.987  53.055  1.00  0.00    -0.364 N 
HETATM   26  C   UNL     1       7.532  22.908  55.144  1.00  0.00     0.002 A 
HETATM   27  C   UNL     1       7.458  23.550  56.376  1.00  0.00     0.001 A 
HETATM   28  H   UNL     1       7.692  25.778  52.070  1.00  0.00     0.165 HD
HETATM   29  C   UNL     1       7.561  27.242  53.594  1.00  0.00     0.101 A 
ENDBRANCH   6  20
TORSDOF 3
ENDMDL
MODEL 6
REMARK VINA RESULT:      -9.0      6.286      8.481
REMARK  3 active torsions:
REMARK  status: ('A' for Active; 'I' for Inactive)
REMARK    1  A    between atoms: O_2  and  C_3 
REMARK    2  A    between atoms: C_4  and  N_5 
REMARK       I    between atoms: N_5  and  C_6 
REMARK       I    between atoms: C_6  and  N_7 
REMARK    3  A    between atoms: C_10  and  C_11 
ROOT
HETATM    1  N   UNL     1       6.646  30.585  58.549  1.00  0.00    -0.306 N 
HETATM    2  C   UNL     1       5.668  30.012  57.774  1.00  0.00     0.323 C 
HETATM    3  N   UNL     1       6.115  29.044  56.868  1.00  0.00    -0.330 N 
HETATM    4  C   UNL     1       5.065  28.169  56.354  1.00  0.00     0.155 C 
HETATM    5  C   UNL     1       5.550  27.111  55.415  1.00  0.00     0.001 C 
HETATM    6  C   UNL     1       6.796  27.021  54.922  1.00  0.00    -0.046 C 
HETATM    7  C   UNL     1       7.817  28.044  55.328  1.00  0.00     0.059 C 
HETATM    8  C   UNL     1       7.509  28.620  56.711  1.00  0.00     0.132 C 
HETATM    9  O   UNL     1       4.471  30.283  57.864  1.00  0.00    -0.247 OA
HETATM   10  H   UNL     1       7.549  30.137  58.584  1.00  0.00     0.171 HD
ENDROOT
BRANCH   1  11
HETATM   11  C   UNL     1       6.506  31.597  59.528  1.00  0.00     0.072 A 
HETATM   12  C   UNL     1       7.504  31.652  60.530  1.00  0.00     0.095 A 
HETATM   13  C   UNL     1       7.431  32.623  61.535  1.00  0.00     0.042 A 
HETATM   14  C   UNL     1       6.374  33.533  61.548  1.00  0.00     0.045 A 
HETATM   15  C   UNL     1       5.402  33.472  60.557  1.00  0.00     0.118 A 
HETATM   16  C   UNL     1       5.458  32.519  59.546  1.00  0.00     0.074 A 
HETATM   17  F   UNL     1       4.393  34.354  60.577  1.00  0.00    -0.206 F 
BRANCH  12  18
HETATM   18  O   UNL     1       8.498  30.705  60.423  1.00  0.00    -0.354 OA
HETATM   19  C   UNL     1       9.295  30.473  61.579  1.00  0.00     0.210 C 
ENDBRANCH  12  18
ENDBRANCH   1  11
BRANCH   6  20
HETATM   20  C   UNL     1       7.256  25.958  54.075  1.00  0.00    -0.002 A 
HETATM   21  C   UNL     1       7.419  24.564  54.368  1.00  0.00     0.003 A 
HETATM   22  C   UNL     1       7.862  23.948  53.194  1.00  0.00     0.043 A 
HETATM   23  C   UNL     1       7.244  23.753  55.511  1.00  0.00     0.014 A 
HETATM   24  C   UNL     1       8.120  22.574  53.101  1.00  0.00     0.030 A 
HETATM   25  N   UNL     1       7.980  24.929  52.238  1.00  0.00    -0.364 N 
HETATM   26  C   UNL     1       7.924  21.798  54.246  1.00  0.00     0.002 A 
HETATM   27  C   UNL     1       7.495  22.376  55.437  1.00  0.00     0.001 A 
HETATM   28  H   UNL     1       8.289  24.770  51.289  1.00  0.00     0.165 HD
HETATM   29  C   UNL     1       7.618  26.142  52.756  1.00  0.00     0.101 A 
ENDBRANCH   6  20
TORSDOF 3
ENDMDL
MODEL 7
REMARK VINA RESULT:      -9.0      7.699     10.171
REMARK  3 active torsions:
REMARK  status: ('A' for Active; 'I' for Inactive)
REMARK    1  A    between atoms: O_2  and  C_3 
REMARK    2  A    between atoms: C_4  and  N_5 
REMARK       I    between atoms: N_5  and  C_6 
REMARK       I    between atoms: C_6  and  N_7 
REMARK    3  A    between atoms: C_10  and  C_11 
ROOT
HETATM    1  N   UNL     1       7.174  27.572  56.059  1.00  0.00    -0.306 N 
HETATM    2  C   UNL     1       8.130  28.252  56.772  1.00  0.00     0.323 C 
HETATM    3  N   UNL     1       7.645  29.277  57.591  1.00  0.00    -0.330 N 
HETATM    4  C   UNL     1       8.579  29.712  58.627  1.00  0.00     0.155 C 
HETATM    5  C   UNL     1       8.046  30.781  59.527  1.00  0.00     0.001 C 
HETATM    6  C   UNL     1       6.887  31.438  59.352  1.00  0.00    -0.046 C 
HETATM    7  C   UNL     1       6.025  31.095  58.173  1.00  0.00     0.059 C 
HETATM    8  C   UNL     1       6.234  29.646  57.732  1.00  0.00     0.132 C 
HETATM    9  O   UNL     1       9.331  27.987  56.740  1.00  0.00    -0.247 OA
HETATM   10  H   UNL     1       6.208  27.688  56.326  1.00  0.00     0.171 HD
ENDROOT
BRANCH   1  11
HETATM   11  C   UNL     1       7.357  26.512  55.139  1.00  0.00     0.072 A 
HETATM   12  C   UNL     1       7.310  26.850  53.765  1.00  0.00     0.095 A 
HETATM   13  C   UNL     1       7.478  25.855  52.795  1.00  0.00     0.042 A 
HETATM   14  C   UNL     1       7.688  24.532  53.185  1.00  0.00     0.045 A 
HETATM   15  C   UNL     1       7.736  24.213  54.537  1.00  0.00     0.118 A 
HETATM   16  C   UNL     1       7.577  25.187  55.516  1.00  0.00     0.074 A 
HETATM   17  F   UNL     1       7.943  22.939  54.899  1.00  0.00    -0.206 F 
BRANCH  12  18
HETATM   18  O   UNL     1       7.093  28.182  53.494  1.00  0.00    -0.354 OA
HETATM   19  C   UNL     1       5.973  28.501  52.676  1.00  0.00     0.210 C 
ENDBRANCH  12  18
ENDBRANCH   1  11
BRANCH   6  20
HETATM   20  C   UNL     1       6.365  32.413  60.266  1.00  0.00    -0.002 A 
HETATM   21  C   UNL     1       6.786  32.731  61.599  1.00  0.00     0.003 A 
HETATM   22  C   UNL     1       5.974  33.778  62.045  1.00  0.00     0.043 A 
HETATM   23  C   UNL     1       7.770  32.238  62.484  1.00  0.00     0.014 A 
HETATM   24  C   UNL     1       6.106  34.362  63.312  1.00  0.00     0.030 A 
HETATM   25  N   UNL     1       5.088  34.067  61.035  1.00  0.00    -0.364 N 
HETATM   26  C   UNL     1       7.099  33.860  64.158  1.00  0.00     0.002 A 
HETATM   27  C   UNL     1       7.919  32.811  63.754  1.00  0.00     0.001 A 
HETATM   28  H   UNL     1       4.376  34.782  61.085  1.00  0.00     0.165 HD
HETATM   29  C   UNL     1       5.313  33.253  59.959  1.00  0.00     0.101 A 
ENDBRANCH   6  20
TORSDOF 3
ENDMDL
MODEL 8
REMARK VINA RESULT:      -8.7      6.484      8.669
REMARK  3 active torsions:
REMARK  status: ('A' for Active; 'I' for Inactive)
REMARK    1  A    between atoms: O_2  and  C_3 
REMARK    2  A    between atoms: C_4  and  N_5 
REMARK       I    between atoms: N_5  and  C_6 
REMARK       I    between atoms: C_6  and  N_7 
REMARK    3  A    between atoms: C_10  and  C_11 
ROOT
HETATM    1  N   UNL     1       6.315  27.728  54.641  1.00  0.00    -0.306 N 
HETATM    2  C   UNL     1       7.500  28.385  54.864  1.00  0.00     0.323 C 
HETATM    3  N   UNL     1       7.611  29.008  56.111  1.00  0.00    -0.330 N 
HETATM    4  C   UNL     1       8.979  29.342  56.498  1.00  0.00     0.155 C 
HETATM    5  C   UNL     1       9.101  29.973  57.849  1.00  0.00     0.001 C 
HETATM    6  C   UNL     1       8.072  30.371  58.616  1.00  0.00    -0.046 C 
HETATM    7  C   UNL     1       6.671  30.179  58.115  1.00  0.00     0.059 C 
HETATM    8  C   UNL     1       6.580  28.993  57.154  1.00  0.00     0.132 C 
HETATM    9  O   UNL     1       8.430  28.419  54.060  1.00  0.00    -0.247 OA
HETATM   10  H   UNL     1       5.717  27.545  55.432  1.00  0.00     0.171 HD
ENDROOT
BRANCH   1  11
HETATM   11  C   UNL     1       5.906  27.032  53.478  1.00  0.00     0.072 A 
HETATM   12  C   UNL     1       5.662  25.645  53.623  1.00  0.00     0.095 A 
HETATM   13  C   UNL     1       5.259  24.888  52.517  1.00  0.00     0.042 A 
HETATM   14  C   UNL     1       5.100  25.502  51.275  1.00  0.00     0.045 A 
HETATM   15  C   UNL     1       5.339  26.865  51.145  1.00  0.00     0.118 A 
HETATM   16  C   UNL     1       5.735  27.636  52.232  1.00  0.00     0.074 A 
HETATM   17  F   UNL     1       5.179  27.445  49.947  1.00  0.00    -0.206 F 
BRANCH  12  18
HETATM   18  O   UNL     1       5.853  25.144  54.891  1.00  0.00    -0.354 OA
HETATM   19  C   UNL     1       6.823  24.113  55.038  1.00  0.00     0.210 C 
ENDBRANCH  12  18
ENDBRANCH   1  11
BRANCH   6  20
HETATM   20  C   UNL     1       8.212  30.913  59.937  1.00  0.00    -0.002 A 
HETATM   21  C   UNL     1       7.393  31.869  60.623  1.00  0.00     0.003 A 
HETATM   22  C   UNL     1       7.939  32.034  61.899  1.00  0.00     0.043 A 
HETATM   23  C   UNL     1       6.244  32.622  60.295  1.00  0.00     0.014 A 
HETATM   24  C   UNL     1       7.389  32.893  62.861  1.00  0.00     0.030 A 
HETATM   25  N   UNL     1       9.050  31.229  61.976  1.00  0.00    -0.364 N 
HETATM   26  C   UNL     1       6.244  33.613  62.509  1.00  0.00     0.002 A 
HETATM   27  C   UNL     1       5.679  33.483  61.245  1.00  0.00     0.001 A 
HETATM   28  H   UNL     1       9.647  31.153  62.788  1.00  0.00     0.165 HD
HETATM   29  C   UNL     1       9.225  30.549  60.803  1.00  0.00     0.101 A 
ENDBRANCH   6  20
TORSDOF 3
ENDMDL
MODEL 9
REMARK VINA RESULT:      -8.7      5.639      6.990
REMARK  3 active torsions:
REMARK  status: ('A' for Active; 'I' for Inactive)
REMARK    1  A    between atoms: O_2  and  C_3 
REMARK    2  A    between atoms: C_4  and  N_5 
REMARK       I    between atoms: N_5  and  C_6 
REMARK       I    between atoms: C_6  and  N_7 
REMARK    3  A    between atoms: C_10  and  C_11 
ROOT
HETATM    1  N   UNL     1       5.502  30.420  57.812  1.00  0.00    -0.306 N 
HETATM    2  C   UNL     1       6.784  29.969  58.009  1.00  0.00     0.323 C 
HETATM    3  N   UNL     1       7.013  28.641  57.635  1.00  0.00    -0.330 N 
HETATM    4  C   UNL     1       8.422  28.299  57.462  1.00  0.00     0.155 C 
HETATM    5  C   UNL     1       8.665  26.889  57.025  1.00  0.00     0.001 C 
HETATM    6  C   UNL     1       7.728  25.930  56.939  1.00  0.00    -0.046 C 
HETATM    7  C   UNL     1       6.309  26.262  57.296  1.00  0.00     0.059 C 
HETATM    8  C   UNL     1       6.007  27.743  57.061  1.00  0.00     0.132 C 
HETATM    9  O   UNL     1       7.697  30.664  58.452  1.00  0.00    -0.247 OA
HETATM   10  H   UNL     1       4.890  29.872  57.227  1.00  0.00     0.171 HD
ENDROOT
BRANCH   1  11
HETATM   11  C   UNL     1       4.967  31.695  58.111  1.00  0.00     0.072 A 
HETATM   12  C   UNL     1       4.745  32.563  57.015  1.00  0.00     0.095 A 
HETATM   13  C   UNL     1       4.223  33.843  57.233  1.00  0.00     0.042 A 
HETATM   14  C   UNL     1       3.924  34.261  58.529  1.00  0.00     0.045 A 
HETATM   15  C   UNL     1       4.142  33.399  59.598  1.00  0.00     0.118 A 
HETATM   16  C   UNL     1       4.655  32.122  59.403  1.00  0.00     0.074 A 
HETATM   17  F   UNL     1       3.847  33.811  60.839  1.00  0.00    -0.206 F 
BRANCH  12  18
HETATM   18  O   UNL     1       5.079  32.050  55.782  1.00  0.00    -0.354 OA
HETATM   19  C   UNL     1       4.468  32.650  54.646  1.00  0.00     0.210 C 
ENDBRANCH  12  18
ENDBRANCH   1  11
BRANCH   6  20
HETATM   20  C   UNL     1       7.973  24.603  56.453  1.00  0.00    -0.002 A 
HETATM   21  C   UNL     1       7.871  24.087  55.119  1.00  0.00     0.003 A 
HETATM   22  C   UNL     1       8.249  22.741  55.171  1.00  0.00     0.043 A 
HETATM   23  C   UNL     1       7.490  24.616  53.866  1.00  0.00     0.014 A 
HETATM   24  C   UNL     1       8.282  21.912  54.042  1.00  0.00     0.030 A 
HETATM   25  N   UNL     1       8.548  22.451  56.481  1.00  0.00    -0.364 N 
HETATM   26  C   UNL     1       7.913  22.470  52.815  1.00  0.00     0.002 A 
HETATM   27  C   UNL     1       7.519  23.802  52.726  1.00  0.00     0.001 A 
HETATM   28  H   UNL     1       8.846  21.545  56.813  1.00  0.00     0.165 HD
HETATM   29  C   UNL     1       8.386  23.563  57.261  1.00  0.00     0.101 A 
ENDBRANCH   6  20
TORSDOF 3
ENDMDL
MODEL 10
REMARK VINA RESULT:      -8.6      4.964      6.050
REMARK  3 active torsions:
REMARK  status: ('A' for Active; 'I' for Inactive)
REMARK    1  A    between atoms: O_2  and  C_3 
REMARK    2  A    between atoms: C_4  and  N_5 
REMARK       I    between atoms: N_5  and  C_6 
REMARK       I    between atoms: C_6  and  N_7 
REMARK    3  A    between atoms: C_10  and  C_11 
ROOT
HETATM    1  N   UNL     1       5.798  29.656  56.209  1.00  0.00    -0.306 N 
HETATM    2  C   UNL     1       5.002  28.538  56.253  1.00  0.00     0.323 C 
HETATM    3  N   UNL     1       5.680  27.319  56.146  1.00  0.00    -0.330 N 
HETATM    4  C   UNL     1       4.911  26.161  56.592  1.00  0.00     0.155 C 
HETATM    5  C   UNL     1       5.650  24.863  56.514  1.00  0.00     0.001 C 
HETATM    6  C   UNL     1       6.853  24.687  55.943  1.00  0.00    -0.046 C 
HETATM    7  C   UNL     1       7.548  25.866  55.328  1.00  0.00     0.059 C 
HETATM    8  C   UNL     1       7.132  27.173  56.004  1.00  0.00     0.132 C 
HETATM    9  O   UNL     1       3.782  28.567  56.404  1.00  0.00    -0.247 OA
HETATM   10  H   UNL     1       6.792  29.537  56.329  1.00  0.00     0.171 HD
ENDROOT
BRANCH   1  11
HETATM   11  C   UNL     1       5.404  31.014  56.269  1.00  0.00     0.072 A 
HETATM   12  C   UNL     1       5.657  31.694  57.484  1.00  0.00     0.095 A 
HETATM   13  C   UNL     1       5.290  33.038  57.622  1.00  0.00     0.042 A 
HETATM   14  C   UNL     1       4.674  33.703  56.561  1.00  0.00     0.045 A 
HETATM   15  C   UNL     1       4.435  33.026  55.371  1.00  0.00     0.118 A 
HETATM   16  C   UNL     1       4.796  31.693  55.213  1.00  0.00     0.074 A 
HETATM   17  F   UNL     1       3.847  33.676  54.357  1.00  0.00    -0.206 F 
BRANCH  12  18
HETATM   18  O   UNL     1       6.264  30.942  58.465  1.00  0.00    -0.354 OA
HETATM   19  C   UNL     1       7.125  31.629  59.366  1.00  0.00     0.210 C 
ENDBRANCH  12  18
ENDBRANCH   1  11
BRANCH   6  20
HETATM   20  C   UNL     1       7.572  23.446  55.939  1.00  0.00    -0.002 A 
HETATM   21  C   UNL     1       7.803  22.529  54.862  1.00  0.00     0.003 A 
HETATM   22  C   UNL     1       8.589  21.489  55.371  1.00  0.00     0.043 A 
HETATM   23  C   UNL     1       7.425  22.464  53.503  1.00  0.00     0.014 A 
HETATM   24  C   UNL     1       9.024  20.409  54.592  1.00  0.00     0.030 A 
HETATM   25  N   UNL     1       8.806  21.756  56.702  1.00  0.00    -0.364 N 
HETATM   26  C   UNL     1       8.644  20.381  53.248  1.00  0.00     0.002 A 
HETATM   27  C   UNL     1       7.854  21.391  52.709  1.00  0.00     0.001 A 
HETATM   28  H   UNL     1       9.340  21.165  57.324  1.00  0.00     0.165 HD
HETATM   29  C   UNL     1       8.200  22.929  57.056  1.00  0.00     0.101 A 
ENDBRANCH   6  20
TORSDOF 3
ENDMDL
