MODEL 1
REMARK VINA RESULT:     -11.4      0.000      0.000
REMARK  5 active torsions:
REMARK  status: ('A' for Active; 'I' for Inactive)
REMARK    1  A    between atoms: C_4  and  N_5 
REMARK    2  A    between atoms: C_7  and  C_8 
REMARK       I    between atoms: C_8  and  N_9 
REMARK    3  A    between atoms: N_9  and  N_10 
REMARK       I    between atoms: N_10  and  C_11 
REMARK    4  A    between atoms: C_11  and  C_12 
REMARK    5  A    between atoms: C_16  and  C_17 
ROOT
HETATM    1  C   UNL     1       6.484  27.764  57.014  1.00  0.00     0.286 C 
HETATM    2  N   UNL     1       6.077  29.078  56.988  1.00  0.00    -0.262 N 
HETATM    3  O   UNL     1       7.127  27.262  57.928  1.00  0.00    -0.264 OA
HETATM    4  H   UNL     1       5.542  29.483  56.218  1.00  0.00     0.190 HD
ENDROOT
BRANCH   2   5
HETATM    5  N   UNL     1       6.405  29.873  58.089  1.00  0.00    -0.262 N 
HETATM    6  C   UNL     1       7.671  30.397  58.233  1.00  0.00     0.288 C 
HETATM    7  O   UNL     1       8.549  30.246  57.386  1.00  0.00    -0.264 OA
HETATM    8  H   UNL     1       5.691  29.957  58.808  1.00  0.00     0.190 HD
BRANCH   6   9
HETATM    9  C   UNL     1       7.876  31.136  59.451  1.00  0.00     0.121 A 
HETATM   10  N   UNL     1       9.121  31.373  59.963  1.00  0.00    -0.272 N 
HETATM   11  H   UNL     1      10.009  31.071  59.576  1.00  0.00     0.189 HD
HETATM   12  N   UNL     1       9.121  32.097  61.094  1.00  0.00    -0.174 NA
HETATM   13  C   UNL     1       7.825  32.325  61.355  1.00  0.00     0.089 A 
HETATM   14  C   UNL     1       7.014  31.741  60.344  1.00  0.00     0.071 A 
BRANCH  13  15
HETATM   15  C   UNL     1       7.385  33.089  62.528  1.00  0.00    -0.006 A 
HETATM   16  C   UNL     1       6.461  34.137  62.391  1.00  0.00     0.014 A 
HETATM   17  C   UNL     1       6.022  34.853  63.507  1.00  0.00     0.001 A 
HETATM   18  C   UNL     1       6.506  34.537  64.775  1.00  0.00     0.000 A 
HETATM   19  C   UNL     1       7.429  33.506  64.928  1.00  0.00     0.001 A 
HETATM   20  C   UNL     1       7.866  32.786  63.811  1.00  0.00     0.014 A 
ENDBRANCH  13  15
ENDBRANCH   6   9
ENDBRANCH   2   5
BRANCH   1  21
HETATM   21  C   UNL     1       6.072  26.924  55.816  1.00  0.00     0.125 C 
HETATM   22  N   UNL     1       6.818  25.924  55.454  1.00  0.00    -0.164 NA
HETATM   23  N   UNL     1       6.417  25.161  54.362  1.00  0.00    -0.200 N 
HETATM   24  C   UNL     1       5.314  25.493  53.559  1.00  0.00     0.245 C 
HETATM   25  C   UNL     1       4.865  26.922  53.705  1.00  0.00     0.111 C 
HETATM   26  O   UNL     1       4.737  24.752  52.765  1.00  0.00    -0.271 OA
HETATM   27  C   UNL     1       4.772  27.279  55.164  1.00  0.00     0.076 C 
BRANCH  23  28
HETATM   28  C   UNL     1       7.157  23.945  54.192  1.00  0.00     0.068 A 
HETATM   29  C   UNL     1       7.149  23.008  55.247  1.00  0.00     0.039 A 
HETATM   30  C   UNL     1       7.790  21.765  55.141  1.00  0.00    -0.060 A 
HETATM   31  C   UNL     1       7.705  20.758  56.249  1.00  0.00     0.048 C 
HETATM   32  C   UNL     1       8.452  21.446  53.957  1.00  0.00     0.007 A 
HETATM   33  C   UNL     1       8.513  22.375  52.920  1.00  0.00     0.009 A 
HETATM   34  C   UNL     1       7.900  23.638  53.030  1.00  0.00    -0.033 A 
HETATM   35  C   UNL     1       8.138  24.599  51.894  1.00  0.00     0.050 C 
ENDBRANCH  23  28
ENDBRANCH   1  21
TORSDOF 5
ENDMDL
MODEL 2
REMARK VINA RESULT:     -11.2      3.147      5.760
REMARK  5 active torsions:
REMARK  status: ('A' for Active; 'I' for Inactive)
REMARK    1  A    between atoms: C_4  and  N_5 
REMARK    2  A    between atoms: C_7  and  C_8 
REMARK       I    between atoms: C_8  and  N_9 
REMARK    3  A    between atoms: N_9  and  N_10 
REMARK       I    between atoms: N_10  and  C_11 
REMARK    4  A    between atoms: C_11  and  C_12 
REMARK    5  A    between atoms: C_16  and  C_17 
ROOT
HETATM    1  C   UNL     1       8.458  31.214  60.756  1.00  0.00     0.286 C 
HETATM    2  N   UNL     1       7.112  31.191  61.038  1.00  0.00    -0.262 N 
HETATM    3  O   UNL     1       9.318  31.603  61.537  1.00  0.00    -0.264 OA
HETATM    4  H   UNL     1       6.407  30.864  60.376  1.00  0.00     0.190 HD
ENDROOT
BRANCH   2   5
HETATM    5  N   UNL     1       6.715  31.619  62.308  1.00  0.00    -0.262 N 
HETATM    6  C   UNL     1       6.169  32.870  62.495  1.00  0.00     0.288 C 
HETATM    7  O   UNL     1       5.948  33.641  61.563  1.00  0.00    -0.264 OA
HETATM    8  H   UNL     1       6.942  30.998  63.080  1.00  0.00     0.190 HD
BRANCH   6   9
HETATM    9  C   UNL     1       5.875  33.194  63.867  1.00  0.00     0.121 A 
HETATM   10  N   UNL     1       4.610  33.134  64.379  1.00  0.00    -0.272 N 
HETATM   11  H   UNL     1       3.762  32.875  63.884  1.00  0.00     0.189 HD
HETATM   12  N   UNL     1       4.528  33.450  65.681  1.00  0.00    -0.174 NA
HETATM   13  C   UNL     1       5.785  33.756  66.039  1.00  0.00     0.089 A 
HETATM   14  C   UNL     1       6.659  33.602  64.928  1.00  0.00     0.071 A 
BRANCH  13  15
HETATM   15  C   UNL     1       6.133  34.166  67.404  1.00  0.00    -0.006 A 
HETATM   16  C   UNL     1       5.151  34.222  68.404  1.00  0.00     0.014 A 
HETATM   17  C   UNL     1       5.481  34.591  69.711  1.00  0.00     0.001 A 
HETATM   18  C   UNL     1       6.797  34.916  70.034  1.00  0.00     0.000 A 
HETATM   19  C   UNL     1       7.783  34.874  69.051  1.00  0.00     0.001 A 
HETATM   20  C   UNL     1       7.453  34.502  67.744  1.00  0.00     0.014 A 
ENDBRANCH  13  15
ENDBRANCH   6   9
ENDBRANCH   2   5
BRANCH   1  21
HETATM   21  C   UNL     1       8.850  30.702  59.380  1.00  0.00     0.125 C 
HETATM   22  N   UNL     1       8.311  29.608  58.931  1.00  0.00    -0.164 NA
HETATM   23  N   UNL     1       8.675  29.164  57.663  1.00  0.00    -0.200 N 
HETATM   24  C   UNL     1       9.684  29.770  56.899  1.00  0.00     0.245 C 
HETATM   25  C   UNL     1      10.607  30.648  57.700  1.00  0.00     0.111 C 
HETATM   26  O   UNL     1       9.879  29.623  55.694  1.00  0.00    -0.271 OA
HETATM   27  C   UNL     1       9.802  31.551  58.595  1.00  0.00     0.076 C 
BRANCH  23  28
HETATM   28  C   UNL     1       7.855  28.102  57.156  1.00  0.00     0.068 A 
HETATM   29  C   UNL     1       8.345  26.782  57.246  1.00  0.00     0.039 A 
HETATM   30  C   UNL     1       7.583  25.678  56.836  1.00  0.00    -0.060 A 
HETATM   31  C   UNL     1       8.098  24.280  57.010  1.00  0.00     0.048 C 
HETATM   32  C   UNL     1       6.304  25.893  56.329  1.00  0.00     0.007 A 
HETATM   33  C   UNL     1       5.818  27.191  56.187  1.00  0.00     0.009 A 
HETATM   34  C   UNL     1       6.589  28.307  56.565  1.00  0.00    -0.033 A 
HETATM   35  C   UNL     1       6.005  29.660  56.251  1.00  0.00     0.050 C 
ENDBRANCH  23  28
ENDBRANCH   1  21
TORSDOF 5
ENDMDL
MODEL 3
REMARK VINA RESULT:     -10.9      2.221     10.961
REMARK  5 active torsions:
REMARK  status: ('A' for Active; 'I' for Inactive)
REMARK    1  A    between atoms: C_4  and  N_5 
REMARK    2  A    between atoms: C_7  and  C_8 
REMARK       I    between atoms: C_8  and  N_9 
REMARK    3  A    between atoms: N_9  and  N_10 
REMARK       I    between atoms: N_10  and  C_11 
REMARK    4  A    between atoms: C_11  and  C_12 
REMARK    5  A    between atoms: C_16  and  C_17 
ROOT
HETATM    1  C   UNL     1       5.690  30.579  57.297  1.00  0.00     0.286 C 
HETATM    2  N   UNL     1       5.802  29.353  57.911  1.00  0.00    -0.262 N 
HETATM    3  O   UNL     1       5.807  30.757  56.091  1.00  0.00    -0.264 OA
HETATM    4  H   UNL     1       5.702  29.221  58.919  1.00  0.00     0.190 HD
ENDROOT
BRANCH   2   5
HETATM    5  N   UNL     1       6.042  28.245  57.094  1.00  0.00    -0.262 N 
HETATM    6  C   UNL     1       7.145  27.444  57.292  1.00  0.00     0.288 C 
HETATM    7  O   UNL     1       7.932  27.621  58.219  1.00  0.00    -0.264 OA
HETATM    8  H   UNL     1       5.415  28.130  56.302  1.00  0.00     0.190 HD
BRANCH   6   9
HETATM    9  C   UNL     1       7.294  26.385  56.328  1.00  0.00     0.121 A 
HETATM   10  N   UNL     1       7.299  26.616  54.982  1.00  0.00    -0.272 N 
HETATM   11  H   UNL     1       7.197  27.511  54.514  1.00  0.00     0.189 HD
HETATM   12  N   UNL     1       7.470  25.513  54.235  1.00  0.00    -0.174 NA
HETATM   13  C   UNL     1       7.557  24.509  55.122  1.00  0.00     0.089 A 
HETATM   14  C   UNL     1       7.456  25.019  56.446  1.00  0.00     0.071 A 
BRANCH  13  15
HETATM   15  C   UNL     1       7.744  23.113  54.710  1.00  0.00    -0.006 A 
HETATM   16  C   UNL     1       7.703  22.079  55.657  1.00  0.00     0.014 A 
HETATM   17  C   UNL     1       7.859  20.746  55.267  1.00  0.00     0.001 A 
HETATM   18  C   UNL     1       8.065  20.430  53.926  1.00  0.00     0.000 A 
HETATM   19  C   UNL     1       8.117  21.445  52.974  1.00  0.00     0.001 A 
HETATM   20  C   UNL     1       7.958  22.779  53.364  1.00  0.00     0.014 A 
ENDBRANCH  13  15
ENDBRANCH   6   9
ENDBRANCH   2   5
BRANCH   1  21
HETATM   21  C   UNL     1       5.389  31.750  58.217  1.00  0.00     0.125 C 
HETATM   22  N   UNL     1       5.869  31.750  59.425  1.00  0.00    -0.164 NA
HETATM   23  N   UNL     1       5.592  32.838  60.247  1.00  0.00    -0.200 N 
HETATM   24  C   UNL     1       4.719  33.874  59.879  1.00  0.00     0.245 C 
HETATM   25  C   UNL     1       3.805  33.520  58.737  1.00  0.00     0.111 C 
HETATM   26  O   UNL     1       4.629  34.979  60.409  1.00  0.00    -0.271 OA
HETATM   27  C   UNL     1       4.597  32.877  57.631  1.00  0.00     0.076 C 
BRANCH  23  28
HETATM   28  C   UNL     1       6.359  32.869  61.458  1.00  0.00     0.068 A 
HETATM   29  C   UNL     1       5.693  33.194  62.659  1.00  0.00     0.039 A 
HETATM   30  C   UNL     1       6.350  33.183  63.898  1.00  0.00    -0.060 A 
HETATM   31  C   UNL     1       5.603  33.463  65.169  1.00  0.00     0.048 C 
HETATM   32  C   UNL     1       7.698  32.837  63.943  1.00  0.00     0.007 A 
HETATM   33  C   UNL     1       8.388  32.558  62.765  1.00  0.00     0.009 A 
HETATM   34  C   UNL     1       7.744  32.599  61.512  1.00  0.00    -0.033 A 
HETATM   35  C   UNL     1       8.620  32.398  60.303  1.00  0.00     0.050 C 
ENDBRANCH  23  28
ENDBRANCH   1  21
TORSDOF 5
ENDMDL
MODEL 4
REMARK VINA RESULT:     -10.5      2.794     11.204
REMARK  5 active torsions:
REMARK  status: ('A' for Active; 'I' for Inactive)
REMARK    1  A    between atoms: C_4  and  N_5 
REMARK    2  A    between atoms: C_7  and  C_8 
REMARK       I    between atoms: C_8  and  N_9 
REMARK    3  A    between atoms: N_9  and  N_10 
REMARK       I    between atoms: N_10  and  C_11 
REMARK    4  A    between atoms: C_11  and  C_12 
REMARK    5  A    between atoms: C_16  and  C_17 
ROOT
HETATM    1  C   UNL     1       4.440  30.935  57.879  1.00  0.00     0.286 C 
HETATM    2  N   UNL     1       5.521  30.146  58.197  1.00  0.00    -0.262 N 
HETATM    3  O   UNL     1       3.579  30.626  57.064  1.00  0.00    -0.264 OA
HETATM    4  H   UNL     1       6.231  30.417  58.879  1.00  0.00     0.190 HD
ENDROOT
BRANCH   2   5
HETATM    5  N   UNL     1       5.619  28.906  57.560  1.00  0.00    -0.262 N 
HETATM    6  C   UNL     1       6.795  28.188  57.587  1.00  0.00     0.288 C 
HETATM    7  O   UNL     1       7.784  28.562  58.211  1.00  0.00    -0.264 OA
HETATM    8  H   UNL     1       4.815  28.622  57.007  1.00  0.00     0.190 HD
BRANCH   6   9
HETATM    9  C   UNL     1       6.763  26.964  56.828  1.00  0.00     0.121 A 
HETATM   10  N   UNL     1       5.595  26.381  56.427  1.00  0.00    -0.272 N 
HETATM   11  H   UNL     1       4.652  26.712  56.607  1.00  0.00     0.189 HD
HETATM   12  N   UNL     1       5.759  25.257  55.710  1.00  0.00    -0.174 NA
HETATM   13  C   UNL     1       7.087  25.076  55.657  1.00  0.00     0.089 A 
HETATM   14  C   UNL     1       7.751  26.130  56.343  1.00  0.00     0.071 A 
BRANCH  13  15
HETATM   15  C   UNL     1       7.695  23.937  54.959  1.00  0.00    -0.006 A 
HETATM   16  C   UNL     1       8.760  23.231  55.539  1.00  0.00     0.014 A 
HETATM   17  C   UNL     1       9.328  22.132  54.888  1.00  0.00     0.001 A 
HETATM   18  C   UNL     1       8.843  21.729  53.646  1.00  0.00     0.000 A 
HETATM   19  C   UNL     1       7.793  22.423  53.052  1.00  0.00     0.001 A 
HETATM   20  C   UNL     1       7.222  23.521  53.704  1.00  0.00     0.014 A 
ENDBRANCH  13  15
ENDBRANCH   6   9
ENDBRANCH   2   5
BRANCH   1  21
HETATM   21  C   UNL     1       4.349  32.256  58.624  1.00  0.00     0.125 C 
HETATM   22  N   UNL     1       4.479  32.268  59.917  1.00  0.00    -0.164 NA
HETATM   23  N   UNL     1       4.404  33.491  60.578  1.00  0.00    -0.200 N 
HETATM   24  C   UNL     1       4.074  34.692  59.932  1.00  0.00     0.245 C 
HETATM   25  C   UNL     1       3.411  34.500  58.595  1.00  0.00     0.111 C 
HETATM   26  O   UNL     1       4.248  35.829  60.367  1.00  0.00    -0.271 OA
HETATM   27  C   UNL     1       4.178  33.487  57.788  1.00  0.00     0.076 C 
BRANCH  23  28
HETATM   28  C   UNL     1       4.803  33.438  61.955  1.00  0.00     0.068 A 
HETATM   29  C   UNL     1       6.141  33.096  62.247  1.00  0.00     0.039 A 
HETATM   30  C   UNL     1       6.634  33.085  63.560  1.00  0.00    -0.060 A 
HETATM   31  C   UNL     1       8.077  32.788  63.838  1.00  0.00     0.048 C 
HETATM   32  C   UNL     1       5.778  33.426  64.605  1.00  0.00     0.007 A 
HETATM   33  C   UNL     1       4.441  33.722  64.344  1.00  0.00     0.009 A 
HETATM   34  C   UNL     1       3.929  33.703  63.031  1.00  0.00    -0.033 A 
HETATM   35  C   UNL     1       2.445  33.920  62.890  1.00  0.00     0.050 C 
ENDBRANCH  23  28
ENDBRANCH   1  21
TORSDOF 5
ENDMDL
MODEL 5
REMARK VINA RESULT:      -9.9      6.929     11.289
REMARK  5 active torsions:
REMARK  status: ('A' for Active; 'I' for Inactive)
REMARK    1  A    between atoms: C_4  and  N_5 
REMARK    2  A    between atoms: C_7  and  C_8 
REMARK       I    between atoms: C_8  and  N_9 
REMARK    3  A    between atoms: N_9  and  N_10 
REMARK       I    between atoms: N_10  and  C_11 
REMARK    4  A    between atoms: C_11  and  C_12 
REMARK    5  A    between atoms: C_16  and  C_17 
ROOT
HETATM    1  C   UNL     1       5.458  29.283  50.710  1.00  0.00     0.286 C 
HETATM    2  N   UNL     1       5.680  29.240  52.067  1.00  0.00    -0.262 N 
HETATM    3  O   UNL     1       5.621  28.331  49.956  1.00  0.00    -0.264 OA
HETATM    4  H   UNL     1       5.539  30.042  52.683  1.00  0.00     0.190 HD
ENDROOT
BRANCH   2   5
HETATM    5  N   UNL     1       6.097  28.022  52.611  1.00  0.00    -0.262 N 
HETATM    6  C   UNL     1       5.200  27.179  53.230  1.00  0.00     0.288 C 
HETATM    7  O   UNL     1       3.996  27.419  53.283  1.00  0.00    -0.264 OA
HETATM    8  H   UNL     1       7.098  27.849  52.605  1.00  0.00     0.190 HD
BRANCH   6   9
HETATM    9  C   UNL     1       5.789  25.996  53.801  1.00  0.00     0.121 A 
HETATM   10  N   UNL     1       5.883  25.803  55.150  1.00  0.00    -0.272 N 
HETATM   11  H   UNL     1       5.572  26.435  55.882  1.00  0.00     0.189 HD
HETATM   12  N   UNL     1       6.442  24.633  55.501  1.00  0.00    -0.174 NA
HETATM   13  C   UNL     1       6.754  24.041  54.338  1.00  0.00     0.089 A 
HETATM   14  C   UNL     1       6.356  24.863  53.249  1.00  0.00     0.071 A 
BRANCH  13  15
HETATM   15  C   UNL     1       7.400  22.724  54.279  1.00  0.00    -0.006 A 
HETATM   16  C   UNL     1       7.755  22.160  53.044  1.00  0.00     0.014 A 
HETATM   17  C   UNL     1       8.391  20.916  52.983  1.00  0.00     0.001 A 
HETATM   18  C   UNL     1       8.672  20.218  54.155  1.00  0.00     0.000 A 
HETATM   19  C   UNL     1       8.319  20.759  55.388  1.00  0.00     0.001 A 
HETATM   20  C   UNL     1       7.686  22.005  55.450  1.00  0.00     0.014 A 
ENDBRANCH  13  15
ENDBRANCH   6   9
ENDBRANCH   2   5
BRANCH   1  21
HETATM   21  C   UNL     1       4.967  30.614  50.167  1.00  0.00     0.125 C 
HETATM   22  N   UNL     1       5.753  31.322  49.412  1.00  0.00    -0.164 NA
HETATM   23  N   UNL     1       5.280  32.533  48.915  1.00  0.00    -0.200 N 
HETATM   24  C   UNL     1       4.044  33.083  49.288  1.00  0.00     0.245 C 
HETATM   25  C   UNL     1       3.473  32.494  50.550  1.00  0.00     0.111 C 
HETATM   26  O   UNL     1       3.438  33.983  48.709  1.00  0.00    -0.271 OA
HETATM   27  C   UNL     1       3.555  30.993  50.494  1.00  0.00     0.076 C 
BRANCH  23  28
HETATM   28  C   UNL     1       6.112  33.117  47.904  1.00  0.00     0.068 A 
HETATM   29  C   UNL     1       7.143  33.989  48.313  1.00  0.00     0.039 A 
HETATM   30  C   UNL     1       8.045  34.553  47.398  1.00  0.00    -0.060 A 
HETATM   31  C   UNL     1       9.176  35.420  47.866  1.00  0.00     0.048 C 
HETATM   32  C   UNL     1       7.919  34.239  46.047  1.00  0.00     0.007 A 
HETATM   33  C   UNL     1       6.880  33.417  45.615  1.00  0.00     0.009 A 
HETATM   34  C   UNL     1       5.950  32.873  46.523  1.00  0.00    -0.033 A 
HETATM   35  C   UNL     1       4.803  32.102  45.923  1.00  0.00     0.050 C 
ENDBRANCH  23  28
ENDBRANCH   1  21
TORSDOF 5
ENDMDL
MODEL 6
REMARK VINA RESULT:      -9.3      3.247     12.038
REMARK  5 active torsions:
REMARK  status: ('A' for Active; 'I' for Inactive)
REMARK    1  A    between atoms: C_4  and  N_5 
REMARK    2  A    between atoms: C_7  and  C_8 
REMARK       I    between atoms: C_8  and  N_9 
REMARK    3  A    between atoms: N_9  and  N_10 
REMARK       I    between atoms: N_10  and  C_11 
REMARK    4  A    between atoms: C_11  and  C_12 
REMARK    5  A    between atoms: C_16  and  C_17 
ROOT
HETATM    1  C   UNL     1       6.476  31.791  60.523  1.00  0.00     0.286 C 
HETATM    2  N   UNL     1       5.658  31.400  59.488  1.00  0.00    -0.262 N 
HETATM    3  O   UNL     1       7.654  31.473  60.626  1.00  0.00    -0.264 OA
HETATM    4  H   UNL     1       4.677  31.672  59.416  1.00  0.00     0.190 HD
ENDROOT
BRANCH   2   5
HETATM    5  N   UNL     1       6.227  30.610  58.485  1.00  0.00    -0.262 N 
HETATM    6  C   UNL     1       5.436  29.956  57.566  1.00  0.00     0.288 C 
HETATM    7  O   UNL     1       4.214  30.076  57.541  1.00  0.00    -0.264 OA
HETATM    8  H   UNL     1       7.233  30.477  58.537  1.00  0.00     0.190 HD
BRANCH   6   9
HETATM    9  C   UNL     1       6.161  29.126  56.639  1.00  0.00     0.121 A 
HETATM   10  N   UNL     1       7.270  29.568  55.973  1.00  0.00    -0.272 N 
HETATM   11  H   UNL     1       7.697  30.487  56.038  1.00  0.00     0.189 HD
HETATM   12  N   UNL     1       7.829  28.651  55.166  1.00  0.00    -0.174 NA
HETATM   13  C   UNL     1       7.044  27.569  55.283  1.00  0.00     0.089 A 
HETATM   14  C   UNL     1       5.990  27.827  56.202  1.00  0.00     0.071 A 
BRANCH  13  15
HETATM   15  C   UNL     1       7.308  26.327  54.547  1.00  0.00    -0.006 A 
HETATM   16  C   UNL     1       7.636  26.362  53.183  1.00  0.00     0.014 A 
HETATM   17  C   UNL     1       7.911  25.184  52.483  1.00  0.00     0.001 A 
HETATM   18  C   UNL     1       7.853  23.955  53.136  1.00  0.00     0.000 A 
HETATM   19  C   UNL     1       7.520  23.901  54.486  1.00  0.00     0.001 A 
HETATM   20  C   UNL     1       7.249  25.080  55.188  1.00  0.00     0.014 A 
ENDBRANCH  13  15
ENDBRANCH   6   9
ENDBRANCH   2   5
BRANCH   1  21
HETATM   21  C   UNL     1       5.829  32.681  61.571  1.00  0.00     0.125 C 
HETATM   22  N   UNL     1       5.807  33.967  61.387  1.00  0.00    -0.164 NA
HETATM   23  N   UNL     1       5.199  34.763  62.354  1.00  0.00    -0.200 N 
HETATM   24  C   UNL     1       4.719  34.258  63.572  1.00  0.00     0.245 C 
HETATM   25  C   UNL     1       5.275  32.905  63.928  1.00  0.00     0.111 C 
HETATM   26  O   UNL     1       3.945  34.819  64.344  1.00  0.00    -0.271 OA
HETATM   27  C   UNL     1       5.190  31.990  62.737  1.00  0.00     0.076 C 
BRANCH  23  28
HETATM   28  C   UNL     1       5.003  36.126  61.952  1.00  0.00     0.068 A 
HETATM   29  C   UNL     1       5.977  37.076  62.326  1.00  0.00     0.039 A 
HETATM   30  C   UNL     1       5.900  38.417  61.921  1.00  0.00    -0.060 A 
HETATM   31  C   UNL     1       6.986  39.391  62.272  1.00  0.00     0.048 C 
HETATM   32  C   UNL     1       4.831  38.820  61.124  1.00  0.00     0.007 A 
HETATM   33  C   UNL     1       3.833  37.909  60.781  1.00  0.00     0.009 A 
HETATM   34  C   UNL     1       3.886  36.569  61.211  1.00  0.00    -0.033 A 
HETATM   35  C   UNL     1       2.690  35.713  60.881  1.00  0.00     0.050 C 
ENDBRANCH  23  28
ENDBRANCH   1  21
TORSDOF 5
ENDMDL
MODEL 7
REMARK VINA RESULT:      -9.2      3.640     11.419
REMARK  5 active torsions:
REMARK  status: ('A' for Active; 'I' for Inactive)
REMARK    1  A    between atoms: C_4  and  N_5 
REMARK    2  A    between atoms: C_7  and  C_8 
REMARK       I    between atoms: C_8  and  N_9 
REMARK    3  A    between atoms: N_9  and  N_10 
REMARK       I    between atoms: N_10  and  C_11 
REMARK    4  A    between atoms: C_11  and  C_12 
REMARK    5  A    between atoms: C_16  and  C_17 
ROOT
HETATM    1  C   UNL     1       6.702  31.587  59.018  1.00  0.00     0.286 C 
HETATM    2  N   UNL     1       5.866  30.582  58.590  1.00  0.00    -0.262 N 
HETATM    3  O   UNL     1       7.873  31.701  58.675  1.00  0.00    -0.264 OA
HETATM    4  H   UNL     1       4.892  30.500  58.885  1.00  0.00     0.190 HD
ENDROOT
BRANCH   2   5
HETATM    5  N   UNL     1       6.391  29.651  57.689  1.00  0.00    -0.262 N 
HETATM    6  C   UNL     1       5.865  29.516  56.423  1.00  0.00     0.288 C 
HETATM    7  O   UNL     1       4.962  30.235  56.002  1.00  0.00    -0.264 OA
HETATM    8  H   UNL     1       7.106  29.028  58.056  1.00  0.00     0.190 HD
BRANCH   6   9
HETATM    9  C   UNL     1       6.464  28.469  55.637  1.00  0.00     0.121 A 
HETATM   10  N   UNL     1       7.363  28.725  54.640  1.00  0.00    -0.272 N 
HETATM   11  H   UNL     1       7.700  29.634  54.339  1.00  0.00     0.189 HD
HETATM   12  N   UNL     1       7.833  27.626  54.028  1.00  0.00    -0.174 NA
HETATM   13  C   UNL     1       7.201  26.604  54.626  1.00  0.00     0.089 A 
HETATM   14  C   UNL     1       6.338  27.094  55.644  1.00  0.00     0.071 A 
BRANCH  13  15
HETATM   15  C   UNL     1       7.432  25.207  54.241  1.00  0.00    -0.006 A 
HETATM   16  C   UNL     1       7.269  24.174  55.176  1.00  0.00     0.014 A 
HETATM   17  C   UNL     1       7.466  22.839  54.809  1.00  0.00     0.001 A 
HETATM   18  C   UNL     1       7.834  22.522  53.503  1.00  0.00     0.000 A 
HETATM   19  C   UNL     1       8.008  23.536  52.565  1.00  0.00     0.001 A 
HETATM   20  C   UNL     1       7.808  24.871  52.931  1.00  0.00     0.014 A 
ENDBRANCH  13  15
ENDBRANCH   6   9
ENDBRANCH   2   5
BRANCH   1  21
HETATM   21  C   UNL     1       6.081  32.601  59.964  1.00  0.00     0.125 C 
HETATM   22  N   UNL     1       5.122  33.366  59.536  1.00  0.00    -0.164 NA
HETATM   23  N   UNL     1       4.558  34.279  60.423  1.00  0.00    -0.200 N 
HETATM   24  C   UNL     1       5.057  34.498  61.716  1.00  0.00     0.245 C 
HETATM   25  C   UNL     1       6.461  33.997  61.919  1.00  0.00     0.111 C 
HETATM   26  O   UNL     1       4.476  35.067  62.639  1.00  0.00    -0.271 OA
HETATM   27  C   UNL     1       6.586  32.600  61.374  1.00  0.00     0.076 C 
BRANCH  23  28
HETATM   28  C   UNL     1       3.356  34.897  59.943  1.00  0.00     0.068 A 
HETATM   29  C   UNL     1       2.127  34.478  60.496  1.00  0.00     0.039 A 
HETATM   30  C   UNL     1       0.910  35.073  60.134  1.00  0.00    -0.060 A 
HETATM   31  C   UNL     1      -0.375  34.658  60.789  1.00  0.00     0.048 C 
HETATM   32  C   UNL     1       0.916  36.111  59.205  1.00  0.00     0.007 A 
HETATM   33  C   UNL     1       2.113  36.509  58.612  1.00  0.00     0.009 A 
HETATM   34  C   UNL     1       3.336  35.894  58.944  1.00  0.00    -0.033 A 
HETATM   35  C   UNL     1       4.540  36.328  58.149  1.00  0.00     0.050 C 
ENDBRANCH  23  28
ENDBRANCH   1  21
TORSDOF 5
ENDMDL
MODEL 8
REMARK VINA RESULT:      -9.1      7.100     11.528
REMARK  5 active torsions:
REMARK  status: ('A' for Active; 'I' for Inactive)
REMARK    1  A    between atoms: C_4  and  N_5 
REMARK    2  A    between atoms: C_7  and  C_8 
REMARK       I    between atoms: C_8  and  N_9 
REMARK    3  A    between atoms: N_9  and  N_10 
REMARK       I    between atoms: N_10  and  C_11 
REMARK    4  A    between atoms: C_11  and  C_12 
REMARK    5  A    between atoms: C_16  and  C_17 
ROOT
HETATM    1  C   UNL     1       5.464  29.437  50.367  1.00  0.00     0.286 C 
HETATM    2  N   UNL     1       5.286  28.933  51.635  1.00  0.00    -0.262 N 
HETATM    3  O   UNL     1       5.989  28.818  49.449  1.00  0.00    -0.264 OA
HETATM    4  H   UNL     1       4.846  29.461  52.390  1.00  0.00     0.190 HD
ENDROOT
BRANCH   2   5
HETATM    5  N   UNL     1       5.714  27.624  51.871  1.00  0.00    -0.262 N 
HETATM    6  C   UNL     1       6.698  27.357  52.797  1.00  0.00     0.288 C 
HETATM    7  O   UNL     1       7.202  28.232  53.497  1.00  0.00    -0.264 OA
HETATM    8  H   UNL     1       5.329  26.910  51.259  1.00  0.00     0.190 HD
BRANCH   6   9
HETATM    9  C   UNL     1       7.081  25.971  52.879  1.00  0.00     0.121 A 
HETATM   10  N   UNL     1       7.509  25.265  51.791  1.00  0.00    -0.272 N 
HETATM   11  H   UNL     1       7.601  25.604  50.838  1.00  0.00     0.189 HD
HETATM   12  N   UNL     1       7.845  23.992  52.058  1.00  0.00    -0.174 NA
HETATM   13  C   UNL     1       7.605  23.844  53.370  1.00  0.00     0.089 A 
HETATM   14  C   UNL     1       7.130  25.066  53.920  1.00  0.00     0.071 A 
BRANCH  13  15
HETATM   15  C   UNL     1       7.839  22.575  54.071  1.00  0.00    -0.006 A 
HETATM   16  C   UNL     1       7.677  22.489  55.462  1.00  0.00     0.014 A 
HETATM   17  C   UNL     1       7.876  21.278  56.131  1.00  0.00     0.001 A 
HETATM   18  C   UNL     1       8.248  20.140  55.418  1.00  0.00     0.000 A 
HETATM   19  C   UNL     1       8.421  20.210  54.039  1.00  0.00     0.001 A 
HETATM   20  C   UNL     1       8.218  21.421  53.368  1.00  0.00     0.014 A 
ENDBRANCH  13  15
ENDBRANCH   6   9
ENDBRANCH   2   5
BRANCH   1  21
HETATM   21  C   UNL     1       4.948  30.848  50.142  1.00  0.00     0.125 C 
HETATM   22  N   UNL     1       5.789  31.792  49.842  1.00  0.00    -0.164 NA
HETATM   23  N   UNL     1       5.294  33.075  49.629  1.00  0.00    -0.200 N 
HETATM   24  C   UNL     1       3.951  33.424  49.841  1.00  0.00     0.245 C 
HETATM   25  C   UNL     1       3.197  32.441  50.698  1.00  0.00     0.111 C 
HETATM   26  O   UNL     1       3.381  34.432  49.429  1.00  0.00    -0.271 OA
HETATM   27  C   UNL     1       3.465  31.040  50.220  1.00  0.00     0.076 C 
BRANCH  23  28
HETATM   28  C   UNL     1       6.248  33.986  49.065  1.00  0.00     0.068 A 
HETATM   29  C   UNL     1       6.704  33.743  47.752  1.00  0.00     0.039 A 
HETATM   30  C   UNL     1       7.586  34.617  47.099  1.00  0.00    -0.060 A 
HETATM   31  C   UNL     1       8.000  34.373  45.678  1.00  0.00     0.048 C 
HETATM   32  C   UNL     1       8.019  35.760  47.766  1.00  0.00     0.007 A 
HETATM   33  C   UNL     1       7.618  35.996  49.080  1.00  0.00     0.009 A 
HETATM   34  C   UNL     1       6.759  35.106  49.755  1.00  0.00    -0.033 A 
HETATM   35  C   UNL     1       6.495  35.405  51.208  1.00  0.00     0.050 C 
ENDBRANCH  23  28
ENDBRANCH   1  21
TORSDOF 5
ENDMDL
MODEL 9
REMARK VINA RESULT:      -9.0      3.272      5.444
REMARK  5 active torsions:
REMARK  status: ('A' for Active; 'I' for Inactive)
REMARK    1  A    between atoms: C_4  and  N_5 
REMARK    2  A    between atoms: C_7  and  C_8 
REMARK       I    between atoms: C_8  and  N_9 
REMARK    3  A    between atoms: N_9  and  N_10 
REMARK       I    between atoms: N_10  and  C_11 
REMARK    4  A    between atoms: C_11  and  C_12 
REMARK    5  A    between atoms: C_16  and  C_17 
ROOT
HETATM    1  C   UNL     1       5.432  29.738  55.672  1.00  0.00     0.286 C 
HETATM    2  N   UNL     1       6.128  29.050  56.639  1.00  0.00    -0.262 N 
HETATM    3  O   UNL     1       5.004  30.878  55.812  1.00  0.00    -0.264 OA
HETATM    4  H   UNL     1       6.477  28.100  56.507  1.00  0.00     0.190 HD
ENDROOT
BRANCH   2   5
HETATM    5  N   UNL     1       6.377  29.713  57.844  1.00  0.00    -0.262 N 
HETATM    6  C   UNL     1       7.658  30.061  58.209  1.00  0.00     0.288 C 
HETATM    7  O   UNL     1       8.629  29.866  57.481  1.00  0.00    -0.264 OA
HETATM    8  H   UNL     1       5.579  29.830  58.462  1.00  0.00     0.190 HD
BRANCH   6   9
HETATM    9  C   UNL     1       7.763  30.674  59.508  1.00  0.00     0.121 A 
HETATM   10  N   UNL     1       8.702  30.292  60.424  1.00  0.00    -0.272 N 
HETATM   11  H   UNL     1       9.402  29.565  60.316  1.00  0.00     0.189 HD
HETATM   12  N   UNL     1       8.665  30.988  61.572  1.00  0.00    -0.174 NA
HETATM   13  C   UNL     1       7.645  31.847  61.419  1.00  0.00     0.089 A 
HETATM   14  C   UNL     1       7.058  31.683  60.134  1.00  0.00     0.071 A 
BRANCH  13  15
HETATM   15  C   UNL     1       7.260  32.800  62.466  1.00  0.00    -0.006 A 
HETATM   16  C   UNL     1       6.367  33.846  62.185  1.00  0.00     0.014 A 
HETATM   17  C   UNL     1       5.980  34.744  63.184  1.00  0.00     0.001 A 
HETATM   18  C   UNL     1       6.485  34.611  64.475  1.00  0.00     0.000 A 
HETATM   19  C   UNL     1       7.378  33.584  64.769  1.00  0.00     0.001 A 
HETATM   20  C   UNL     1       7.763  32.684  63.771  1.00  0.00     0.014 A 
ENDBRANCH  13  15
ENDBRANCH   6   9
ENDBRANCH   2   5
BRANCH   1  21
HETATM   21  C   UNL     1       5.218  28.996  54.363  1.00  0.00     0.125 C 
HETATM   22  N   UNL     1       4.760  29.643  53.333  1.00  0.00    -0.164 NA
HETATM   23  N   UNL     1       4.583  28.947  52.141  1.00  0.00    -0.200 N 
HETATM   24  C   UNL     1       4.758  27.559  52.030  1.00  0.00     0.245 C 
HETATM   25  C   UNL     1       4.739  26.838  53.351  1.00  0.00     0.111 C 
HETATM   26  O   UNL     1       4.888  26.917  50.990  1.00  0.00    -0.271 OA
HETATM   27  C   UNL     1       5.623  27.555  54.336  1.00  0.00     0.076 C 
BRANCH  23  28
HETATM   28  C   UNL     1       4.315  29.784  51.008  1.00  0.00     0.068 A 
HETATM   29  C   UNL     1       5.338  30.649  50.563  1.00  0.00     0.039 A 
HETATM   30  C   UNL     1       5.186  31.453  49.424  1.00  0.00    -0.060 A 
HETATM   31  C   UNL     1       6.314  32.311  48.931  1.00  0.00     0.048 C 
HETATM   32  C   UNL     1       3.992  31.393  48.710  1.00  0.00     0.007 A 
HETATM   33  C   UNL     1       2.951  30.580  49.157  1.00  0.00     0.009 A 
HETATM   34  C   UNL     1       3.082  29.795  50.319  1.00  0.00    -0.033 A 
HETATM   35  C   UNL     1       1.849  29.054  50.768  1.00  0.00     0.050 C 
ENDBRANCH  23  28
ENDBRANCH   1  21
TORSDOF 5
ENDMDL
MODEL 10
REMARK VINA RESULT:      -8.9      4.457     11.440
REMARK  5 active torsions:
REMARK  status: ('A' for Active; 'I' for Inactive)
REMARK    1  A    between atoms: C_4  and  N_5 
REMARK    2  A    between atoms: C_7  and  C_8 
REMARK       I    between atoms: C_8  and  N_9 
REMARK    3  A    between atoms: N_9  and  N_10 
REMARK       I    between atoms: N_10  and  C_11 
REMARK    4  A    between atoms: C_11  and  C_12 
REMARK    5  A    between atoms: C_16  and  C_17 
ROOT
HETATM    1  C   UNL     1       4.978  30.789  57.807  1.00  0.00     0.286 C 
HETATM    2  N   UNL     1       4.543  29.486  57.877  1.00  0.00    -0.262 N 
HETATM    3  O   UNL     1       5.995  31.144  57.224  1.00  0.00    -0.264 OA
HETATM    4  H   UNL     1       3.693  29.205  58.368  1.00  0.00     0.190 HD
ENDROOT
BRANCH   2   5
HETATM    5  N   UNL     1       5.307  28.519  57.218  1.00  0.00    -0.262 N 
HETATM    6  C   UNL     1       4.907  28.008  56.003  1.00  0.00     0.288 C 
HETATM    7  O   UNL     1       3.907  28.411  55.413  1.00  0.00    -0.264 OA
HETATM    8  H   UNL     1       6.107  28.156  57.730  1.00  0.00     0.190 HD
BRANCH   6   9
HETATM    9  C   UNL     1       5.759  26.971  55.482  1.00  0.00     0.121 A 
HETATM   10  N   UNL     1       6.910  27.242  54.798  1.00  0.00    -0.272 N 
HETATM   11  H   UNL     1       7.287  28.159  54.575  1.00  0.00     0.189 HD
HETATM   12  N   UNL     1       7.588  26.152  54.406  1.00  0.00    -0.174 NA
HETATM   13  C   UNL     1       6.843  25.117  54.825  1.00  0.00     0.089 A 
HETATM   14  C   UNL     1       5.690  25.591  55.509  1.00  0.00     0.071 A 
BRANCH  13  15
HETATM   15  C   UNL     1       7.235  23.723  54.589  1.00  0.00    -0.006 A 
HETATM   16  C   UNL     1       7.462  23.257  53.284  1.00  0.00     0.014 A 
HETATM   17  C   UNL     1       7.857  21.936  53.055  1.00  0.00     0.001 A 
HETATM   18  C   UNL     1       8.024  21.062  54.126  1.00  0.00     0.000 A 
HETATM   19  C   UNL     1       7.795  21.505  55.426  1.00  0.00     0.001 A 
HETATM   20  C   UNL     1       7.403  22.827  55.657  1.00  0.00     0.014 A 
ENDBRANCH  13  15
ENDBRANCH   6   9
ENDBRANCH   2   5
BRANCH   1  21
HETATM   21  C   UNL     1       4.097  31.814  58.503  1.00  0.00     0.125 C 
HETATM   22  N   UNL     1       3.942  32.987  57.967  1.00  0.00    -0.164 NA
HETATM   23  N   UNL     1       3.121  33.906  58.615  1.00  0.00    -0.200 N 
HETATM   24  C   UNL     1       2.554  33.671  59.877  1.00  0.00     0.245 C 
HETATM   25  C   UNL     1       3.221  32.561  60.645  1.00  0.00     0.111 C 
HETATM   26  O   UNL     1       1.624  34.291  60.389  1.00  0.00    -0.271 OA
HETATM   27  C   UNL     1       3.404  31.364  59.752  1.00  0.00     0.076 C 
BRANCH  23  28
HETATM   28  C   UNL     1       2.813  35.069  57.834  1.00  0.00     0.068 A 
HETATM   29  C   UNL     1       2.066  34.896  56.649  1.00  0.00     0.039 A 
HETATM   30  C   UNL     1       1.663  35.983  55.860  1.00  0.00    -0.060 A 
HETATM   31  C   UNL     1       0.809  35.778  54.644  1.00  0.00     0.048 C 
HETATM   32  C   UNL     1       2.008  37.272  56.262  1.00  0.00     0.007 A 
HETATM   33  C   UNL     1       2.785  37.463  57.403  1.00  0.00     0.009 A 
HETATM   34  C   UNL     1       3.222  36.375  58.183  1.00  0.00    -0.033 A 
HETATM   35  C   UNL     1       4.155  36.699  59.320  1.00  0.00     0.050 C 
ENDBRANCH  23  28
ENDBRANCH   1  21
TORSDOF 5
ENDMDL
