MODEL 1
REMARK VINA RESULT:      -9.4      0.000      0.000
REMARK  6 active torsions:
REMARK  status: ('A' for Active; 'I' for Inactive)
REMARK    1  A    between atoms: C_4  and  C_5 
REMARK    2  A    between atoms: C_5  and  N_6 
REMARK       I    between atoms: N_6  and  C_7 
REMARK    3  A    between atoms: C_7  and  C_8 
REMARK    4  A    between atoms: C_12  and  C_13 
REMARK    5  A    between atoms: C_13  and  O_14 
REMARK    6  A    between atoms: O_14  and  C_15 
ROOT
HETATM    1  C   UNL     1       7.304  28.436  57.625  1.00  0.00     0.146 A 
HETATM    2  N   UNL     1       6.006  28.774  57.483  1.00  0.00    -0.169 NA
HETATM    3  N   UNL     1       5.442  27.687  56.926  1.00  0.00    -0.279 N 
HETATM    4  H   UNL     1       4.440  27.696  56.757  1.00  0.00     0.189 HD
HETATM    5  C   UNL     1       6.328  26.687  56.646  1.00  0.00     0.054 A 
HETATM    6  C   UNL     1       7.543  27.133  57.116  1.00  0.00     0.068 A 
ENDROOT
BRANCH   1   7
HETATM    7  C   UNL     1       8.304  29.332  58.225  1.00  0.00     0.272 C 
HETATM    8  N   UNL     1       7.935  29.866  59.432  1.00  0.00    -0.350 N 
HETATM    9  H   UNL     1       7.038  29.600  59.831  1.00  0.00     0.163 HD
HETATM   10  O   UNL     1       9.378  29.584  57.682  1.00  0.00    -0.266 OA
BRANCH   8  11
HETATM   11  C   UNL     1       8.807  30.731  60.184  1.00  0.00     0.182 C 
BRANCH  11  12
HETATM   12  C   UNL     1       8.076  31.581  61.200  1.00  0.00     0.052 A 
HETATM   13  N   UNL     1       6.854  32.080  60.869  1.00  0.00    -0.257 NA
HETATM   14  C   UNL     1       6.208  32.839  61.786  1.00  0.00     0.031 A 
HETATM   15  C   UNL     1       4.869  33.393  61.399  1.00  0.00     0.070 C 
HETATM   16  C   UNL     1       6.741  33.117  63.040  1.00  0.00     0.027 A 
HETATM   17  C   UNL     1       7.986  32.595  63.370  1.00  0.00     0.004 A 
HETATM   18  C   UNL     1       8.664  31.815  62.440  1.00  0.00     0.029 A 
ENDBRANCH  11  12
ENDBRANCH   8  11
ENDBRANCH   1   7
BRANCH   5  19
HETATM   19  C   UNL     1       5.929  25.427  55.972  1.00  0.00     0.234 C 
BRANCH  19  20
HETATM   20  O   UNL     1       6.800  25.272  54.856  1.00  0.00    -0.345 OA
BRANCH  20  21
HETATM   21  C   UNL     1       7.204  23.995  54.570  1.00  0.00     0.072 A 
HETATM   22  C   UNL     1       7.458  23.197  55.692  1.00  0.00     0.076 A 
HETATM   23  C   UNL     1       7.875  21.900  55.488  1.00  0.00     0.107 A 
HETATM   24  C   UNL     1       8.033  21.381  54.224  1.00  0.00     0.105 A 
HETATM   25  O   UNL     1       8.175  20.995  56.459  1.00  0.00    -0.323 OA
HETATM   26  O   UNL     1       8.451  20.089  54.241  1.00  0.00    -0.323 OA
HETATM   27  C   UNL     1       7.780  22.133  53.099  1.00  0.00     0.042 A 
HETATM   28  C   UNL     1       8.547  19.853  55.661  1.00  0.00     0.352 A 
HETATM   29  C   UNL     1       7.357  23.457  53.277  1.00  0.00     0.039 A 
ENDBRANCH  20  21
ENDBRANCH  19  20
ENDBRANCH   5  19
TORSDOF 6
ENDMDL
MODEL 2
REMARK VINA RESULT:      -9.3      1.594      2.129
REMARK  6 active torsions:
REMARK  status: ('A' for Active; 'I' for Inactive)
REMARK    1  A    between atoms: C_4  and  C_5 
REMARK    2  A    between atoms: C_5  and  N_6 
REMARK       I    between atoms: N_6  and  C_7 
REMARK    3  A    between atoms: C_7  and  C_8 
REMARK    4  A    between atoms: C_12  and  C_13 
REMARK    5  A    between atoms: C_13  and  O_14 
REMARK    6  A    between atoms: O_14  and  C_15 
ROOT
HETATM    1  C   UNL     1       6.979  28.776  57.441  1.00  0.00     0.146 A 
HETATM    2  N   UNL     1       8.034  28.197  58.049  1.00  0.00    -0.169 NA
HETATM    3  N   UNL     1       8.148  27.001  57.444  1.00  0.00    -0.279 N 
HETATM    4  H   UNL     1       8.914  26.393  57.717  1.00  0.00     0.189 HD
HETATM    5  C   UNL     1       7.177  26.758  56.514  1.00  0.00     0.054 A 
HETATM    6  C   UNL     1       6.418  27.906  56.469  1.00  0.00     0.068 A 
ENDROOT
BRANCH   1   7
HETATM    7  C   UNL     1       6.503  30.126  57.777  1.00  0.00     0.272 C 
HETATM    8  N   UNL     1       6.969  30.611  58.971  1.00  0.00    -0.350 N 
HETATM    9  H   UNL     1       7.608  30.037  59.516  1.00  0.00     0.163 HD
HETATM   10  O   UNL     1       5.745  30.762  57.047  1.00  0.00    -0.266 OA
BRANCH   8  11
HETATM   11  C   UNL     1       6.640  31.933  59.440  1.00  0.00     0.182 C 
BRANCH  11  12
HETATM   12  C   UNL     1       7.009  32.162  60.889  1.00  0.00     0.052 A 
HETATM   13  N   UNL     1       6.019  32.473  61.769  1.00  0.00    -0.257 NA
HETATM   14  C   UNL     1       6.360  32.676  63.065  1.00  0.00     0.031 A 
HETATM   15  C   UNL     1       5.259  33.033  64.018  1.00  0.00     0.070 C 
HETATM   16  C   UNL     1       7.670  32.572  63.521  1.00  0.00     0.027 A 
HETATM   17  C   UNL     1       8.672  32.246  62.614  1.00  0.00     0.004 A 
HETATM   18  C   UNL     1       8.340  32.036  61.281  1.00  0.00     0.029 A 
ENDBRANCH  11  12
ENDBRANCH   8  11
ENDBRANCH   1   7
BRANCH   5  19
HETATM   19  C   UNL     1       7.078  25.476  55.776  1.00  0.00     0.234 C 
BRANCH  19  20
HETATM   20  O   UNL     1       7.409  24.448  56.705  1.00  0.00    -0.345 OA
BRANCH  20  21
HETATM   21  C   UNL     1       7.776  23.240  56.174  1.00  0.00     0.072 A 
HETATM   22  C   UNL     1       7.628  23.144  54.785  1.00  0.00     0.076 A 
HETATM   23  C   UNL     1       7.970  21.956  54.174  1.00  0.00     0.107 A 
HETATM   24  C   UNL     1       8.454  20.888  54.892  1.00  0.00     0.105 A 
HETATM   25  O   UNL     1       7.880  21.688  52.844  1.00  0.00    -0.323 OA
HETATM   26  O   UNL     1       8.728  19.814  54.105  1.00  0.00    -0.323 OA
HETATM   27  C   UNL     1       8.623  20.952  56.257  1.00  0.00     0.042 A 
HETATM   28  C   UNL     1       8.354  20.326  52.809  1.00  0.00     0.352 A 
HETATM   29  C   UNL     1       8.282  22.146  56.904  1.00  0.00     0.039 A 
ENDBRANCH  20  21
ENDBRANCH  19  20
ENDBRANCH   5  19
TORSDOF 6
ENDMDL
MODEL 3
REMARK VINA RESULT:      -9.3      1.672      2.137
REMARK  6 active torsions:
REMARK  status: ('A' for Active; 'I' for Inactive)
REMARK    1  A    between atoms: C_4  and  C_5 
REMARK    2  A    between atoms: C_5  and  N_6 
REMARK       I    between atoms: N_6  and  C_7 
REMARK    3  A    between atoms: C_7  and  C_8 
REMARK    4  A    between atoms: C_12  and  C_13 
REMARK    5  A    between atoms: C_13  and  O_14 
REMARK    6  A    between atoms: O_14  and  C_15 
ROOT
HETATM    1  C   UNL     1       8.968  30.140  58.354  1.00  0.00     0.146 A 
HETATM    2  N   UNL     1       9.670  29.982  57.214  1.00  0.00    -0.169 NA
HETATM    3  N   UNL     1       9.129  28.891  56.642  1.00  0.00    -0.279 N 
HETATM    4  H   UNL     1       9.480  28.597  55.736  1.00  0.00     0.189 HD
HETATM    5  C   UNL     1       8.151  28.302  57.393  1.00  0.00     0.054 A 
HETATM    6  C   UNL     1       8.004  29.109  58.499  1.00  0.00     0.068 A 
ENDROOT
BRANCH   1   7
HETATM    7  C   UNL     1       9.210  31.243  59.297  1.00  0.00     0.272 C 
HETATM    8  N   UNL     1       8.967  30.931  60.609  1.00  0.00    -0.350 N 
HETATM    9  H   UNL     1       8.669  29.986  60.840  1.00  0.00     0.163 HD
HETATM   10  O   UNL     1       9.592  32.354  58.933  1.00  0.00    -0.266 OA
BRANCH   8  11
HETATM   11  C   UNL     1       9.190  31.876  61.673  1.00  0.00     0.182 C 
BRANCH  11  12
HETATM   12  C   UNL     1       7.929  32.237  62.426  1.00  0.00     0.052 A 
HETATM   13  N   UNL     1       6.728  32.011  61.826  1.00  0.00    -0.257 NA
HETATM   14  C   UNL     1       5.605  32.338  62.508  1.00  0.00     0.031 A 
HETATM   15  C   UNL     1       4.291  32.096  61.827  1.00  0.00     0.070 C 
HETATM   16  C   UNL     1       5.636  32.884  63.787  1.00  0.00     0.027 A 
HETATM   17  C   UNL     1       6.867  33.103  64.393  1.00  0.00     0.004 A 
HETATM   18  C   UNL     1       8.031  32.775  63.706  1.00  0.00     0.029 A 
ENDBRANCH  11  12
ENDBRANCH   8  11
ENDBRANCH   1   7
BRANCH   5  19
HETATM   19  C   UNL     1       7.468  27.052  56.980  1.00  0.00     0.234 C 
BRANCH  19  20
HETATM   20  O   UNL     1       8.424  26.005  57.117  1.00  0.00    -0.345 OA
BRANCH  20  21
HETATM   21  C   UNL     1       8.168  24.850  56.427  1.00  0.00     0.072 A 
HETATM   22  C   UNL     1       8.477  23.675  57.121  1.00  0.00     0.076 A 
HETATM   23  C   UNL     1       8.253  22.469  56.491  1.00  0.00     0.107 A 
HETATM   24  C   UNL     1       7.733  22.403  55.220  1.00  0.00     0.105 A 
HETATM   25  O   UNL     1       8.504  21.238  57.012  1.00  0.00    -0.323 OA
HETATM   26  O   UNL     1       7.592  21.124  54.782  1.00  0.00    -0.323 OA
HETATM   27  C   UNL     1       7.407  23.538  54.514  1.00  0.00     0.042 A 
HETATM   28  C   UNL     1       8.091  20.391  55.920  1.00  0.00     0.352 A 
HETATM   29  C   UNL     1       7.626  24.778  55.128  1.00  0.00     0.039 A 
ENDBRANCH  20  21
ENDBRANCH  19  20
ENDBRANCH   5  19
TORSDOF 6
ENDMDL
MODEL 4
REMARK VINA RESULT:      -9.2      2.164      3.564
REMARK  6 active torsions:
REMARK  status: ('A' for Active; 'I' for Inactive)
REMARK    1  A    between atoms: C_4  and  C_5 
REMARK    2  A    between atoms: C_5  and  N_6 
REMARK       I    between atoms: N_6  and  C_7 
REMARK    3  A    between atoms: C_7  and  C_8 
REMARK    4  A    between atoms: C_12  and  C_13 
REMARK    5  A    between atoms: C_13  and  O_14 
REMARK    6  A    between atoms: O_14  and  C_15 
ROOT
HETATM    1  C   UNL     1       7.481  31.359  58.959  1.00  0.00     0.146 A 
HETATM    2  N   UNL     1       8.758  31.774  58.835  1.00  0.00    -0.169 NA
HETATM    3  N   UNL     1       9.358  30.793  58.139  1.00  0.00    -0.279 N 
HETATM    4  H   UNL     1      10.336  30.907  57.889  1.00  0.00     0.189 HD
HETATM    5  C   UNL     1       8.541  29.734  57.861  1.00  0.00     0.054 A 
HETATM    6  C   UNL     1       7.306  30.085  58.357  1.00  0.00     0.068 A 
ENDROOT
BRANCH   1   7
HETATM    7  C   UNL     1       6.445  32.147  59.642  1.00  0.00     0.272 C 
HETATM    8  N   UNL     1       6.145  31.715  60.908  1.00  0.00    -0.350 N 
HETATM    9  H   UNL     1       6.656  30.921  61.287  1.00  0.00     0.163 HD
HETATM   10  O   UNL     1       5.891  33.111  59.116  1.00  0.00    -0.266 OA
BRANCH   8  11
HETATM   11  C   UNL     1       5.185  32.393  61.740  1.00  0.00     0.182 C 
BRANCH  11  12
HETATM   12  C   UNL     1       5.760  32.858  63.060  1.00  0.00     0.052 A 
HETATM   13  N   UNL     1       4.900  33.184  64.063  1.00  0.00    -0.257 NA
HETATM   14  C   UNL     1       5.425  33.599  65.241  1.00  0.00     0.031 A 
HETATM   15  C   UNL     1       4.464  33.967  66.331  1.00  0.00     0.070 C 
HETATM   16  C   UNL     1       6.795  33.696  65.459  1.00  0.00     0.027 A 
HETATM   17  C   UNL     1       7.664  33.353  64.429  1.00  0.00     0.004 A 
HETATM   18  C   UNL     1       7.143  32.927  63.213  1.00  0.00     0.029 A 
ENDBRANCH  11  12
ENDBRANCH   8  11
ENDBRANCH   1   7
BRANCH   5  19
HETATM   19  C   UNL     1       9.017  28.517  57.159  1.00  0.00     0.234 C 
BRANCH  19  20
HETATM   20  O   UNL     1       8.372  27.412  57.784  1.00  0.00    -0.345 OA
BRANCH  20  21
HETATM   21  C   UNL     1       8.032  26.364  56.970  1.00  0.00     0.072 A 
HETATM   22  C   UNL     1       8.403  25.104  57.456  1.00  0.00     0.076 A 
HETATM   23  C   UNL     1       8.101  23.997  56.692  1.00  0.00     0.107 A 
HETATM   24  C   UNL     1       7.447  24.107  55.488  1.00  0.00     0.105 A 
HETATM   25  O   UNL     1       8.396  22.707  57.005  1.00  0.00    -0.323 OA
HETATM   26  O   UNL     1       7.247  22.901  54.893  1.00  0.00    -0.323 OA
HETATM   27  C   UNL     1       7.057  25.328  54.986  1.00  0.00     0.042 A 
HETATM   28  C   UNL     1       7.859  22.019  55.856  1.00  0.00     0.352 A 
HETATM   29  C   UNL     1       7.352  26.470  55.741  1.00  0.00     0.039 A 
ENDBRANCH  20  21
ENDBRANCH  19  20
ENDBRANCH   5  19
TORSDOF 6
ENDMDL
MODEL 5
REMARK VINA RESULT:      -9.2      3.270     10.824
REMARK  6 active torsions:
REMARK  status: ('A' for Active; 'I' for Inactive)
REMARK    1  A    between atoms: C_4  and  C_5 
REMARK    2  A    between atoms: C_5  and  N_6 
REMARK       I    between atoms: N_6  and  C_7 
REMARK    3  A    between atoms: C_7  and  C_8 
REMARK    4  A    between atoms: C_12  and  C_13 
REMARK    5  A    between atoms: C_13  and  O_14 
REMARK    6  A    between atoms: O_14  and  C_15 
ROOT
HETATM    1  C   UNL     1       7.782  29.696  56.994  1.00  0.00     0.146 A 
HETATM    2  N   UNL     1       6.488  29.788  57.360  1.00  0.00    -0.169 NA
HETATM    3  N   UNL     1       6.528  30.384  58.566  1.00  0.00    -0.279 N 
HETATM    4  H   UNL     1       5.650  30.594  59.029  1.00  0.00     0.189 HD
HETATM    5  C   UNL     1       7.793  30.624  59.021  1.00  0.00     0.054 A 
HETATM    6  C   UNL     1       8.630  30.214  58.007  1.00  0.00     0.068 A 
ENDROOT
BRANCH   1   7
HETATM    7  C   UNL     1       8.212  29.121  55.710  1.00  0.00     0.272 C 
HETATM    8  N   UNL     1       7.242  28.410  55.054  1.00  0.00    -0.350 N 
HETATM    9  H   UNL     1       6.316  28.347  55.470  1.00  0.00     0.163 HD
HETATM   10  O   UNL     1       9.351  29.264  55.269  1.00  0.00    -0.266 OA
BRANCH   8  11
HETATM   11  C   UNL     1       7.473  27.812  53.764  1.00  0.00     0.182 C 
BRANCH  11  12
HETATM   12  C   UNL     1       7.585  26.304  53.816  1.00  0.00     0.052 A 
HETATM   13  N   UNL     1       7.543  25.692  55.030  1.00  0.00    -0.257 NA
HETATM   14  C   UNL     1       7.645  24.341  55.065  1.00  0.00     0.031 A 
HETATM   15  C   UNL     1       7.612  23.684  56.412  1.00  0.00     0.070 C 
HETATM   16  C   UNL     1       7.781  23.570  53.916  1.00  0.00     0.027 A 
HETATM   17  C   UNL     1       7.814  24.206  52.681  1.00  0.00     0.004 A 
HETATM   18  C   UNL     1       7.713  25.591  52.626  1.00  0.00     0.029 A 
ENDBRANCH  11  12
ENDBRANCH   8  11
ENDBRANCH   1   7
BRANCH   5  19
HETATM   19  C   UNL     1       8.066  31.214  60.354  1.00  0.00     0.234 C 
BRANCH  19  20
HETATM   20  O   UNL     1       6.800  31.420  60.971  1.00  0.00    -0.345 OA
BRANCH  20  21
HETATM   21  C   UNL     1       6.810  32.037  62.194  1.00  0.00     0.072 A 
HETATM   22  C   UNL     1       5.543  32.260  62.747  1.00  0.00     0.076 A 
HETATM   23  C   UNL     1       5.468  32.882  63.974  1.00  0.00     0.107 A 
HETATM   24  C   UNL     1       6.595  33.271  64.657  1.00  0.00     0.105 A 
HETATM   25  O   UNL     1       4.325  33.183  64.648  1.00  0.00    -0.323 OA
HETATM   26  O   UNL     1       6.305  33.866  65.844  1.00  0.00    -0.323 OA
HETATM   27  C   UNL     1       7.857  33.057  64.150  1.00  0.00     0.042 A 
HETATM   28  C   UNL     1       4.863  33.815  65.828  1.00  0.00     0.352 A 
HETATM   29  C   UNL     1       7.963  32.428  62.903  1.00  0.00     0.039 A 
ENDBRANCH  20  21
ENDBRANCH  19  20
ENDBRANCH   5  19
TORSDOF 6
ENDMDL
MODEL 6
REMARK VINA RESULT:      -9.2      2.807     10.171
REMARK  6 active torsions:
REMARK  status: ('A' for Active; 'I' for Inactive)
REMARK    1  A    between atoms: C_4  and  C_5 
REMARK    2  A    between atoms: C_5  and  N_6 
REMARK       I    between atoms: N_6  and  C_7 
REMARK    3  A    between atoms: C_7  and  C_8 
REMARK    4  A    between atoms: C_12  and  C_13 
REMARK    5  A    between atoms: C_13  and  O_14 
REMARK    6  A    between atoms: O_14  and  C_15 
ROOT
HETATM    1  C   UNL     1       8.571  28.848  56.636  1.00  0.00     0.146 A 
HETATM    2  N   UNL     1       9.487  29.291  55.750  1.00  0.00    -0.169 NA
HETATM    3  N   UNL     1      10.216  30.181  56.447  1.00  0.00    -0.279 N 
HETATM    4  H   UNL     1      11.004  30.625  55.987  1.00  0.00     0.189 HD
HETATM    5  C   UNL     1       9.774  30.376  57.725  1.00  0.00     0.054 A 
HETATM    6  C   UNL     1       8.723  29.501  57.887  1.00  0.00     0.068 A 
ENDROOT
BRANCH   1   7
HETATM    7  C   UNL     1       7.564  27.829  56.304  1.00  0.00     0.272 C 
HETATM    8  N   UNL     1       7.154  27.841  54.996  1.00  0.00    -0.350 N 
HETATM    9  H   UNL     1       7.573  28.513  54.359  1.00  0.00     0.163 HD
HETATM   10  O   UNL     1       7.125  27.036  57.136  1.00  0.00    -0.266 OA
BRANCH   8  11
HETATM   11  C   UNL     1       6.205  26.887  54.484  1.00  0.00     0.182 C 
BRANCH  11  12
HETATM   12  C   UNL     1       6.853  25.636  53.932  1.00  0.00     0.052 A 
HETATM   13  N   UNL     1       6.939  24.541  54.737  1.00  0.00    -0.257 NA
HETATM   14  C   UNL     1       7.521  23.427  54.232  1.00  0.00     0.031 A 
HETATM   15  C   UNL     1       7.622  22.235  55.137  1.00  0.00     0.070 C 
HETATM   16  C   UNL     1       8.020  23.362  52.936  1.00  0.00     0.027 A 
HETATM   17  C   UNL     1       7.919  24.483  52.121  1.00  0.00     0.004 A 
HETATM   18  C   UNL     1       7.326  25.636  52.623  1.00  0.00     0.029 A 
ENDBRANCH  11  12
ENDBRANCH   8  11
ENDBRANCH   1   7
BRANCH   5  19
HETATM   19  C   UNL     1      10.395  31.360  58.645  1.00  0.00     0.234 C 
BRANCH  19  20
HETATM   20  O   UNL     1       9.409  32.357  58.894  1.00  0.00    -0.345 OA
BRANCH  20  21
HETATM   21  C   UNL     1       8.712  32.247  60.069  1.00  0.00     0.072 A 
HETATM   22  C   UNL     1       7.322  32.333  59.933  1.00  0.00     0.076 A 
HETATM   23  C   UNL     1       6.550  32.238  61.071  1.00  0.00     0.107 A 
HETATM   24  C   UNL     1       7.111  32.054  62.312  1.00  0.00     0.105 A 
HETATM   25  O   UNL     1       5.192  32.311  61.123  1.00  0.00    -0.323 OA
HETATM   26  O   UNL     1       6.179  31.988  63.300  1.00  0.00    -0.323 OA
HETATM   27  C   UNL     1       8.474  31.953  62.480  1.00  0.00     0.042 A 
HETATM   28  C   UNL     1       4.966  32.160  62.540  1.00  0.00     0.352 A 
HETATM   29  C   UNL     1       9.283  32.048  61.342  1.00  0.00     0.039 A 
ENDBRANCH  20  21
ENDBRANCH  19  20
ENDBRANCH   5  19
TORSDOF 6
ENDMDL
MODEL 7
REMARK VINA RESULT:      -9.1      1.749      2.363
REMARK  6 active torsions:
REMARK  status: ('A' for Active; 'I' for Inactive)
REMARK    1  A    between atoms: C_4  and  C_5 
REMARK    2  A    between atoms: C_5  and  N_6 
REMARK       I    between atoms: N_6  and  C_7 
REMARK    3  A    between atoms: C_7  and  C_8 
REMARK    4  A    between atoms: C_12  and  C_13 
REMARK    5  A    between atoms: C_13  and  O_14 
REMARK    6  A    between atoms: O_14  and  C_15 
ROOT
HETATM    1  C   UNL     1       8.966  30.126  58.315  1.00  0.00     0.146 A 
HETATM    2  N   UNL     1       9.824  29.799  57.327  1.00  0.00    -0.169 NA
HETATM    3  N   UNL     1       9.195  28.819  56.654  1.00  0.00    -0.279 N 
HETATM    4  H   UNL     1       9.644  28.435  55.829  1.00  0.00     0.189 HD
HETATM    5  C   UNL     1       7.996  28.457  57.200  1.00  0.00     0.054 A 
HETATM    6  C   UNL     1       7.806  29.309  58.265  1.00  0.00     0.068 A 
ENDROOT
BRANCH   1   7
HETATM    7  C   UNL     1       9.241  31.187  59.295  1.00  0.00     0.272 C 
HETATM    8  N   UNL     1       8.994  30.834  60.597  1.00  0.00    -0.350 N 
HETATM    9  H   UNL     1       8.672  29.890  60.795  1.00  0.00     0.163 HD
HETATM   10  O   UNL     1       9.651  32.299  58.970  1.00  0.00    -0.266 OA
BRANCH   8  11
HETATM   11  C   UNL     1       9.246  31.734  61.693  1.00  0.00     0.182 C 
BRANCH  11  12
HETATM   12  C   UNL     1       7.988  32.168  62.411  1.00  0.00     0.052 A 
HETATM   13  N   UNL     1       6.792  32.006  61.780  1.00  0.00    -0.257 NA
HETATM   14  C   UNL     1       5.672  32.399  62.432  1.00  0.00     0.031 A 
HETATM   15  C   UNL     1       4.365  32.226  61.717  1.00  0.00     0.070 C 
HETATM   16  C   UNL     1       5.700  32.949  63.709  1.00  0.00     0.027 A 
HETATM   17  C   UNL     1       6.926  33.102  64.346  1.00  0.00     0.004 A 
HETATM   18  C   UNL     1       8.086  32.707  63.692  1.00  0.00     0.029 A 
ENDBRANCH  11  12
ENDBRANCH   8  11
ENDBRANCH   1   7
BRANCH   5  19
HETATM   19  C   UNL     1       7.168  27.354  56.654  1.00  0.00     0.234 C 
BRANCH  19  20
HETATM   20  O   UNL     1       7.229  27.467  55.236  1.00  0.00    -0.345 OA
BRANCH  20  21
HETATM   21  C   UNL     1       7.432  26.305  54.539  1.00  0.00     0.072 A 
HETATM   22  C   UNL     1       7.336  25.139  55.307  1.00  0.00     0.076 A 
HETATM   23  C   UNL     1       7.533  23.928  54.680  1.00  0.00     0.107 A 
HETATM   24  C   UNL     1       7.807  23.847  53.335  1.00  0.00     0.105 A 
HETATM   25  O   UNL     1       7.486  22.705  55.273  1.00  0.00    -0.323 OA
HETATM   26  O   UNL     1       7.969  22.565  52.914  1.00  0.00    -0.323 OA
HETATM   27  C   UNL     1       7.896  24.972  52.547  1.00  0.00     0.042 A 
HETATM   28  C   UNL     1       7.772  21.846  54.150  1.00  0.00     0.352 A 
HETATM   29  C   UNL     1       7.703  26.217  53.159  1.00  0.00     0.039 A 
ENDBRANCH  20  21
ENDBRANCH  19  20
ENDBRANCH   5  19
TORSDOF 6
ENDMDL
MODEL 8
REMARK VINA RESULT:      -9.1      1.708      2.249
REMARK  6 active torsions:
REMARK  status: ('A' for Active; 'I' for Inactive)
REMARK    1  A    between atoms: C_4  and  C_5 
REMARK    2  A    between atoms: C_5  and  N_6 
REMARK       I    between atoms: N_6  and  C_7 
REMARK    3  A    between atoms: C_7  and  C_8 
REMARK    4  A    between atoms: C_12  and  C_13 
REMARK    5  A    between atoms: C_13  and  O_14 
REMARK    6  A    between atoms: O_14  and  C_15 
ROOT
HETATM    1  C   UNL     1       5.181  29.330  56.951  1.00  0.00     0.146 A 
HETATM    2  N   UNL     1       4.022  28.976  56.359  1.00  0.00    -0.169 NA
HETATM    3  N   UNL     1       4.139  27.649  56.171  1.00  0.00    -0.279 N 
HETATM    4  H   UNL     1       3.355  27.148  55.766  1.00  0.00     0.189 HD
HETATM    5  C   UNL     1       5.347  27.141  56.560  1.00  0.00     0.054 A 
HETATM    6  C   UNL     1       6.035  28.206  57.098  1.00  0.00     0.068 A 
ENDROOT
BRANCH   1   7
HETATM    7  C   UNL     1       5.481  30.709  57.365  1.00  0.00     0.272 C 
HETATM    8  N   UNL     1       5.565  30.889  58.721  1.00  0.00    -0.350 N 
HETATM    9  H   UNL     1       5.441  30.083  59.330  1.00  0.00     0.163 HD
HETATM   10  O   UNL     1       5.637  31.624  56.558  1.00  0.00    -0.266 OA
BRANCH   8  11
HETATM   11  C   UNL     1       5.892  32.164  59.304  1.00  0.00     0.182 C 
BRANCH  11  12
HETATM   12  C   UNL     1       7.122  32.122  60.184  1.00  0.00     0.052 A 
HETATM   13  N   UNL     1       6.987  32.430  61.502  1.00  0.00    -0.257 NA
HETATM   14  C   UNL     1       8.095  32.389  62.281  1.00  0.00     0.031 A 
HETATM   15  C   UNL     1       7.932  32.747  63.728  1.00  0.00     0.070 C 
HETATM   16  C   UNL     1       9.347  32.041  61.786  1.00  0.00     0.027 A 
HETATM   17  C   UNL     1       9.471  31.719  60.440  1.00  0.00     0.004 A 
HETATM   18  C   UNL     1       8.345  31.758  59.626  1.00  0.00     0.029 A 
ENDBRANCH  11  12
ENDBRANCH   8  11
ENDBRANCH   1   7
BRANCH   5  19
HETATM   19  C   UNL     1       5.710  25.715  56.382  1.00  0.00     0.234 C 
BRANCH  19  20
HETATM   20  O   UNL     1       7.033  25.697  55.855  1.00  0.00    -0.345 OA
BRANCH  20  21
HETATM   21  C   UNL     1       7.329  24.684  54.981  1.00  0.00     0.072 A 
HETATM   22  C   UNL     1       7.347  23.407  55.553  1.00  0.00     0.076 A 
HETATM   23  C   UNL     1       7.643  22.334  54.741  1.00  0.00     0.107 A 
HETATM   24  C   UNL     1       7.907  22.493  53.401  1.00  0.00     0.105 A 
HETATM   25  O   UNL     1       7.713  21.033  55.131  1.00  0.00    -0.323 OA
HETATM   26  O   UNL     1       8.177  21.314  52.781  1.00  0.00    -0.323 OA
HETATM   27  C   UNL     1       7.886  23.733  52.804  1.00  0.00     0.042 A 
HETATM   28  C   UNL     1       8.061  20.393  53.885  1.00  0.00     0.352 A 
HETATM   29  C   UNL     1       7.590  24.842  53.606  1.00  0.00     0.039 A 
ENDBRANCH  20  21
ENDBRANCH  19  20
ENDBRANCH   5  19
TORSDOF 6
ENDMDL
MODEL 9
REMARK VINA RESULT:      -9.1      2.503     10.419
REMARK  6 active torsions:
REMARK  status: ('A' for Active; 'I' for Inactive)
REMARK    1  A    between atoms: C_4  and  C_5 
REMARK    2  A    between atoms: C_5  and  N_6 
REMARK       I    between atoms: N_6  and  C_7 
REMARK    3  A    between atoms: C_7  and  C_8 
REMARK    4  A    between atoms: C_12  and  C_13 
REMARK    5  A    between atoms: C_13  and  O_14 
REMARK    6  A    between atoms: O_14  and  C_15 
ROOT
HETATM    1  C   UNL     1       7.738  27.927  56.223  1.00  0.00     0.146 A 
HETATM    2  N   UNL     1       7.347  27.683  57.490  1.00  0.00    -0.169 NA
HETATM    3  N   UNL     1       7.898  28.682  58.203  1.00  0.00    -0.279 N 
HETATM    4  H   UNL     1       7.706  28.728  59.199  1.00  0.00     0.189 HD
HETATM    5  C   UNL     1       8.677  29.525  57.462  1.00  0.00     0.054 A 
HETATM    6  C   UNL     1       8.569  29.077  56.164  1.00  0.00     0.068 A 
ENDROOT
BRANCH   1   7
HETATM    7  C   UNL     1       7.339  27.084  55.086  1.00  0.00     0.272 C 
HETATM    8  N   UNL     1       6.599  25.982  55.428  1.00  0.00    -0.350 N 
HETATM    9  H   UNL     1       6.364  25.837  56.407  1.00  0.00     0.163 HD
HETATM   10  O   UNL     1       7.650  27.347  53.925  1.00  0.00    -0.266 OA
BRANCH   8  11
HETATM   11  C   UNL     1       6.087  25.068  54.440  1.00  0.00     0.182 C 
BRANCH  11  12
HETATM   12  C   UNL     1       6.902  23.800  54.320  1.00  0.00     0.052 A 
HETATM   13  N   UNL     1       7.215  23.120  55.457  1.00  0.00    -0.257 NA
HETATM   14  C   UNL     1       7.945  21.985  55.338  1.00  0.00     0.031 A 
HETATM   15  C   UNL     1       8.294  21.257  56.602  1.00  0.00     0.070 C 
HETATM   16  C   UNL     1       8.374  21.494  54.110  1.00  0.00     0.027 A 
HETATM   17  C   UNL     1       8.042  22.192  52.955  1.00  0.00     0.004 A 
HETATM   18  C   UNL     1       7.295  23.360  53.059  1.00  0.00     0.029 A 
ENDBRANCH  11  12
ENDBRANCH   8  11
ENDBRANCH   1   7
BRANCH   5  19
HETATM   19  C   UNL     1       9.428  30.655  58.060  1.00  0.00     0.234 C 
BRANCH  19  20
HETATM   20  O   UNL     1       8.457  31.608  58.481  1.00  0.00    -0.345 OA
BRANCH  20  21
HETATM   21  C   UNL     1       8.361  31.826  59.830  1.00  0.00     0.072 A 
HETATM   22  C   UNL     1       7.065  32.093  60.287  1.00  0.00     0.076 A 
HETATM   23  C   UNL     1       6.885  32.330  61.633  1.00  0.00     0.107 A 
HETATM   24  C   UNL     1       7.936  32.301  62.519  1.00  0.00     0.105 A 
HETATM   25  O   UNL     1       5.703  32.614  62.242  1.00  0.00    -0.323 OA
HETATM   26  O   UNL     1       7.548  32.562  63.795  1.00  0.00    -0.323 OA
HETATM   27  C   UNL     1       9.221  32.030  62.105  1.00  0.00     0.042 A 
HETATM   28  C   UNL     1       6.132  32.768  63.611  1.00  0.00     0.352 A 
HETATM   29  C   UNL     1       9.434  31.787  60.743  1.00  0.00     0.039 A 
ENDBRANCH  20  21
ENDBRANCH  19  20
ENDBRANCH   5  19
TORSDOF 6
ENDMDL
MODEL 10
REMARK VINA RESULT:      -8.9      2.758     10.603
REMARK  6 active torsions:
REMARK  status: ('A' for Active; 'I' for Inactive)
REMARK    1  A    between atoms: C_4  and  C_5 
REMARK    2  A    between atoms: C_5  and  N_6 
REMARK       I    between atoms: N_6  and  C_7 
REMARK    3  A    between atoms: C_7  and  C_8 
REMARK    4  A    between atoms: C_12  and  C_13 
REMARK    5  A    between atoms: C_13  and  O_14 
REMARK    6  A    between atoms: O_14  and  C_15 
ROOT
HETATM    1  C   UNL     1       7.950  28.177  57.314  1.00  0.00     0.146 A 
HETATM    2  N   UNL     1       9.131  28.377  56.695  1.00  0.00    -0.169 NA
HETATM    3  N   UNL     1       9.673  29.422  57.347  1.00  0.00    -0.279 N 
HETATM    4  H   UNL     1      10.599  29.733  57.073  1.00  0.00     0.189 HD
HETATM    5  C   UNL     1       8.866  29.944  58.318  1.00  0.00     0.054 A 
HETATM    6  C   UNL     1       7.751  29.138  58.340  1.00  0.00     0.068 A 
ENDROOT
BRANCH   1   7
HETATM    7  C   UNL     1       7.020  27.102  56.937  1.00  0.00     0.272 C 
HETATM    8  N   UNL     1       7.584  25.854  56.894  1.00  0.00    -0.350 N 
HETATM    9  H   UNL     1       8.566  25.752  57.138  1.00  0.00     0.163 HD
HETATM   10  O   UNL     1       5.836  27.310  56.678  1.00  0.00    -0.266 OA
BRANCH   8  11
HETATM   11  C   UNL     1       6.813  24.677  56.585  1.00  0.00     0.182 C 
BRANCH  11  12
HETATM   12  C   UNL     1       7.246  23.998  55.304  1.00  0.00     0.052 A 
HETATM   13  N   UNL     1       7.385  22.644  55.302  1.00  0.00    -0.257 NA
HETATM   14  C   UNL     1       7.772  22.047  54.150  1.00  0.00     0.031 A 
HETATM   15  C   UNL     1       7.935  20.556  54.170  1.00  0.00     0.070 C 
HETATM   16  C   UNL     1       8.023  22.760  52.983  1.00  0.00     0.027 A 
HETATM   17  C   UNL     1       7.870  24.141  52.994  1.00  0.00     0.004 A 
HETATM   18  C   UNL     1       7.475  24.771  54.169  1.00  0.00     0.029 A 
ENDBRANCH  11  12
ENDBRANCH   8  11
ENDBRANCH   1   7
BRANCH   5  19
HETATM   19  C   UNL     1       9.242  31.138  59.113  1.00  0.00     0.234 C 
BRANCH  19  20
HETATM   20  O   UNL     1       8.160  32.057  58.996  1.00  0.00    -0.345 OA
BRANCH  20  21
HETATM   21  C   UNL     1       7.471  32.339  60.145  1.00  0.00     0.072 A 
HETATM   22  C   UNL     1       8.265  32.435  61.294  1.00  0.00     0.076 A 
HETATM   23  C   UNL     1       7.645  32.710  62.494  1.00  0.00     0.107 A 
HETATM   24  C   UNL     1       6.286  32.898  62.578  1.00  0.00     0.105 A 
HETATM   25  O   UNL     1       8.259  32.826  63.702  1.00  0.00    -0.323 OA
HETATM   26  O   UNL     1       5.874  33.156  63.847  1.00  0.00    -0.323 OA
HETATM   27  C   UNL     1       5.476  32.824  61.467  1.00  0.00     0.042 A 
HETATM   28  C   UNL     1       7.130  33.101  64.556  1.00  0.00     0.352 A 
HETATM   29  C   UNL     1       6.080  32.543  60.235  1.00  0.00     0.039 A 
ENDBRANCH  20  21
ENDBRANCH  19  20
ENDBRANCH   5  19
TORSDOF 6
ENDMDL
