MODEL 1
REMARK VINA RESULT:      -6.3      0.000      0.000
REMARK  11 active torsions:
REMARK  status: ('A' for Active; 'I' for Inactive)
REMARK    1  A    between atoms: C_1  and  C_17 
REMARK    2  A    between atoms: C_1  and  S_18 
REMARK    3  A    between atoms: C_2  and  N_23 
REMARK    4  A    between atoms: C_3  and  C_13 
REMARK    5  A    between atoms: C_6  and  S_18 
REMARK    6  A    between atoms: C_6  and  S_19 
REMARK    7  A    between atoms: C_7  and  C_20 
REMARK    8  A    between atoms: C_7  and  C_21 
REMARK    9  A    between atoms: C_9  and  C_24 
REMARK   10  A    between atoms: C_16  and  C_17 
REMARK   11  A    between atoms: S_19  and  C_20 
ROOT
HETATM    1  C           1       2.956  33.852  62.917  0.00  0.00     0.092 C 
HETATM    2  C           1       4.305  32.916  61.155  0.00  0.00     0.156 C 
HETATM    3  C           1       2.967  34.843  61.787  0.00  0.00     0.127 C 
HETATM    4  C           1       4.261  34.481  61.025  0.00  0.00     0.136 C 
HETATM    5  C           1       5.477  35.046  61.676  0.00  0.00     0.079 C 
HETATM    6  N           1       6.390  35.577  62.155  0.00  0.00    -0.196 NA
HETATM    7  C           1       2.788  36.417  61.863  0.00  0.00     0.248 C 
HETATM    8  C           1       3.462  36.339  59.461  0.00  0.00     0.105 C 
HETATM    9  N           1       3.650  32.807  62.550  0.00  0.00    -0.350 N 
HETATM   10  N           1       2.611  37.017  60.428  0.00  0.00    -0.040 N 
HETATM   11  C           1       3.492  36.990  58.098  0.00  0.00     0.075 C 
HETATM   12  C           1       4.167  35.205  59.694  0.00  0.00     0.036 C 
HETATM   13  H           1       3.759  31.979  63.150  0.00  0.00     0.163 HD
HETATM   14  H           1       1.612  37.003  60.131  0.00  0.00     0.284 HD
HETATM   15  H           1       2.897  38.021  60.468  0.00  0.00     0.284 HD
ENDROOT
BRANCH   2  16
HETATM   16  S           1       5.991  32.235  61.274  0.00  0.00    -0.125 SA
BRANCH  16  17
HETATM   17  C           1       6.176  31.924  63.056  0.00  0.00     0.077 C 
BRANCH  17  18
HETATM   18  C           1       7.565  32.407  63.504  0.00  0.00     0.010 C 
BRANCH  18  19
HETATM   19  C           1       7.466  33.430  64.648  0.00  0.00    -0.004 C 
HETATM   20  C           1       6.022  33.599  65.141  0.00  0.00     0.005 C 
ENDBRANCH  18  19
ENDBRANCH  17  18
ENDBRANCH  16  17
ENDBRANCH   2  16
BRANCH   2  21
HETATM   21  S           1       3.220  32.140  59.909  0.00  0.00    -0.125 SA
BRANCH  21  22
HETATM   22  C           1       4.434  31.740  58.612  0.00  0.00     0.077 C 
BRANCH  22  23
HETATM   23  C           1       3.926  30.525  57.819  0.00  0.00     0.010 C 
BRANCH  23  24
HETATM   24  C           1       5.083  29.614  57.375  0.00  0.00    -0.004 C 
HETATM   25  C           1       6.450  30.198  57.759  0.00  0.00     0.005 C 
ENDBRANCH  23  24
ENDBRANCH  22  23
ENDBRANCH  21  22
ENDBRANCH   2  21
BRANCH   3  26
HETATM   26  C           1       1.757  34.627  60.941  0.00  0.00     0.105 C 
HETATM   27  N           1       0.612  34.571  61.107  0.00  0.00    -0.151 N 
ENDBRANCH   3  26
BRANCH   1  28
HETATM   28  N           1       2.313  33.959  64.003  0.00  0.00    -0.388 N 
HETATM   29  H           1       2.312  33.180  64.706  0.00  0.00     0.157 HD
HETATM   30  H           1       1.765  34.829  64.217  0.00  0.00     0.157 HD
ENDBRANCH   1  28
BRANCH   7  31
HETATM   31  C           1       3.839  37.177  62.659  0.00  0.00    -0.026 A 
HETATM   32  C           1       4.110  36.807  63.925  0.00  0.00     0.009 A 
HETATM   33  C           1       5.023  37.453  64.668  0.00  0.00     0.001 A 
HETATM   34  C           1       5.685  38.499  64.155  0.00  0.00     0.000 A 
HETATM   35  C           1       5.423  38.890  62.899  0.00  0.00     0.001 A 
HETATM   36  C           1       4.510  38.235  62.165  0.00  0.00     0.009 A 
ENDBRANCH   7  31
TORSDOF 11
ENDMDL
MODEL 2
REMARK VINA RESULT:      -6.3      2.002      3.036
REMARK  11 active torsions:
REMARK  status: ('A' for Active; 'I' for Inactive)
REMARK    1  A    between atoms: C_1  and  C_17 
REMARK    2  A    between atoms: C_1  and  S_18 
REMARK    3  A    between atoms: C_2  and  N_23 
REMARK    4  A    between atoms: C_3  and  C_13 
REMARK    5  A    between atoms: C_6  and  S_18 
REMARK    6  A    between atoms: C_6  and  S_19 
REMARK    7  A    between atoms: C_7  and  C_20 
REMARK    8  A    between atoms: C_7  and  C_21 
REMARK    9  A    between atoms: C_9  and  C_24 
REMARK   10  A    between atoms: C_16  and  C_17 
REMARK   11  A    between atoms: S_19  and  C_20 
ROOT
HETATM    1  C           1       2.697  33.793  62.938  0.00  0.00     0.092 C 
HETATM    2  C           1       4.691  33.262  61.696  0.00  0.00     0.156 C 
HETATM    3  C           1       3.531  35.042  62.874  0.00  0.00     0.127 C 
HETATM    4  C           1       4.954  34.494  62.635  0.00  0.00     0.136 C 
HETATM    5  C           1       5.590  34.005  63.891  0.00  0.00     0.079 C 
HETATM    6  N           1       6.088  33.720  64.900  0.00  0.00    -0.196 NA
HETATM    7  C           1       3.565  36.250  63.900  0.00  0.00     0.248 C 
HETATM    8  C           1       5.539  36.982  62.559  0.00  0.00     0.105 C 
HETATM    9  N           1       3.317  32.854  62.271  0.00  0.00    -0.350 N 
HETATM   10  N           1       4.380  37.447  63.308  0.00  0.00    -0.040 N 
HETATM   11  C           1       6.480  38.080  62.126  0.00  0.00     0.075 C 
HETATM   12  C           1       5.790  35.693  62.224  0.00  0.00     0.036 C 
HETATM   13  H           1       2.922  31.912  62.148  0.00  0.00     0.163 HD
HETATM   14  H           1       3.778  38.069  62.728  0.00  0.00     0.284 HD
HETATM   15  H           1       4.721  38.025  64.110  0.00  0.00     0.284 HD
ENDROOT
BRANCH   2  16
HETATM   16  S           1       5.843  31.874  61.961  0.00  0.00    -0.125 SA
BRANCH  16  17
HETATM   17  C           1       7.396  32.498  61.253  0.00  0.00     0.077 C 
BRANCH  17  18
HETATM   18  C           1       8.564  32.061  62.152  0.00  0.00     0.010 C 
BRANCH  18  19
HETATM   19  C           1       9.867  31.906  61.350  0.00  0.00    -0.004 C 
HETATM   20  C           1       9.611  31.911  59.836  0.00  0.00     0.005 C 
ENDBRANCH  18  19
ENDBRANCH  17  18
ENDBRANCH  16  17
ENDBRANCH   2  16
BRANCH   2  21
HETATM   21  S           1       4.490  33.809  59.966  0.00  0.00    -0.125 SA
BRANCH  21  22
HETATM   22  C           1       3.325  32.552  59.351  0.00  0.00     0.077 C 
BRANCH  22  23
HETATM   23  C           1       4.119  31.461  58.614  0.00  0.00     0.010 C 
BRANCH  23  24
HETATM   24  C           1       5.453  32.001  58.071  0.00  0.00    -0.004 C 
HETATM   25  C           1       6.519  30.901  57.977  0.00  0.00     0.005 C 
ENDBRANCH  23  24
ENDBRANCH  22  23
ENDBRANCH  21  22
ENDBRANCH   2  21
BRANCH   3  26
HETATM   26  C           1       3.067  35.875  61.726  0.00  0.00     0.105 C 
HETATM   27  N           1       2.108  35.963  61.082  0.00  0.00    -0.151 N 
ENDBRANCH   3  26
BRANCH   1  28
HETATM   28  N           1       1.550  33.681  63.464  0.00  0.00    -0.388 N 
HETATM   29  H           1       1.343  34.109  64.399  0.00  0.00     0.157 HD
HETATM   30  H           1       0.787  33.153  62.972  0.00  0.00     0.157 HD
ENDBRANCH   1  28
BRANCH   7  31
HETATM   31  C           1       4.010  35.919  65.317  0.00  0.00    -0.026 A 
HETATM   32  C           1       3.402  34.923  65.989  0.00  0.00     0.009 A 
HETATM   33  C           1       3.755  34.600  67.244  0.00  0.00     0.001 A 
HETATM   34  C           1       4.731  35.280  67.859  0.00  0.00     0.000 A 
HETATM   35  C           1       5.344  36.282  67.212  0.00  0.00     0.001 A 
HETATM   36  C           1       4.983  36.594  65.957  0.00  0.00     0.009 A 
ENDBRANCH   7  31
TORSDOF 11
ENDMDL
MODEL 3
REMARK VINA RESULT:      -5.8      9.775     13.332
REMARK  11 active torsions:
REMARK  status: ('A' for Active; 'I' for Inactive)
REMARK    1  A    between atoms: C_1  and  C_17 
REMARK    2  A    between atoms: C_1  and  S_18 
REMARK    3  A    between atoms: C_2  and  N_23 
REMARK    4  A    between atoms: C_3  and  C_13 
REMARK    5  A    between atoms: C_6  and  S_18 
REMARK    6  A    between atoms: C_6  and  S_19 
REMARK    7  A    between atoms: C_7  and  C_20 
REMARK    8  A    between atoms: C_7  and  C_21 
REMARK    9  A    between atoms: C_9  and  C_24 
REMARK   10  A    between atoms: C_16  and  C_17 
REMARK   11  A    between atoms: S_19  and  C_20 
ROOT
HETATM    1  C           1       4.559  25.526  53.649  0.00  0.00     0.092 C 
HETATM    2  C           1       5.553  27.568  52.848  0.00  0.00     0.156 C 
HETATM    3  C           1       5.634  25.914  54.625  0.00  0.00     0.127 C 
HETATM    4  C           1       6.566  26.805  53.775  0.00  0.00     0.136 C 
HETATM    5  C           1       7.484  26.004  52.915  0.00  0.00     0.079 C 
HETATM    6  N           1       8.245  25.351  52.331  0.00  0.00    -0.196 NA
HETATM    7  C           1       6.482  24.968  55.574  0.00  0.00     0.248 C 
HETATM    8  C           1       7.818  27.035  55.992  0.00  0.00     0.105 C 
HETATM    9  N           1       4.503  26.443  52.718  0.00  0.00    -0.350 N 
HETATM   10  N           1       7.302  25.817  56.601  0.00  0.00    -0.040 N 
HETATM   11  C           1       8.780  27.805  56.864  0.00  0.00     0.075 C 
HETATM   12  C           1       7.480  27.503  54.766  0.00  0.00     0.036 C 
HETATM   13  H           1       3.818  26.410  51.952  0.00  0.00     0.163 HD
HETATM   14  H           1       6.741  26.028  57.454  0.00  0.00     0.284 HD
HETATM   15  H           1       8.114  25.239  56.913  0.00  0.00     0.284 HD
ENDROOT
BRANCH   2  16
HETATM   16  S           1       6.202  27.922  51.182  0.00  0.00    -0.125 SA
BRANCH  16  17
HETATM   17  C           1       5.190  26.850  50.118  0.00  0.00     0.077 C 
BRANCH  17  18
HETATM   18  C           1       4.801  27.629  48.852  0.00  0.00     0.010 C 
BRANCH  18  19
HETATM   19  C           1       4.497  26.684  47.678  0.00  0.00    -0.004 C 
HETATM   20  C           1       3.339  25.728  47.999  0.00  0.00     0.005 C 
ENDBRANCH  18  19
ENDBRANCH  17  18
ENDBRANCH  16  17
ENDBRANCH   2  16
BRANCH   2  21
HETATM   21  S           1       4.820  28.986  53.733  0.00  0.00    -0.125 SA
BRANCH  21  22
HETATM   22  C           1       4.617  30.167  52.363  0.00  0.00     0.077 C 
BRANCH  22  23
HETATM   23  C           1       3.115  30.350  52.087  0.00  0.00     0.010 C 
BRANCH  23  24
HETATM   24  C           1       2.505  29.101  51.430  0.00  0.00    -0.004 C 
HETATM   25  C           1       1.646  29.458  50.209  0.00  0.00     0.005 C 
ENDBRANCH  23  24
ENDBRANCH  22  23
ENDBRANCH  21  22
ENDBRANCH   2  21
BRANCH   3  26
HETATM   26  C           1       5.017  26.683  55.744  0.00  0.00     0.105 C 
HETATM   27  N           1       4.487  26.436  56.745  0.00  0.00    -0.151 N 
ENDBRANCH   3  26
BRANCH   1  28
HETATM   28  N           1       3.774  24.537  53.749  0.00  0.00    -0.388 N 
HETATM   29  H           1       3.074  24.328  52.996  0.00  0.00     0.157 HD
HETATM   30  H           1       3.808  23.911  54.592  0.00  0.00     0.157 HD
ENDBRANCH   1  28
BRANCH   7  31
HETATM   31  C           1       7.357  23.931  54.885  0.00  0.00    -0.026 A 
HETATM   32  C           1       8.626  23.752  55.298  0.00  0.00     0.009 A 
HETATM   33  C           1       9.437  22.855  54.716  0.00  0.00     0.001 A 
HETATM   34  C           1       8.991  22.115  53.691  0.00  0.00     0.000 A 
HETATM   35  C           1       7.734  22.284  53.257  0.00  0.00     0.001 A 
HETATM   36  C           1       6.931  23.183  53.849  0.00  0.00     0.009 A 
ENDBRANCH   7  31
TORSDOF 11
ENDMDL
MODEL 4
REMARK VINA RESULT:      -5.6      1.905      5.282
REMARK  11 active torsions:
REMARK  status: ('A' for Active; 'I' for Inactive)
REMARK    1  A    between atoms: C_1  and  C_17 
REMARK    2  A    between atoms: C_1  and  S_18 
REMARK    3  A    between atoms: C_2  and  N_23 
REMARK    4  A    between atoms: C_3  and  C_13 
REMARK    5  A    between atoms: C_6  and  S_18 
REMARK    6  A    between atoms: C_6  and  S_19 
REMARK    7  A    between atoms: C_7  and  C_20 
REMARK    8  A    between atoms: C_7  and  C_21 
REMARK    9  A    between atoms: C_9  and  C_24 
REMARK   10  A    between atoms: C_16  and  C_17 
REMARK   11  A    between atoms: S_19  and  C_20 
ROOT
HETATM    1  C           1       3.311  31.989  61.600  0.00  0.00     0.092 C 
HETATM    2  C           1       3.227  33.687  59.894  0.00  0.00     0.156 C 
HETATM    3  C           1       3.979  33.216  62.155  0.00  0.00     0.127 C 
HETATM    4  C           1       4.412  33.977  60.884  0.00  0.00     0.136 C 
HETATM    5  C           1       5.667  33.428  60.295  0.00  0.00     0.079 C 
HETATM    6  N           1       6.692  33.035  59.919  0.00  0.00    -0.196 NA
HETATM    7  C           1       5.109  33.297  63.264  0.00  0.00     0.248 C 
HETATM    8  C           1       5.219  35.699  62.593  0.00  0.00     0.105 C 
HETATM    9  N           1       2.881  32.269  60.397  0.00  0.00    -0.350 N 
HETATM   10  N           1       5.325  34.779  63.718  0.00  0.00    -0.040 N 
HETATM   11  C           1       5.609  37.121  62.917  0.00  0.00     0.075 C 
HETATM   12  C           1       4.787  35.373  61.351  0.00  0.00     0.036 C 
HETATM   13  H           1       2.360  31.590  59.826  0.00  0.00     0.163 HD
HETATM   14  H           1       4.671  35.041  64.485  0.00  0.00     0.284 HD
HETATM   15  H           1       6.291  34.853  64.109  0.00  0.00     0.284 HD
ENDROOT
BRANCH   2  16
HETATM   16  S           1       3.740  33.552  58.150  0.00  0.00    -0.125 SA
BRANCH  16  17
HETATM   17  C           1       3.701  31.759  57.856  0.00  0.00     0.077 C 
BRANCH  17  18
HETATM   18  C           1       5.014  31.337  57.178  0.00  0.00     0.010 C 
BRANCH  18  19
HETATM   19  C           1       5.512  29.981  57.706  0.00  0.00    -0.004 C 
HETATM   20  C           1       7.031  29.977  57.929  0.00  0.00     0.005 C 
ENDBRANCH  18  19
ENDBRANCH  17  18
ENDBRANCH  16  17
ENDBRANCH   2  16
BRANCH   2  21
HETATM   21  S           1       1.828  34.811  60.226  0.00  0.00    -0.125 SA
BRANCH  21  22
HETATM   22  C           1       1.941  35.921  58.787  0.00  0.00     0.077 C 
BRANCH  22  23
HETATM   23  C           1       1.982  37.374  59.286  0.00  0.00     0.010 C 
BRANCH  23  24
HETATM   24  C           1       3.416  37.926  59.306  0.00  0.00    -0.004 C 
HETATM   25  C           1       4.265  37.358  58.161  0.00  0.00     0.005 C 
ENDBRANCH  23  24
ENDBRANCH  22  23
ENDBRANCH  21  22
ENDBRANCH   2  21
BRANCH   3  26
HETATM   26  C           1       2.982  33.995  62.945  0.00  0.00     0.105 C 
HETATM   27  N           1       2.061  33.759  63.607  0.00  0.00    -0.151 N 
ENDBRANCH   3  26
BRANCH   1  28
HETATM   28  N           1       3.110  30.900  62.214  0.00  0.00    -0.388 N 
HETATM   29  H           1       2.250  30.328  62.028  0.00  0.00     0.157 HD
HETATM   30  H           1       3.800  30.552  62.926  0.00  0.00     0.157 HD
ENDBRANCH   1  28
BRANCH   7  31
HETATM   31  C           1       6.430  32.618  62.932  0.00  0.00    -0.026 A 
HETATM   32  C           1       6.440  31.316  62.590  0.00  0.00     0.009 A 
HETATM   33  C           1       7.582  30.672  62.297  0.00  0.00     0.001 A 
HETATM   34  C           1       8.750  31.326  62.348  0.00  0.00     0.000 A 
HETATM   35  C           1       8.764  32.621  62.695  0.00  0.00     0.001 A 
HETATM   36  C           1       7.616  33.254  62.984  0.00  0.00     0.009 A 
ENDBRANCH   7  31
TORSDOF 11
ENDMDL
MODEL 5
REMARK VINA RESULT:      -5.5     10.432     13.144
REMARK  11 active torsions:
REMARK  status: ('A' for Active; 'I' for Inactive)
REMARK    1  A    between atoms: C_1  and  C_17 
REMARK    2  A    between atoms: C_1  and  S_18 
REMARK    3  A    between atoms: C_2  and  N_23 
REMARK    4  A    between atoms: C_3  and  C_13 
REMARK    5  A    between atoms: C_6  and  S_18 
REMARK    6  A    between atoms: C_6  and  S_19 
REMARK    7  A    between atoms: C_7  and  C_20 
REMARK    8  A    between atoms: C_7  and  C_21 
REMARK    9  A    between atoms: C_9  and  C_24 
REMARK   10  A    between atoms: C_16  and  C_17 
REMARK   11  A    between atoms: S_19  and  C_20 
ROOT
HETATM    1  C           1       2.777  28.233  49.040  0.00  0.00     0.092 C 
HETATM    2  C           1       4.051  28.695  51.031  0.00  0.00     0.156 C 
HETATM    3  C           1       3.648  29.423  48.750  0.00  0.00     0.127 C 
HETATM    4  C           1       3.933  29.994  50.156  0.00  0.00     0.136 C 
HETATM    5  C           1       2.800  30.813  50.674  0.00  0.00     0.079 C 
HETATM    6  N           1       1.941  31.519  51.005  0.00  0.00    -0.196 NA
HETATM    7  C           1       3.388  30.597  47.715  0.00  0.00     0.248 C 
HETATM    8  C           1       5.357  31.653  48.830  0.00  0.00     0.105 C 
HETATM    9  N           1       3.030  27.832  50.259  0.00  0.00    -0.350 N 
HETATM   10  N           1       4.671  31.481  47.557  0.00  0.00    -0.040 N 
HETATM   11  C           1       6.489  32.651  48.794  0.00  0.00     0.075 C 
HETATM   12  C           1       5.070  30.984  49.973  0.00  0.00     0.036 C 
HETATM   13  H           1       2.575  27.008  50.673  0.00  0.00     0.163 HD
HETATM   14  H           1       5.310  31.096  46.830  0.00  0.00     0.284 HD
HETATM   15  H           1       4.367  32.422  47.220  0.00  0.00     0.284 HD
ENDROOT
BRANCH   2  16
HETATM   16  S           1       3.436  28.897  52.736  0.00  0.00    -0.125 SA
BRANCH  16  17
HETATM   17  C           1       4.968  28.938  53.714  0.00  0.00     0.077 C 
BRANCH  17  18
HETATM   18  C           1       4.967  27.751  54.691  0.00  0.00     0.010 C 
BRANCH  18  19
HETATM   19  C           1       6.392  27.387  55.140  0.00  0.00    -0.004 C 
HETATM   20  C           1       7.457  28.059  54.261  0.00  0.00     0.005 C 
ENDBRANCH  18  19
ENDBRANCH  17  18
ENDBRANCH  16  17
ENDBRANCH   2  16
BRANCH   2  21
HETATM   21  S           1       5.716  27.964  50.869  0.00  0.00    -0.125 SA
BRANCH  21  22
HETATM   22  C           1       5.292  26.201  50.700  0.00  0.00     0.077 C 
BRANCH  22  23
HETATM   23  C           1       5.771  25.456  51.956  0.00  0.00     0.010 C 
BRANCH  23  24
HETATM   24  C           1       7.279  25.161  51.899  0.00  0.00    -0.004 C 
HETATM   25  C           1       7.735  24.277  53.068  0.00  0.00     0.005 C 
ENDBRANCH  23  24
ENDBRANCH  22  23
ENDBRANCH  21  22
ENDBRANCH   2  21
BRANCH   3  26
HETATM   26  C           1       4.901  28.957  48.087  0.00  0.00     0.105 C 
HETATM   27  N           1       5.191  28.151  47.306  0.00  0.00    -0.151 N 
ENDBRANCH   3  26
BRANCH   1  28
HETATM   28  N           1       1.999  27.655  48.226  0.00  0.00    -0.388 N 
HETATM   29  H           1       1.157  28.150  47.842  0.00  0.00     0.157 HD
HETATM   30  H           1       2.181  26.666  47.924  0.00  0.00     0.157 HD
ENDBRANCH   1  28
BRANCH   7  31
HETATM   31  C           1       2.152  31.449  47.960  0.00  0.00    -0.026 A 
HETATM   32  C           1       0.938  30.867  47.987  0.00  0.00     0.009 A 
HETATM   33  C           1      -0.182  31.579  48.191  0.00  0.00     0.001 A 
HETATM   34  C           1      -0.108  32.905  48.366  0.00  0.00     0.000 A 
HETATM   35  C           1       1.089  33.507  48.333  0.00  0.00     0.001 A 
HETATM   36  C           1       2.202  32.784  48.131  0.00  0.00     0.009 A 
ENDBRANCH   7  31
TORSDOF 11
ENDMDL
MODEL 6
REMARK VINA RESULT:      -5.4     25.038     27.208
REMARK  11 active torsions:
REMARK  status: ('A' for Active; 'I' for Inactive)
REMARK    1  A    between atoms: C_1  and  C_17 
REMARK    2  A    between atoms: C_1  and  S_18 
REMARK    3  A    between atoms: C_2  and  N_23 
REMARK    4  A    between atoms: C_3  and  C_13 
REMARK    5  A    between atoms: C_6  and  S_18 
REMARK    6  A    between atoms: C_6  and  S_19 
REMARK    7  A    between atoms: C_7  and  C_20 
REMARK    8  A    between atoms: C_7  and  C_21 
REMARK    9  A    between atoms: C_9  and  C_24 
REMARK   10  A    between atoms: C_16  and  C_17 
REMARK   11  A    between atoms: S_19  and  C_20 
ROOT
HETATM    1  C           1      11.450  10.139  55.941  0.00  0.00     0.092 C 
HETATM    2  C           1      10.999   8.665  54.090  0.00  0.00     0.156 C 
HETATM    3  C           1      11.977  10.803  54.700  0.00  0.00     0.127 C 
HETATM    4  C           1      12.202   9.614  53.741  0.00  0.00     0.136 C 
HETATM    5  C           1      13.474   8.891  54.025  0.00  0.00     0.079 C 
HETATM    6  N           1      14.514   8.410  54.214  0.00  0.00    -0.196 NA
HETATM    7  C           1      13.164  11.847  54.578  0.00  0.00     0.248 C 
HETATM    8  C           1      12.882  11.475  52.126  0.00  0.00     0.105 C 
HETATM    9  N           1      10.896   9.006  55.592  0.00  0.00    -0.350 N 
HETATM   10  N           1      13.201  12.468  53.142  0.00  0.00    -0.040 N 
HETATM   11  C           1      13.089  11.950  50.708  0.00  0.00     0.075 C 
HETATM   12  C           1      12.409  10.229  52.368  0.00  0.00     0.036 C 
HETATM   13  H           1      10.435   8.386  56.271  0.00  0.00     0.163 HD
HETATM   14  H           1      12.576  13.299  53.070  0.00  0.00     0.284 HD
HETATM   15  H           1      14.174  12.810  52.970  0.00  0.00     0.284 HD
ENDROOT
BRANCH   2  16
HETATM   16  S           1      11.395   6.891  53.945  0.00  0.00    -0.125 SA
BRANCH  16  17
HETATM   17  C           1      10.735   6.463  52.306  0.00  0.00     0.077 C 
BRANCH  17  18
HETATM   18  C           1      11.804   6.768  51.244  0.00  0.00     0.010 C 
BRANCH  18  19
HETATM   19  C           1      11.224   7.579  50.074  0.00  0.00    -0.004 C 
HETATM   20  C           1      12.327   8.200  49.206  0.00  0.00     0.005 C 
ENDBRANCH  18  19
ENDBRANCH  17  18
ENDBRANCH  16  17
ENDBRANCH   2  16
BRANCH   2  21
HETATM   21  S           1       9.483   9.213  53.234  0.00  0.00    -0.125 SA
BRANCH  21  22
HETATM   22  C           1       8.253   8.989  54.556  0.00  0.00     0.077 C 
BRANCH  22  23
HETATM   23  C           1       7.230  10.134  54.478  0.00  0.00     0.010 C 
BRANCH  23  24
HETATM   24  C           1       6.428  10.267  55.784  0.00  0.00    -0.004 C 
HETATM   25  C           1       7.111   9.542  56.951  0.00  0.00     0.005 C 
ENDBRANCH  23  24
ENDBRANCH  22  23
ENDBRANCH  21  22
ENDBRANCH   2  21
BRANCH   3  26
HETATM   26  C           1      10.942  11.739  54.174  0.00  0.00     0.105 C 
HETATM   27  N           1      10.100  12.400  54.618  0.00  0.00    -0.151 N 
ENDBRANCH   3  26
BRANCH   1  28
HETATM   28  N           1      11.452  10.623  57.111  0.00  0.00    -0.388 N 
HETATM   29  H           1      11.245  10.018  57.943  0.00  0.00     0.157 HD
HETATM   30  H           1      11.656  11.641  57.268  0.00  0.00     0.157 HD
ENDBRANCH   1  28
BRANCH   7  31
HETATM   31  C           1      14.539  11.358  55.009  0.00  0.00    -0.026 A 
HETATM   32  C           1      14.706  10.844  56.242  0.00  0.00     0.009 A 
HETATM   33  C           1      15.901  10.407  56.669  0.00  0.00     0.001 A 
HETATM   34  C           1      16.968  10.485  55.863  0.00  0.00     0.000 A 
HETATM   35  C           1      16.828  11.003  54.634  0.00  0.00     0.001 A 
HETATM   36  C           1      15.626  11.434  54.217  0.00  0.00     0.009 A 
ENDBRANCH   7  31
TORSDOF 11
ENDMDL
MODEL 7
REMARK VINA RESULT:      -5.4     10.458     14.148
REMARK  11 active torsions:
REMARK  status: ('A' for Active; 'I' for Inactive)
REMARK    1  A    between atoms: C_1  and  C_17 
REMARK    2  A    between atoms: C_1  and  S_18 
REMARK    3  A    between atoms: C_2  and  N_23 
REMARK    4  A    between atoms: C_3  and  C_13 
REMARK    5  A    between atoms: C_6  and  S_18 
REMARK    6  A    between atoms: C_6  and  S_19 
REMARK    7  A    between atoms: C_7  and  C_20 
REMARK    8  A    between atoms: C_7  and  C_21 
REMARK    9  A    between atoms: C_9  and  C_24 
REMARK   10  A    between atoms: C_16  and  C_17 
REMARK   11  A    between atoms: S_19  and  C_20 
ROOT
HETATM    1  C           1       3.074  27.525  48.522  0.00  0.00     0.092 C 
HETATM    2  C           1       3.877  28.559  50.544  0.00  0.00     0.156 C 
HETATM    3  C           1       3.706  28.833  48.136  0.00  0.00     0.127 C 
HETATM    4  C           1       3.629  29.652  49.443  0.00  0.00     0.136 C 
HETATM    5  C           1       2.278  30.245  49.660  0.00  0.00     0.079 C 
HETATM    6  N           1       1.245  30.766  49.749  0.00  0.00    -0.196 NA
HETATM    7  C           1       3.374  29.749  46.885  0.00  0.00     0.248 C 
HETATM    8  C           1       4.862  31.392  48.033  0.00  0.00     0.105 C 
HETATM    9  N           1       3.204  27.376  49.815  0.00  0.00    -0.350 N 
HETATM   10  N           1       4.446  30.880  46.736  0.00  0.00    -0.040 N 
HETATM   11  C           1       5.745  32.615  47.963  0.00  0.00     0.075 C 
HETATM   12  C           1       4.542  30.847  49.232  0.00  0.00     0.036 C 
HETATM   13  H           1       2.875  26.536  50.308  0.00  0.00     0.163 HD
HETATM   14  H           1       5.263  30.557  46.175  0.00  0.00     0.284 HD
HETATM   15  H           1       4.007  31.663  46.201  0.00  0.00     0.284 HD
ENDROOT
BRANCH   2  16
HETATM   16  S           1       2.963  28.853  52.094  0.00  0.00    -0.125 SA
BRANCH  16  17
HETATM   17  C           1       4.025  30.042  52.968  0.00  0.00     0.077 C 
BRANCH  17  18
HETATM   18  C           1       3.265  31.371  53.118  0.00  0.00     0.010 C 
BRANCH  18  19
HETATM   19  C           1       4.031  32.535  52.468  0.00  0.00    -0.004 C 
HETATM   20  C           1       3.124  33.381  51.563  0.00  0.00     0.005 C 
ENDBRANCH  18  19
ENDBRANCH  17  18
ENDBRANCH  16  17
ENDBRANCH   2  16
BRANCH   2  21
HETATM   21  S           1       5.663  28.229  50.725  0.00  0.00    -0.125 SA
BRANCH  21  22
HETATM   22  C           1       5.637  26.449  51.105  0.00  0.00     0.077 C 
BRANCH  22  23
HETATM   23  C           1       6.579  26.183  52.291  0.00  0.00     0.010 C 
BRANCH  23  24
HETATM   24  C           1       7.579  25.057  51.979  0.00  0.00    -0.004 C 
HETATM   25  C           1       7.330  23.815  52.846  0.00  0.00     0.005 C 
ENDBRANCH  23  24
ENDBRANCH  22  23
ENDBRANCH  21  22
ENDBRANCH   2  21
BRANCH   3  26
HETATM   26  C           1       5.121  28.587  47.731  0.00  0.00     0.105 C 
HETATM   27  N           1       5.698  27.777  47.136  0.00  0.00    -0.151 N 
ENDBRANCH   3  26
BRANCH   1  28
HETATM   28  N           1       2.582  26.667  47.732  0.00  0.00    -0.388 N 
HETATM   29  H           1       2.774  25.644  47.862  0.00  0.00     0.157 HD
HETATM   30  H           1       1.976  26.966  46.928  0.00  0.00     0.157 HD
ENDBRANCH   1  28
BRANCH   7  31
HETATM   31  C           1       1.961  30.309  46.816  0.00  0.00    -0.026 A 
HETATM   32  C           1       0.913  29.465  46.767  0.00  0.00     0.009 A 
HETATM   33  C           1      -0.351  29.912  46.696  0.00  0.00     0.001 A 
HETATM   34  C           1      -0.593  31.229  46.667  0.00  0.00     0.000 A 
HETATM   35  C           1       0.436  32.088  46.705  0.00  0.00     0.001 A 
HETATM   36  C           1       1.695  31.629  46.777  0.00  0.00     0.009 A 
ENDBRANCH   7  31
TORSDOF 11
ENDMDL
MODEL 8
REMARK VINA RESULT:      -5.4     25.305     27.516
REMARK  11 active torsions:
REMARK  status: ('A' for Active; 'I' for Inactive)
REMARK    1  A    between atoms: C_1  and  C_17 
REMARK    2  A    between atoms: C_1  and  S_18 
REMARK    3  A    between atoms: C_2  and  N_23 
REMARK    4  A    between atoms: C_3  and  C_13 
REMARK    5  A    between atoms: C_6  and  S_18 
REMARK    6  A    between atoms: C_6  and  S_19 
REMARK    7  A    between atoms: C_7  and  C_20 
REMARK    8  A    between atoms: C_7  and  C_21 
REMARK    9  A    between atoms: C_9  and  C_24 
REMARK   10  A    between atoms: C_16  and  C_17 
REMARK   11  A    between atoms: S_19  and  C_20 
ROOT
HETATM    1  C           1      12.379  11.860  52.908  0.00  0.00     0.092 C 
HETATM    2  C           1      13.972  10.057  52.804  0.00  0.00     0.156 C 
HETATM    3  C           1      12.477  11.269  54.286  0.00  0.00     0.127 C 
HETATM    4  C           1      12.992   9.839  54.012  0.00  0.00     0.136 C 
HETATM    5  C           1      11.901   8.919  53.578  0.00  0.00     0.079 C 
HETATM    6  N           1      11.015   8.212  53.333  0.00  0.00    -0.196 NA
HETATM    7  C           1      11.375  11.254  55.426  0.00  0.00     0.248 C 
HETATM    8  C           1      12.958   9.696  56.564  0.00  0.00     0.105 C 
HETATM    9  N           1      13.214  11.221  52.130  0.00  0.00    -0.350 N 
HETATM   10  N           1      11.992  10.765  56.778  0.00  0.00    -0.040 N 
HETATM   11  C           1      13.448   9.041  57.833  0.00  0.00     0.075 C 
HETATM   12  C           1      13.435   9.298  55.360  0.00  0.00     0.036 C 
HETATM   13  H           1      13.347  11.470  51.141  0.00  0.00     0.163 HD
HETATM   14  H           1      12.413  11.555  57.312  0.00  0.00     0.284 HD
HETATM   15  H           1      11.213  10.389  57.364  0.00  0.00     0.284 HD
ENDROOT
BRANCH   2  16
HETATM   16  S           1      14.016   8.663  51.630  0.00  0.00    -0.125 SA
BRANCH  16  17
HETATM   17  C           1      14.180   9.496  50.022  0.00  0.00     0.077 C 
BRANCH  17  18
HETATM   18  C           1      15.508   9.070  49.375  0.00  0.00     0.010 C 
BRANCH  18  19
HETATM   19  C           1      16.683   9.920  49.884  0.00  0.00    -0.004 C 
HETATM   20  C           1      18.027   9.195  49.721  0.00  0.00     0.005 C 
ENDBRANCH  18  19
ENDBRANCH  17  18
ENDBRANCH  16  17
ENDBRANCH   2  16
BRANCH   2  21
HETATM   21  S           1      15.595  10.647  53.397  0.00  0.00    -0.125 SA
BRANCH  21  22
HETATM   22  C           1      16.425   9.062  53.732  0.00  0.00     0.077 C 
BRANCH  22  23
HETATM   23  C           1      16.888   9.048  55.199  0.00  0.00     0.010 C 
BRANCH  23  24
HETATM   24  C           1      16.891  10.461  55.805  0.00  0.00    -0.004 C 
HETATM   25  C           1      16.975  10.426  57.337  0.00  0.00     0.005 C 
ENDBRANCH  23  24
ENDBRANCH  22  23
ENDBRANCH  21  22
ENDBRANCH   2  21
BRANCH   3  26
HETATM   26  C           1      13.461  12.059  55.083  0.00  0.00     0.105 C 
HETATM   27  N           1      13.870  13.143  55.081  0.00  0.00    -0.151 N 
ENDBRANCH   3  26
BRANCH   1  28
HETATM   28  N           1      11.683  12.862  52.568  0.00  0.00    -0.388 N 
HETATM   29  H           1      10.740  12.736  52.126  0.00  0.00     0.157 HD
HETATM   30  H           1      12.042  13.838  52.718  0.00  0.00     0.157 HD
ENDBRANCH   1  28
BRANCH   7  31
HETATM   31  C           1      10.083  10.517  55.105  0.00  0.00    -0.026 A 
HETATM   32  C           1       9.310  10.944  54.088  0.00  0.00     0.009 A 
HETATM   33  C           1       8.158  10.331  53.772  0.00  0.00     0.001 A 
HETATM   34  C           1       7.749   9.270  54.482  0.00  0.00     0.000 A 
HETATM   35  C           1       8.498   8.835  55.505  0.00  0.00     0.001 A 
HETATM   36  C           1       9.649   9.455  55.809  0.00  0.00     0.009 A 
ENDBRANCH   7  31
TORSDOF 11
ENDMDL
MODEL 9
REMARK VINA RESULT:      -5.2     10.511     13.043
REMARK  11 active torsions:
REMARK  status: ('A' for Active; 'I' for Inactive)
REMARK    1  A    between atoms: C_1  and  C_17 
REMARK    2  A    between atoms: C_1  and  S_18 
REMARK    3  A    between atoms: C_2  and  N_23 
REMARK    4  A    between atoms: C_3  and  C_13 
REMARK    5  A    between atoms: C_6  and  S_18 
REMARK    6  A    between atoms: C_6  and  S_19 
REMARK    7  A    between atoms: C_7  and  C_20 
REMARK    8  A    between atoms: C_7  and  C_21 
REMARK    9  A    between atoms: C_9  and  C_24 
REMARK   10  A    between atoms: C_16  and  C_17 
REMARK   11  A    between atoms: S_19  and  C_20 
ROOT
HETATM    1  C           1       2.564  30.869  50.115  0.00  0.00     0.092 C 
HETATM    2  C           1       3.898  29.481  48.668  0.00  0.00     0.156 C 
HETATM    3  C           1       3.076  31.742  49.004  0.00  0.00     0.127 C 
HETATM    4  C           1       4.332  30.984  48.521  0.00  0.00     0.136 C 
HETATM    5  C           1       5.511  31.225  49.400  0.00  0.00     0.079 C 
HETATM    6  N           1       6.429  31.509  50.051  0.00  0.00    -0.196 NA
HETATM    7  C           1       3.346  33.304  49.032  0.00  0.00     0.248 C 
HETATM    8  C           1       4.416  32.887  46.816  0.00  0.00     0.105 C 
HETATM    9  N           1       2.986  29.649  49.902  0.00  0.00    -0.350 N 
HETATM   10  N           1       3.627  33.837  47.587  0.00  0.00    -0.040 N 
HETATM   11  C           1       4.892  33.414  45.483  0.00  0.00     0.075 C 
HETATM   12  C           1       4.707  31.618  47.193  0.00  0.00     0.036 C 
HETATM   13  H           1       2.735  28.864  50.517  0.00  0.00     0.163 HD
HETATM   14  H           1       2.743  34.084  47.095  0.00  0.00     0.284 HD
HETATM   15  H           1       4.177  34.721  47.677  0.00  0.00     0.284 HD
ENDROOT
BRANCH   2  16
HETATM   16  S           1       5.262  28.363  49.129  0.00  0.00    -0.125 SA
BRANCH  16  17
HETATM   17  C           1       4.582  27.464  50.556  0.00  0.00     0.077 C 
BRANCH  17  18
HETATM   18  C           1       5.129  26.028  50.546  0.00  0.00     0.010 C 
BRANCH  18  19
HETATM   19  C           1       5.150  25.422  51.959  0.00  0.00    -0.004 C 
HETATM   20  C           1       4.779  26.457  53.031  0.00  0.00     0.005 C 
ENDBRANCH  18  19
ENDBRANCH  17  18
ENDBRANCH  16  17
ENDBRANCH   2  16
BRANCH   2  21
HETATM   21  S           1       2.896  28.962  47.233  0.00  0.00    -0.125 SA
BRANCH  21  22
HETATM   22  C           1       1.540  28.083  48.074  0.00  0.00     0.077 C 
BRANCH  22  23
HETATM   23  C           1       1.460  26.652  47.517  0.00  0.00     0.010 C 
BRANCH  23  24
HETATM   24  C           1       2.857  26.043  47.316  0.00  0.00    -0.004 C 
HETATM   25  C           1       2.958  24.634  47.916  0.00  0.00     0.005 C 
ENDBRANCH  23  24
ENDBRANCH  22  23
ENDBRANCH  21  22
ENDBRANCH   2  21
BRANCH   3  26
HETATM   26  C           1       2.041  31.820  47.933  0.00  0.00     0.105 C 
HETATM   27  N           1       0.885  31.882  47.881  0.00  0.00    -0.151 N 
ENDBRANCH   3  26
BRANCH   1  28
HETATM   28  N           1       1.784  31.221  51.049  0.00  0.00    -0.388 N 
HETATM   29  H           1       0.744  31.213  50.912  0.00  0.00     0.157 HD
HETATM   30  H           1       2.167  31.533  51.976  0.00  0.00     0.157 HD
ENDBRANCH   1  28
BRANCH   7  31
HETATM   31  C           1       4.399  33.789  50.019  0.00  0.00    -0.026 A 
HETATM   32  C           1       4.255  33.519  51.330  0.00  0.00     0.009 A 
HETATM   33  C           1       5.153  33.933  52.238  0.00  0.00     0.001 A 
HETATM   34  C           1       6.222  34.639  51.847  0.00  0.00     0.000 A 
HETATM   35  C           1       6.381  34.927  50.548  0.00  0.00     0.001 A 
HETATM   36  C           1       5.477  34.506  49.648  0.00  0.00     0.009 A 
ENDBRANCH   7  31
TORSDOF 11
ENDMDL
MODEL 10
REMARK VINA RESULT:      -5.2     24.190     28.346
REMARK  11 active torsions:
REMARK  status: ('A' for Active; 'I' for Inactive)
REMARK    1  A    between atoms: C_1  and  C_17 
REMARK    2  A    between atoms: C_1  and  S_18 
REMARK    3  A    between atoms: C_2  and  N_23 
REMARK    4  A    between atoms: C_3  and  C_13 
REMARK    5  A    between atoms: C_6  and  S_18 
REMARK    6  A    between atoms: C_6  and  S_19 
REMARK    7  A    between atoms: C_7  and  C_20 
REMARK    8  A    between atoms: C_7  and  C_21 
REMARK    9  A    between atoms: C_9  and  C_24 
REMARK   10  A    between atoms: C_16  and  C_17 
REMARK   11  A    between atoms: S_19  and  C_20 
ROOT
HETATM    1  C           1      13.462   9.645  55.220  0.00  0.00     0.092 C 
HETATM    2  C           1      11.609   9.035  53.807  0.00  0.00     0.156 C 
HETATM    3  C           1      13.687  10.290  53.882  0.00  0.00     0.127 C 
HETATM    4  C           1      12.857   9.404  52.928  0.00  0.00     0.136 C 
HETATM    5  C           1      13.569   8.145  52.562  0.00  0.00     0.079 C 
HETATM    6  N           1      14.188   7.224  52.227  0.00  0.00    -0.196 NA
HETATM    7  C           1      15.066  10.692  53.209  0.00  0.00     0.248 C 
HETATM    8  C           1      13.653  11.105  51.193  0.00  0.00     0.105 C 
HETATM    9  N           1      12.323   9.002  55.176  0.00  0.00    -0.350 N 
HETATM   10  N           1      14.818  11.566  51.935  0.00  0.00    -0.040 N 
HETATM   11  C           1      13.467  11.773  49.851  0.00  0.00     0.075 C 
HETATM   12  C           1      12.761  10.181  51.627  0.00  0.00     0.036 C 
HETATM   13  H           1      11.939   8.505  55.990  0.00  0.00     0.163 HD
HETATM   14  H           1      14.738  12.577  52.176  0.00  0.00     0.284 HD
HETATM   15  H           1      15.656  11.471  51.318  0.00  0.00     0.284 HD
ENDROOT
BRANCH   2  16
HETATM   16  S           1      10.946   7.367  53.483  0.00  0.00    -0.125 SA
BRANCH  16  17
HETATM   17  C           1       9.968   7.610  51.970  0.00  0.00     0.077 C 
BRANCH  17  18
HETATM   18  C           1      10.530   6.704  50.863  0.00  0.00     0.010 C 
BRANCH  18  19
HETATM   19  C           1      11.017   7.522  49.656  0.00  0.00    -0.004 C 
HETATM   20  C           1      10.070   7.389  48.455  0.00  0.00     0.005 C 
ENDBRANCH  18  19
ENDBRANCH  17  18
ENDBRANCH  16  17
ENDBRANCH   2  16
BRANCH   2  21
HETATM   21  S           1      10.389  10.392  53.787  0.00  0.00    -0.125 SA
BRANCH  21  22
HETATM   22  C           1       9.143   9.739  54.942  0.00  0.00     0.077 C 
BRANCH  22  23
HETATM   23  C           1       7.745  10.121  54.428  0.00  0.00     0.010 C 
BRANCH  23  24
HETATM   24  C           1       7.349  11.540  54.867  0.00  0.00    -0.004 C 
HETATM   25  C           1       7.320  12.518  53.684  0.00  0.00     0.005 C 
ENDBRANCH  23  24
ENDBRANCH  22  23
ENDBRANCH  21  22
ENDBRANCH   2  21
BRANCH   3  26
HETATM   26  C           1      13.163  11.686  53.923  0.00  0.00     0.105 C 
HETATM   27  N           1      13.251  12.599  54.631  0.00  0.00    -0.151 N 
ENDBRANCH   3  26
BRANCH   1  28
HETATM   28  N           1      14.191   9.771  56.248  0.00  0.00    -0.388 N 
HETATM   29  H           1      14.968   9.093  56.442  0.00  0.00     0.157 HD
HETATM   30  H           1      14.027  10.554  56.927  0.00  0.00     0.157 HD
ENDBRANCH   1  28
BRANCH   7  31
HETATM   31  C           1      16.034   9.554  52.924  0.00  0.00    -0.026 A 
HETATM   32  C           1      16.428   8.748  53.929  0.00  0.00     0.009 A 
HETATM   33  C           1      17.287   7.737  53.727  0.00  0.00     0.001 A 
HETATM   34  C           1      17.780   7.513  52.501  0.00  0.00     0.000 A 
HETATM   35  C           1      17.409   8.308  51.488  0.00  0.00     0.001 A 
HETATM   36  C           1      16.548   9.315  51.702  0.00  0.00     0.009 A 
ENDBRANCH   7  31
TORSDOF 11
ENDMDL
