MODEL 1
REMARK VINA RESULT:      -9.1      0.000      0.000
REMARK  3 active torsions:
REMARK  status: ('A' for Active; 'I' for Inactive)
REMARK    1  A    between atoms: C_2  and  C_3 
REMARK    2  A    between atoms: C_9  and  C_10 
REMARK    3  A    between atoms: C_23  and  N_24 
ROOT
HETATM    1  C   UNL     1       8.656  29.252  57.332  1.00  0.00     0.066 A 
HETATM    2  N   UNL     1       8.686  29.969  58.470  1.00  0.00    -0.177 NA
HETATM    3  N   UNL     1       7.390  30.228  58.736  1.00  0.00    -0.256 N 
HETATM    4  H   UNL     1       7.159  30.779  59.555  1.00  0.00     0.191 HD
HETATM    5  C   UNL     1       6.551  29.716  57.802  1.00  0.00     0.175 A 
HETATM    6  C   UNL     1       7.326  29.046  56.891  1.00  0.00     0.035 A 
HETATM    7  C   UNL     1       6.688  28.381  55.718  1.00  0.00     0.106 A 
HETATM    8  C   UNL     1       5.187  28.695  55.681  1.00  0.00     0.081 A 
HETATM    9  C   UNL     1       4.474  28.251  54.529  1.00  0.00     0.100 C 
HETATM   10  N   UNL     1       3.885  27.891  53.596  1.00  0.00    -0.191 NA
HETATM   11  C   UNL     1       4.551  29.393  56.663  1.00  0.00     0.140 A 
HETATM   12  O   UNL     1       5.235  29.883  57.792  1.00  0.00    -0.279 OA
ENDROOT
BRANCH   7  13
HETATM   13  C   UNL     1       6.980  26.885  55.867  1.00  0.00    -0.033 A 
HETATM   14  C   UNL     1       7.303  26.049  54.750  1.00  0.00    -0.019 A 
HETATM   15  C   UNL     1       7.542  24.666  54.983  1.00  0.00    -0.025 A 
HETATM   16  C   UNL     1       7.409  26.492  53.407  1.00  0.00     0.013 A 
HETATM   17  C   UNL     1       7.872  23.810  53.921  1.00  0.00     0.012 A 
HETATM   18  C   UNL     1       7.451  24.139  56.278  1.00  0.00     0.012 A 
HETATM   19  C   UNL     1       7.974  24.286  52.617  1.00  0.00     0.001 A 
HETATM   20  C   UNL     1       7.741  25.627  52.361  1.00  0.00     0.001 A 
HETATM   21  C   UNL     1       7.130  24.949  57.358  1.00  0.00     0.001 A 
HETATM   22  C   UNL     1       6.898  26.304  57.156  1.00  0.00     0.009 A 
ENDBRANCH   7  13
BRANCH  11  23
HETATM   23  N   UNL     1       3.210  29.701  56.682  1.00  0.00    -0.282 NA
HETATM   24  H   UNL     1       2.577  28.908  56.753  1.00  0.00     0.126 HD
HETATM   25  H   UNL     1       2.996  30.444  57.343  1.00  0.00     0.126 HD
ENDBRANCH  11  23
BRANCH   1  26
HETATM   26  C   UNL     1       9.934  28.817  56.697  1.00  0.00     0.057 C 
HETATM   27  C   UNL     1      11.112  29.702  57.069  1.00  0.00     0.011 C 
ENDBRANCH   1  26
TORSDOF 3
ENDMDL
MODEL 2
REMARK VINA RESULT:      -8.4      1.853      2.588
REMARK  3 active torsions:
REMARK  status: ('A' for Active; 'I' for Inactive)
REMARK    1  A    between atoms: C_2  and  C_3 
REMARK    2  A    between atoms: C_9  and  C_10 
REMARK    3  A    between atoms: C_23  and  N_24 
ROOT
HETATM    1  C   UNL     1       7.079  29.296  55.688  1.00  0.00     0.066 A 
HETATM    2  N   UNL     1       6.554  30.376  56.295  1.00  0.00    -0.177 NA
HETATM    3  N   UNL     1       5.313  30.480  55.778  1.00  0.00    -0.256 N 
HETATM    4  H   UNL     1       4.719  31.244  56.080  1.00  0.00     0.191 HD
HETATM    5  C   UNL     1       5.047  29.518  54.860  1.00  0.00     0.175 A 
HETATM    6  C   UNL     1       6.151  28.708  54.794  1.00  0.00     0.035 A 
HETATM    7  C   UNL     1       6.172  27.555  53.850  1.00  0.00     0.106 A 
HETATM    8  C   UNL     1       4.911  27.560  52.976  1.00  0.00     0.081 A 
HETATM    9  C   UNL     1       4.866  26.602  51.921  1.00  0.00     0.100 C 
HETATM   10  N   UNL     1       4.819  25.824  51.061  1.00  0.00    -0.191 NA
HETATM   11  C   UNL     1       3.891  28.446  53.152  1.00  0.00     0.140 A 
HETATM   12  O   UNL     1       3.925  29.432  54.156  1.00  0.00    -0.279 OA
ENDROOT
BRANCH   7  13
HETATM   13  C   UNL     1       6.291  26.297  54.716  1.00  0.00    -0.033 A 
HETATM   14  C   UNL     1       6.971  25.118  54.272  1.00  0.00    -0.019 A 
HETATM   15  C   UNL     1       7.016  23.992  55.140  1.00  0.00    -0.025 A 
HETATM   16  C   UNL     1       7.618  24.977  53.018  1.00  0.00     0.013 A 
HETATM   17  C   UNL     1       7.681  22.818  54.752  1.00  0.00     0.012 A 
HETATM   18  C   UNL     1       6.397  24.039  56.395  1.00  0.00     0.012 A 
HETATM   19  C   UNL     1       8.310  22.722  53.514  1.00  0.00     0.001 A 
HETATM   20  C   UNL     1       8.277  23.802  52.647  1.00  0.00     0.001 A 
HETATM   21  C   UNL     1       5.731  25.180  56.821  1.00  0.00     0.001 A 
HETATM   22  C   UNL     1       5.679  26.294  55.993  1.00  0.00     0.009 A 
ENDBRANCH   7  13
BRANCH  11  23
HETATM   23  N   UNL     1       2.739  28.495  52.401  1.00  0.00    -0.282 NA
HETATM   24  H   UNL     1       2.836  28.216  51.427  1.00  0.00     0.126 HD
HETATM   25  H   UNL     1       1.956  28.048  52.869  1.00  0.00     0.126 HD
ENDBRANCH  11  23
BRANCH   1  26
HETATM   26  C   UNL     1       8.485  28.892  55.981  1.00  0.00     0.057 C 
HETATM   27  C   UNL     1       8.623  28.136  57.292  1.00  0.00     0.011 C 
ENDBRANCH   1  26
TORSDOF 3
ENDMDL
MODEL 3
REMARK VINA RESULT:      -8.1      4.576      6.583
REMARK  3 active torsions:
REMARK  status: ('A' for Active; 'I' for Inactive)
REMARK    1  A    between atoms: C_2  and  C_3 
REMARK    2  A    between atoms: C_9  and  C_10 
REMARK    3  A    between atoms: C_23  and  N_24 
ROOT
HETATM    1  C   UNL     1       5.507  31.980  62.105  1.00  0.00     0.066 A 
HETATM    2  N   UNL     1       4.586  31.810  63.070  1.00  0.00    -0.177 NA
HETATM    3  N   UNL     1       3.451  32.310  62.542  1.00  0.00    -0.256 N 
HETATM    4  H   UNL     1       2.606  32.304  63.101  1.00  0.00     0.191 HD
HETATM    5  C   UNL     1       3.629  32.800  61.290  1.00  0.00     0.175 A 
HETATM    6  C   UNL     1       4.939  32.576  60.953  1.00  0.00     0.035 A 
HETATM    7  C   UNL     1       5.453  33.025  59.627  1.00  0.00     0.106 A 
HETATM    8  C   UNL     1       4.373  33.818  58.879  1.00  0.00     0.081 A 
HETATM    9  C   UNL     1       4.772  34.440  57.660  1.00  0.00     0.100 C 
HETATM   10  N   UNL     1       5.089  34.948  56.665  1.00  0.00    -0.191 NA
HETATM   11  C   UNL     1       3.104  33.969  59.351  1.00  0.00     0.140 A 
HETATM   12  O   UNL     1       2.690  33.404  60.572  1.00  0.00    -0.279 OA
ENDROOT
BRANCH   7  13
HETATM   13  C   UNL     1       5.880  31.754  58.884  1.00  0.00    -0.033 A 
HETATM   14  C   UNL     1       7.252  31.373  58.739  1.00  0.00    -0.019 A 
HETATM   15  C   UNL     1       7.554  30.184  58.019  1.00  0.00    -0.025 A 
HETATM   16  C   UNL     1       8.355  32.091  59.266  1.00  0.00     0.013 A 
HETATM   17  C   UNL     1       8.884  29.763  57.860  1.00  0.00     0.012 A 
HETATM   18  C   UNL     1       6.526  29.415  57.457  1.00  0.00     0.012 A 
HETATM   19  C   UNL     1       9.939  30.493  58.398  1.00  0.00     0.001 A 
HETATM   20  C   UNL     1       9.674  31.658  59.100  1.00  0.00     0.001 A 
HETATM   21  C   UNL     1       5.197  29.791  57.592  1.00  0.00     0.001 A 
HETATM   22  C   UNL     1       4.878  30.945  58.296  1.00  0.00     0.009 A 
ENDBRANCH   7  13
BRANCH  11  23
HETATM   23  N   UNL     1       2.097  34.666  58.723  1.00  0.00    -0.282 NA
HETATM   24  H   UNL     1       1.666  35.407  59.271  1.00  0.00     0.126 HD
HETATM   25  H   UNL     1       2.362  34.964  57.787  1.00  0.00     0.126 HD
ENDBRANCH  11  23
BRANCH   1  26
HETATM   26  C   UNL     1       6.923  31.580  62.353  1.00  0.00     0.057 C 
HETATM   27  C   UNL     1       7.698  32.610  63.158  1.00  0.00     0.011 C 
ENDBRANCH   1  26
TORSDOF 3
ENDMDL
MODEL 4
REMARK VINA RESULT:      -8.1      7.453     10.970
REMARK  3 active torsions:
REMARK  status: ('A' for Active; 'I' for Inactive)
REMARK    1  A    between atoms: C_2  and  C_3 
REMARK    2  A    between atoms: C_9  and  C_10 
REMARK    3  A    between atoms: C_23  and  N_24 
ROOT
HETATM    1  C   UNL     1       6.763  32.415  62.269  1.00  0.00     0.066 A 
HETATM    2  N   UNL     1       7.649  31.915  61.389  1.00  0.00    -0.177 NA
HETATM    3  N   UNL     1       7.086  32.137  60.184  1.00  0.00    -0.256 N 
HETATM    4  H   UNL     1       7.573  31.826  59.352  1.00  0.00     0.191 HD
HETATM    5  C   UNL     1       5.876  32.742  60.276  1.00  0.00     0.175 A 
HETATM    6  C   UNL     1       5.642  32.972  61.607  1.00  0.00     0.035 A 
HETATM    7  C   UNL     1       4.368  33.618  62.037  1.00  0.00     0.106 A 
HETATM    8  C   UNL     1       3.436  33.808  60.833  1.00  0.00     0.081 A 
HETATM    9  C   UNL     1       2.120  34.276  61.118  1.00  0.00     0.100 C 
HETATM   10  N   UNL     1       1.047  34.658  61.340  1.00  0.00    -0.191 NA
HETATM   11  C   UNL     1       3.808  33.518  59.555  1.00  0.00     0.140 A 
HETATM   12  O   UNL     1       5.085  33.014  59.246  1.00  0.00    -0.279 OA
ENDROOT
BRANCH   7  13
HETATM   13  C   UNL     1       4.764  34.942  62.699  1.00  0.00    -0.033 A 
HETATM   14  C   UNL     1       4.508  35.218  64.080  1.00  0.00    -0.019 A 
HETATM   15  C   UNL     1       4.897  36.482  64.603  1.00  0.00    -0.025 A 
HETATM   16  C   UNL     1       3.891  34.320  64.988  1.00  0.00     0.013 A 
HETATM   17  C   UNL     1       4.677  36.794  65.954  1.00  0.00     0.012 A 
HETATM   18  C   UNL     1       5.507  37.434  63.776  1.00  0.00     0.012 A 
HETATM   19  C   UNL     1       4.074  35.882  66.815  1.00  0.00     0.001 A 
HETATM   20  C   UNL     1       3.680  34.645  66.331  1.00  0.00     0.001 A 
HETATM   21  C   UNL     1       5.747  37.168  62.436  1.00  0.00     0.001 A 
HETATM   22  C   UNL     1       5.381  35.938  61.904  1.00  0.00     0.009 A 
ENDBRANCH   7  13
BRANCH  11  23
HETATM   23  N   UNL     1       3.015  33.671  58.440  1.00  0.00    -0.282 NA
HETATM   24  H   UNL     1       3.046  32.906  57.770  1.00  0.00     0.126 HD
HETATM   25  H   UNL     1       2.068  33.956  58.678  1.00  0.00     0.126 HD
ENDBRANCH  11  23
BRANCH   1  26
HETATM   26  C   UNL     1       7.030  32.306  63.733  1.00  0.00     0.057 C 
HETATM   27  C   UNL     1       7.705  33.541  64.306  1.00  0.00     0.011 C 
ENDBRANCH   1  26
TORSDOF 3
ENDMDL
MODEL 5
REMARK VINA RESULT:      -8.0      2.168      4.989
REMARK  3 active torsions:
REMARK  status: ('A' for Active; 'I' for Inactive)
REMARK    1  A    between atoms: C_2  and  C_3 
REMARK    2  A    between atoms: C_9  and  C_10 
REMARK    3  A    between atoms: C_23  and  N_24 
ROOT
HETATM    1  C   UNL     1       4.934  26.876  53.930  1.00  0.00     0.066 A 
HETATM    2  N   UNL     1       4.692  28.144  53.552  1.00  0.00    -0.177 NA
HETATM    3  N   UNL     1       5.652  28.865  54.164  1.00  0.00    -0.256 N 
HETATM    4  H   UNL     1       5.665  29.871  54.038  1.00  0.00     0.191 HD
HETATM    5  C   UNL     1       6.476  28.101  54.923  1.00  0.00     0.175 A 
HETATM    6  C   UNL     1       6.069  26.801  54.774  1.00  0.00     0.035 A 
HETATM    7  C   UNL     1       6.776  25.711  55.506  1.00  0.00     0.106 A 
HETATM    8  C   UNL     1       7.827  26.303  56.454  1.00  0.00     0.081 A 
HETATM    9  C   UNL     1       8.478  25.388  57.332  1.00  0.00     0.100 C 
HETATM   10  N   UNL     1       9.014  24.649  58.049  1.00  0.00    -0.191 NA
HETATM   11  C   UNL     1       8.117  27.634  56.501  1.00  0.00     0.140 A 
HETATM   12  O   UNL     1       7.462  28.569  55.678  1.00  0.00    -0.279 OA
ENDROOT
BRANCH   7  13
HETATM   13  C   UNL     1       7.385  24.802  54.434  1.00  0.00    -0.033 A 
HETATM   14  C   UNL     1       7.592  23.401  54.640  1.00  0.00    -0.019 A 
HETATM   15  C   UNL     1       8.180  22.640  53.591  1.00  0.00    -0.025 A 
HETATM   16  C   UNL     1       7.251  22.694  55.821  1.00  0.00     0.013 A 
HETATM   17  C   UNL     1       8.392  21.260  53.743  1.00  0.00     0.012 A 
HETATM   18  C   UNL     1       8.556  23.257  52.392  1.00  0.00     0.012 A 
HETATM   19  C   UNL     1       8.037  20.602  54.916  1.00  0.00     0.001 A 
HETATM   20  C   UNL     1       7.467  21.319  55.955  1.00  0.00     0.001 A 
HETATM   21  C   UNL     1       8.362  24.618  52.197  1.00  0.00     0.001 A 
HETATM   22  C   UNL     1       7.784  25.380  53.204  1.00  0.00     0.009 A 
ENDBRANCH   7  13
BRANCH  11  23
HETATM   23  N   UNL     1       9.049  28.218  57.328  1.00  0.00    -0.282 NA
HETATM   24  H   UNL     1       8.697  28.555  58.221  1.00  0.00     0.126 HD
HETATM   25  H   UNL     1       9.890  27.654  57.418  1.00  0.00     0.126 HD
ENDBRANCH  11  23
BRANCH   1  26
HETATM   26  C   UNL     1       4.028  25.781  53.476  1.00  0.00     0.057 C 
HETATM   27  C   UNL     1       4.591  24.994  52.304  1.00  0.00     0.011 C 
ENDBRANCH   1  26
TORSDOF 3
ENDMDL
MODEL 6
REMARK VINA RESULT:      -7.9      2.413      5.261
REMARK  3 active torsions:
REMARK  status: ('A' for Active; 'I' for Inactive)
REMARK    1  A    between atoms: C_2  and  C_3 
REMARK    2  A    between atoms: C_9  and  C_10 
REMARK    3  A    between atoms: C_23  and  N_24 
ROOT
HETATM    1  C   UNL     1       6.631  25.787  56.350  1.00  0.00     0.066 A 
HETATM    2  N   UNL     1       6.338  24.730  55.572  1.00  0.00    -0.177 NA
HETATM    3  N   UNL     1       5.640  25.254  54.544  1.00  0.00    -0.256 N 
HETATM    4  H   UNL     1       5.292  24.634  53.822  1.00  0.00     0.191 HD
HETATM    5  C   UNL     1       5.472  26.595  54.656  1.00  0.00     0.175 A 
HETATM    6  C   UNL     1       6.127  26.989  55.794  1.00  0.00     0.035 A 
HETATM    7  C   UNL     1       6.109  28.422  56.204  1.00  0.00     0.106 A 
HETATM    8  C   UNL     1       5.195  29.230  55.275  1.00  0.00     0.081 A 
HETATM    9  C   UNL     1       4.961  30.589  55.637  1.00  0.00     0.100 C 
HETATM   10  N   UNL     1       4.767  31.697  55.924  1.00  0.00    -0.191 NA
HETATM   11  C   UNL     1       4.594  28.693  54.176  1.00  0.00     0.140 A 
HETATM   12  O   UNL     1       4.770  27.344  53.815  1.00  0.00    -0.279 OA
ENDROOT
BRANCH   7  13
HETATM   13  C   UNL     1       7.566  28.894  56.163  1.00  0.00    -0.033 A 
HETATM   14  C   UNL     1       8.194  29.551  57.270  1.00  0.00    -0.019 A 
HETATM   15  C   UNL     1       9.547  29.968  57.134  1.00  0.00    -0.025 A 
HETATM   16  C   UNL     1       7.570  29.822  58.514  1.00  0.00     0.013 A 
HETATM   17  C   UNL     1      10.207  30.606  58.196  1.00  0.00     0.012 A 
HETATM   18  C   UNL     1      10.239  29.749  55.937  1.00  0.00     0.012 A 
HETATM   19  C   UNL     1       9.561  30.848  59.405  1.00  0.00     0.001 A 
HETATM   20  C   UNL     1       8.242  30.456  59.563  1.00  0.00     0.001 A 
HETATM   21  C   UNL     1       9.627  29.119  54.862  1.00  0.00     0.001 A 
HETATM   22  C   UNL     1       8.309  28.697  54.973  1.00  0.00     0.009 A 
ENDBRANCH   7  13
BRANCH  11  23
HETATM   23  N   UNL     1       3.768  29.369  53.308  1.00  0.00    -0.282 NA
HETATM   24  H   UNL     1       2.850  28.956  53.161  1.00  0.00     0.126 HD
HETATM   25  H   UNL     1       3.729  30.365  53.511  1.00  0.00     0.126 HD
ENDBRANCH  11  23
BRANCH   1  26
HETATM   26  C   UNL     1       7.370  25.584  57.630  1.00  0.00     0.057 C 
HETATM   27  C   UNL     1       8.725  24.924  57.432  1.00  0.00     0.011 C 
ENDBRANCH   1  26
TORSDOF 3
ENDMDL
MODEL 7
REMARK VINA RESULT:      -7.9      3.149      5.653
REMARK  3 active torsions:
REMARK  status: ('A' for Active; 'I' for Inactive)
REMARK    1  A    between atoms: C_2  and  C_3 
REMARK    2  A    between atoms: C_9  and  C_10 
REMARK    3  A    between atoms: C_23  and  N_24 
ROOT
HETATM    1  C   UNL     1       6.796  24.241  55.167  1.00  0.00     0.066 A 
HETATM    2  N   UNL     1       7.323  23.159  54.566  1.00  0.00    -0.177 NA
HETATM    3  N   UNL     1       7.053  23.339  53.257  1.00  0.00    -0.256 N 
HETATM    4  H   UNL     1       7.347  22.630  52.594  1.00  0.00     0.191 HD
HETATM    5  C   UNL     1       6.365  24.483  53.017  1.00  0.00     0.175 A 
HETATM    6  C   UNL     1       6.206  25.116  54.222  1.00  0.00     0.035 A 
HETATM    7  C   UNL     1       5.464  26.408  54.291  1.00  0.00     0.106 A 
HETATM    8  C   UNL     1       4.869  26.753  52.920  1.00  0.00     0.081 A 
HETATM    9  C   UNL     1       4.005  27.885  52.870  1.00  0.00     0.100 C 
HETATM   10  N   UNL     1       3.300  28.807  52.819  1.00  0.00    -0.191 NA
HETATM   11  C   UNL     1       5.107  26.012  51.801  1.00  0.00     0.140 A 
HETATM   12  O   UNL     1       5.921  24.865  51.826  1.00  0.00    -0.279 OA
ENDROOT
BRANCH   7  13
HETATM   13  C   UNL     1       6.472  27.452  54.783  1.00  0.00    -0.033 A 
HETATM   14  C   UNL     1       6.161  28.396  55.813  1.00  0.00    -0.019 A 
HETATM   15  C   UNL     1       7.155  29.340  56.192  1.00  0.00    -0.025 A 
HETATM   16  C   UNL     1       4.923  28.470  56.501  1.00  0.00     0.013 A 
HETATM   17  C   UNL     1       6.900  30.278  57.205  1.00  0.00     0.012 A 
HETATM   18  C   UNL     1       8.405  29.346  55.560  1.00  0.00     0.012 A 
HETATM   19  C   UNL     1       5.674  30.313  57.862  1.00  0.00     0.001 A 
HETATM   20  C   UNL     1       4.685  29.409  57.509  1.00  0.00     0.001 A 
HETATM   21  C   UNL     1       8.702  28.435  54.556  1.00  0.00     0.001 A 
HETATM   22  C   UNL     1       7.749  27.500  54.172  1.00  0.00     0.009 A 
ENDBRANCH   7  13
BRANCH  11  23
HETATM   23  N   UNL     1       4.602  26.276  50.548  1.00  0.00    -0.282 NA
HETATM   24  H   UNL     1       3.764  25.759  50.293  1.00  0.00     0.126 HD
HETATM   25  H   UNL     1       4.527  27.273  50.366  1.00  0.00     0.126 HD
ENDBRANCH  11  23
BRANCH   1  26
HETATM   26  C   UNL     1       6.861  24.369  56.651  1.00  0.00     0.057 C 
HETATM   27  C   UNL     1       8.065  25.167  57.125  1.00  0.00     0.011 C 
ENDBRANCH   1  26
TORSDOF 3
ENDMDL
MODEL 8
REMARK VINA RESULT:      -7.7      8.917     11.911
REMARK  3 active torsions:
REMARK  status: ('A' for Active; 'I' for Inactive)
REMARK    1  A    between atoms: C_2  and  C_3 
REMARK    2  A    between atoms: C_9  and  C_10 
REMARK    3  A    between atoms: C_23  and  N_24 
ROOT
HETATM    1  C   UNL     1       3.226  35.391  60.686  1.00  0.00     0.066 A 
HETATM    2  N   UNL     1       2.060  34.841  60.303  1.00  0.00    -0.177 NA
HETATM    3  N   UNL     1       2.074  33.611  60.853  1.00  0.00    -0.256 N 
HETATM    4  H   UNL     1       1.289  32.991  60.687  1.00  0.00     0.191 HD
HETATM    5  C   UNL     1       3.209  33.362  61.552  1.00  0.00     0.175 A 
HETATM    6  C   UNL     1       3.970  34.502  61.499  1.00  0.00     0.035 A 
HETATM    7  C   UNL     1       5.303  34.538  62.167  1.00  0.00     0.106 A 
HETATM    8  C   UNL     1       5.654  33.153  62.727  1.00  0.00     0.081 A 
HETATM    9  C   UNL     1       6.967  32.998  63.261  1.00  0.00     0.100 C 
HETATM   10  N   UNL     1       8.033  32.864  63.699  1.00  0.00    -0.191 NA
HETATM   11  C   UNL     1       4.790  32.100  62.695  1.00  0.00     0.140 A 
HETATM   12  O   UNL     1       3.503  32.208  62.136  1.00  0.00    -0.279 OA
ENDROOT
BRANCH   7  13
HETATM   13  C   UNL     1       5.205  35.613  63.254  1.00  0.00    -0.033 A 
HETATM   14  C   UNL     1       5.731  36.933  63.080  1.00  0.00    -0.019 A 
HETATM   15  C   UNL     1       5.608  37.860  64.152  1.00  0.00    -0.025 A 
HETATM   16  C   UNL     1       6.373  37.404  61.906  1.00  0.00     0.013 A 
HETATM   17  C   UNL     1       6.099  39.169  64.024  1.00  0.00     0.012 A 
HETATM   18  C   UNL     1       4.996  37.478  65.353  1.00  0.00     0.012 A 
HETATM   19  C   UNL     1       6.716  39.595  62.852  1.00  0.00     0.001 A 
HETATM   20  C   UNL     1       6.854  38.711  61.793  1.00  0.00     0.001 A 
HETATM   21  C   UNL     1       4.494  36.195  65.523  1.00  0.00     0.001 A 
HETATM   22  C   UNL     1       4.597  35.275  64.488  1.00  0.00     0.009 A 
ENDBRANCH   7  13
BRANCH  11  23
HETATM   23  N   UNL     1       5.051  30.839  63.183  1.00  0.00    -0.282 NA
HETATM   24  H   UNL     1       4.455  30.531  63.947  1.00  0.00     0.126 HD
HETATM   25  H   UNL     1       5.137  30.150  62.440  1.00  0.00     0.126 HD
ENDBRANCH  11  23
BRANCH   1  26
HETATM   26  C   UNL     1       3.588  36.761  60.219  1.00  0.00     0.057 C 
HETATM   27  C   UNL     1       2.900  37.859  61.013  1.00  0.00     0.011 C 
ENDBRANCH   1  26
TORSDOF 3
ENDMDL
MODEL 9
REMARK VINA RESULT:      -7.7      3.505      6.393
REMARK  3 active torsions:
REMARK  status: ('A' for Active; 'I' for Inactive)
REMARK    1  A    between atoms: C_2  and  C_3 
REMARK    2  A    between atoms: C_9  and  C_10 
REMARK    3  A    between atoms: C_23  and  N_24 
ROOT
HETATM    1  C   UNL     1       7.761  24.765  53.236  1.00  0.00     0.066 A 
HETATM    2  N   UNL     1       7.463  23.808  52.339  1.00  0.00    -0.177 NA
HETATM    3  N   UNL     1       7.427  22.671  53.062  1.00  0.00    -0.256 N 
HETATM    4  H   UNL     1       7.231  21.796  52.590  1.00  0.00     0.191 HD
HETATM    5  C   UNL     1       7.706  22.876  54.373  1.00  0.00     0.175 A 
HETATM    6  C   UNL     1       7.897  24.223  54.538  1.00  0.00     0.035 A 
HETATM    7  C   UNL     1       8.241  24.767  55.883  1.00  0.00     0.106 A 
HETATM    8  C   UNL     1       8.454  23.621  56.881  1.00  0.00     0.081 A 
HETATM    9  C   UNL     1       8.938  23.985  58.171  1.00  0.00     0.100 C 
HETATM   10  N   UNL     1       9.330  24.273  59.225  1.00  0.00    -0.191 NA
HETATM   11  C   UNL     1       8.236  22.314  56.565  1.00  0.00     0.140 A 
HETATM   12  O   UNL     1       7.799  21.918  55.287  1.00  0.00    -0.279 OA
ENDROOT
BRANCH   7  13
HETATM   13  C   UNL     1       7.086  25.693  56.276  1.00  0.00    -0.033 A 
HETATM   14  C   UNL     1       7.296  27.036  56.726  1.00  0.00    -0.019 A 
HETATM   15  C   UNL     1       6.162  27.817  57.085  1.00  0.00    -0.025 A 
HETATM   16  C   UNL     1       8.561  27.666  56.841  1.00  0.00     0.013 A 
HETATM   17  C   UNL     1       6.318  29.142  57.521  1.00  0.00     0.012 A 
HETATM   18  C   UNL     1       4.874  27.273  57.010  1.00  0.00     0.012 A 
HETATM   19  C   UNL     1       7.577  29.727  57.614  1.00  0.00     0.001 A 
HETATM   20  C   UNL     1       8.699  28.988  57.275  1.00  0.00     0.001 A 
HETATM   21  C   UNL     1       4.673  25.968  56.582  1.00  0.00     0.001 A 
HETATM   22  C   UNL     1       5.764  25.188  56.220  1.00  0.00     0.009 A 
ENDBRANCH   7  13
BRANCH  11  23
HETATM   23  N   UNL     1       8.408  21.248  57.419  1.00  0.00    -0.282 NA
HETATM   24  H   UNL     1       9.205  21.312  58.048  1.00  0.00     0.126 HD
HETATM   25  H   UNL     1       7.545  20.992  57.892  1.00  0.00     0.126 HD
ENDBRANCH  11  23
BRANCH   1  26
HETATM   26  C   UNL     1       7.935  26.176  52.784  1.00  0.00     0.057 C 
HETATM   27  C   UNL     1       6.697  27.028  53.015  1.00  0.00     0.011 C 
ENDBRANCH   1  26
TORSDOF 3
ENDMDL
MODEL 10
REMARK VINA RESULT:      -7.2      6.986     10.029
REMARK  3 active torsions:
REMARK  status: ('A' for Active; 'I' for Inactive)
REMARK    1  A    between atoms: C_2  and  C_3 
REMARK    2  A    between atoms: C_9  and  C_10 
REMARK    3  A    between atoms: C_23  and  N_24 
ROOT
HETATM    1  C   UNL     1       4.219  28.033  50.567  1.00  0.00     0.066 A 
HETATM    2  N   UNL     1       5.293  27.263  50.818  1.00  0.00    -0.177 NA
HETATM    3  N   UNL     1       5.325  26.389  49.792  1.00  0.00    -0.256 N 
HETATM    4  H   UNL     1       6.054  25.685  49.771  1.00  0.00     0.191 HD
HETATM    5  C   UNL     1       4.304  26.570  48.918  1.00  0.00     0.175 A 
HETATM    6  C   UNL     1       3.582  27.648  49.362  1.00  0.00     0.035 A 
HETATM    7  C   UNL     1       2.371  28.091  48.614  1.00  0.00     0.106 A 
HETATM    8  C   UNL     1       2.066  27.115  47.470  1.00  0.00     0.081 A 
HETATM    9  C   UNL     1       0.848  27.328  46.761  1.00  0.00     0.100 C 
HETATM   10  N   UNL     1      -0.141  27.496  46.177  1.00  0.00    -0.191 NA
HETATM   11  C   UNL     1       2.880  26.069  47.152  1.00  0.00     0.140 A 
HETATM   12  O   UNL     1       4.067  25.806  47.859  1.00  0.00    -0.279 OA
ENDROOT
BRANCH   7  13
HETATM   13  C   UNL     1       2.671  29.511  48.121  1.00  0.00    -0.033 A 
HETATM   14  C   UNL     1       1.966  30.658  48.606  1.00  0.00    -0.019 A 
HETATM   15  C   UNL     1       2.302  31.936  48.078  1.00  0.00    -0.025 A 
HETATM   16  C   UNL     1       0.943  30.629  49.588  1.00  0.00     0.013 A 
HETATM   17  C   UNL     1       1.646  33.091  48.530  1.00  0.00     0.012 A 
HETATM   18  C   UNL     1       3.295  32.058  47.097  1.00  0.00     0.012 A 
HETATM   19  C   UNL     1       0.652  33.020  49.502  1.00  0.00     0.001 A 
HETATM   20  C   UNL     1       0.300  31.789  50.030  1.00  0.00     0.001 A 
HETATM   21  C   UNL     1       3.972  30.943  46.623  1.00  0.00     0.001 A 
HETATM   22  C   UNL     1       3.665  29.686  47.128  1.00  0.00     0.009 A 
ENDBRANCH   7  13
BRANCH  11  23
HETATM   23  N   UNL     1       2.657  25.166  46.137  1.00  0.00    -0.282 NA
HETATM   24  H   UNL     1       1.820  24.597  46.230  1.00  0.00     0.126 HD
HETATM   25  H   UNL     1       2.752  25.590  45.218  1.00  0.00     0.126 HD
ENDBRANCH  11  23
BRANCH   1  26
HETATM   26  C   UNL     1       3.833  29.104  51.532  1.00  0.00     0.057 C 
HETATM   27  C   UNL     1       4.514  30.432  51.246  1.00  0.00     0.011 C 
ENDBRANCH   1  26
TORSDOF 3
ENDMDL
