MODEL 1
REMARK VINA RESULT:      -9.4      0.000      0.000
REMARK  6 active torsions:
REMARK  status: ('A' for Active; 'I' for Inactive)
REMARK    1  A    between atoms: C_7  and  S_8 
REMARK    2  A    between atoms: S_8  and  C_9 
REMARK    3  A    between atoms: C_9  and  C_10 
REMARK    4  A    between atoms: C_18  and  C_19 
REMARK    5  A    between atoms: C_27  and  C_28 
REMARK    6  A    between atoms: C_28  and  O_29 
ROOT
HETATM    1  C   UNL     1       9.675  31.125  58.347  1.00  0.00     0.070 C 
HETATM    2  C   UNL     1       8.520  30.189  58.092  1.00  0.00     0.037 A 
HETATM    3  N   UNL     1       8.864  28.927  57.620  1.00  0.00    -0.192 N 
HETATM    4  C   UNL     1       7.962  27.970  57.336  1.00  0.00     0.726 A 
HETATM    5  N   UNL     1       6.629  28.248  57.462  1.00  0.00    -0.082 N 
HETATM    6  N   UNL     1       5.876  27.164  57.184  1.00  0.00    -0.128 NA
HETATM    7  C   UNL     1       6.822  26.277  56.856  1.00  0.00     0.226 A 
HETATM    8  N   UNL     1       8.116  26.733  56.939  1.00  0.00    -0.035 NA
HETATM    9  C   UNL     1       6.094  29.537  57.919  1.00  0.00     0.208 A 
HETATM   10  C   UNL     1       7.213  30.512  58.269  1.00  0.00     0.070 A 
HETATM   11  H   UNL     1       9.853  28.716  57.514  1.00  0.00     0.184 HD
ENDROOT
BRANCH   7  12
HETATM   12  S   UNL     1       6.403  24.660  56.363  1.00  0.00    -0.083 SA
BRANCH  12  13
HETATM   13  C   UNL     1       8.064  23.972  56.119  1.00  0.00     0.123 C 
BRANCH  13  14
HETATM   14  C   UNL     1       8.055  22.816  55.145  1.00  0.00    -0.027 A 
HETATM   15  C   UNL     1       8.173  21.477  55.550  1.00  0.00     0.041 A 
HETATM   16 CL   UNL     1       8.354  21.035  57.210  1.00  0.00    -0.084 Cl
HETATM   17  C   UNL     1       8.153  20.444  54.607  1.00  0.00     0.024 A 
HETATM   18  C   UNL     1       8.010  20.732  53.251  1.00  0.00     0.002 A 
HETATM   19  C   UNL     1       7.882  22.054  52.833  1.00  0.00     0.001 A 
HETATM   20  C   UNL     1       7.900  23.087  53.772  1.00  0.00     0.009 A 
ENDBRANCH  13  14
ENDBRANCH  12  13
ENDBRANCH   7  12
BRANCH   9  21
HETATM   21  C   UNL     1       5.050  30.045  56.937  1.00  0.00     0.032 A 
HETATM   22  C   UNL     1       3.798  30.572  57.289  1.00  0.00     0.045 A 
HETATM   23 CL   UNL     1       3.267  30.702  58.927  1.00  0.00    -0.084 Cl
HETATM   24  C   UNL     1       2.906  31.024  56.305  1.00  0.00     0.024 A 
HETATM   25  C   UNL     1       3.248  30.965  54.955  1.00  0.00     0.005 A 
HETATM   26  C   UNL     1       4.485  30.449  54.587  1.00  0.00     0.043 A 
HETATM   27  C   UNL     1       5.364  29.999  55.569  1.00  0.00     0.126 A 
HETATM   28  F   UNL     1       6.545  29.499  55.174  1.00  0.00    -0.205 F 
ENDBRANCH   9  21
BRANCH  10  29
HETATM   29  C   UNL     1       6.773  31.790  58.867  1.00  0.00     0.293 C 
HETATM   30  O   UNL     1       6.357  32.737  58.221  1.00  0.00    -0.259 OA
BRANCH  29  31
HETATM   31  O   UNL     1       6.822  31.712  60.221  1.00  0.00    -0.323 OA
HETATM   32  C   UNL     1       6.046  32.708  60.888  1.00  0.00     0.213 C 
ENDBRANCH  29  31
ENDBRANCH  10  29
TORSDOF 6
ENDMDL
MODEL 2
REMARK VINA RESULT:      -9.3      4.715      6.510
REMARK  6 active torsions:
REMARK  status: ('A' for Active; 'I' for Inactive)
REMARK    1  A    between atoms: C_7  and  S_8 
REMARK    2  A    between atoms: S_8  and  C_9 
REMARK    3  A    between atoms: C_9  and  C_10 
REMARK    4  A    between atoms: C_18  and  C_19 
REMARK    5  A    between atoms: C_27  and  C_28 
REMARK    6  A    between atoms: C_28  and  O_29 
ROOT
HETATM    1  C   UNL     1       6.658  30.593  57.855  1.00  0.00     0.070 C 
HETATM    2  C   UNL     1       6.395  29.900  56.541  1.00  0.00     0.037 A 
HETATM    3  N   UNL     1       5.203  30.242  55.912  1.00  0.00    -0.192 N 
HETATM    4  C   UNL     1       4.807  29.718  54.738  1.00  0.00     0.726 A 
HETATM    5  N   UNL     1       5.576  28.759  54.139  1.00  0.00    -0.082 N 
HETATM    6  N   UNL     1       5.056  28.384  52.953  1.00  0.00    -0.128 NA
HETATM    7  C   UNL     1       3.946  29.131  52.918  1.00  0.00     0.226 A 
HETATM    8  N   UNL     1       3.759  29.964  53.995  1.00  0.00    -0.035 NA
HETATM    9  C   UNL     1       6.847  28.261  54.683  1.00  0.00     0.208 A 
HETATM   10  C   UNL     1       7.216  28.977  55.979  1.00  0.00     0.070 A 
HETATM   11  H   UNL     1       4.621  30.947  56.355  1.00  0.00     0.184 HD
ENDROOT
BRANCH   7  12
HETATM   12  S   UNL     1       2.836  29.026  51.580  1.00  0.00    -0.083 SA
BRANCH  12  13
HETATM   13  C   UNL     1       4.017  28.946  50.206  1.00  0.00     0.123 C 
BRANCH  13  14
HETATM   14  C   UNL     1       3.605  27.926  49.169  1.00  0.00    -0.027 A 
HETATM   15  C   UNL     1       4.029  26.588  49.207  1.00  0.00     0.041 A 
HETATM   16 CL   UNL     1       5.077  25.993  50.444  1.00  0.00    -0.084 Cl
HETATM   17  C   UNL     1       3.612  25.683  48.225  1.00  0.00     0.024 A 
HETATM   18  C   UNL     1       2.765  26.097  47.199  1.00  0.00     0.002 A 
HETATM   19  C   UNL     1       2.328  27.418  47.153  1.00  0.00     0.001 A 
HETATM   20  C   UNL     1       2.741  28.325  48.132  1.00  0.00     0.009 A 
ENDBRANCH  13  14
ENDBRANCH  12  13
ENDBRANCH   7  12
BRANCH   9  21
HETATM   21  C   UNL     1       6.829  26.742  54.742  1.00  0.00     0.032 A 
HETATM   22  C   UNL     1       6.097  25.979  55.666  1.00  0.00     0.045 A 
HETATM   23 CL   UNL     1       5.108  26.690  56.890  1.00  0.00    -0.084 Cl
HETATM   24  C   UNL     1       6.139  24.577  55.632  1.00  0.00     0.024 A 
HETATM   25  C   UNL     1       6.905  23.912  54.676  1.00  0.00     0.005 A 
HETATM   26  C   UNL     1       7.633  24.651  53.752  1.00  0.00     0.043 A 
HETATM   27  C   UNL     1       7.589  26.042  53.793  1.00  0.00     0.126 A 
HETATM   28  F   UNL     1       8.314  26.720  52.890  1.00  0.00    -0.205 F 
ENDBRANCH   9  21
BRANCH  10  29
HETATM   29  C   UNL     1       8.545  28.639  56.529  1.00  0.00     0.293 C 
HETATM   30  O   UNL     1       8.733  27.793  57.388  1.00  0.00    -0.259 OA
BRANCH  29  31
HETATM   31  O   UNL     1       9.509  29.342  55.883  1.00  0.00    -0.323 OA
HETATM   32  C   UNL     1      10.644  29.652  56.693  1.00  0.00     0.213 C 
ENDBRANCH  29  31
ENDBRANCH  10  29
TORSDOF 6
ENDMDL
MODEL 3
REMARK VINA RESULT:      -8.9      5.766      7.348
REMARK  6 active torsions:
REMARK  status: ('A' for Active; 'I' for Inactive)
REMARK    1  A    between atoms: C_7  and  S_8 
REMARK    2  A    between atoms: S_8  and  C_9 
REMARK    3  A    between atoms: C_9  and  C_10 
REMARK    4  A    between atoms: C_18  and  C_19 
REMARK    5  A    between atoms: C_27  and  C_28 
REMARK    6  A    between atoms: C_28  and  O_29 
ROOT
HETATM    1  C   UNL     1       3.243  25.749  48.053  1.00  0.00     0.070 C 
HETATM    2  C   UNL     1       4.076  26.478  49.079  1.00  0.00     0.037 A 
HETATM    3  N   UNL     1       4.310  25.786  50.262  1.00  0.00    -0.192 N 
HETATM    4  C   UNL     1       5.027  26.286  51.284  1.00  0.00     0.726 A 
HETATM    5  N   UNL     1       5.519  27.559  51.197  1.00  0.00    -0.082 N 
HETATM    6  N   UNL     1       6.251  27.876  52.284  1.00  0.00    -0.128 NA
HETATM    7  C   UNL     1       6.122  26.758  53.009  1.00  0.00     0.226 A 
HETATM    8  N   UNL     1       5.381  25.759  52.427  1.00  0.00    -0.035 NA
HETATM    9  C   UNL     1       5.339  28.437  50.032  1.00  0.00     0.208 A 
HETATM   10  C   UNL     1       4.567  27.734  48.921  1.00  0.00     0.070 A 
HETATM   11  H   UNL     1       3.939  24.843  50.339  1.00  0.00     0.184 HD
ENDROOT
BRANCH   7  12
HETATM   12  S   UNL     1       6.862  26.618  54.579  1.00  0.00    -0.083 SA
BRANCH  12  13
HETATM   13  C   UNL     1       6.284  24.963  55.046  1.00  0.00     0.123 C 
BRANCH  13  14
HETATM   14  C   UNL     1       7.295  23.895  54.697  1.00  0.00    -0.027 A 
HETATM   15  C   UNL     1       8.367  23.558  55.538  1.00  0.00     0.041 A 
HETATM   16 CL   UNL     1       8.630  24.350  57.051  1.00  0.00    -0.084 Cl
HETATM   17  C   UNL     1       9.272  22.556  55.170  1.00  0.00     0.024 A 
HETATM   18  C   UNL     1       9.118  21.877  53.963  1.00  0.00     0.002 A 
HETATM   19  C   UNL     1       8.055  22.194  53.122  1.00  0.00     0.001 A 
HETATM   20  C   UNL     1       7.148  23.191  53.486  1.00  0.00     0.009 A 
ENDBRANCH  13  14
ENDBRANCH  12  13
ENDBRANCH   7  12
BRANCH   9  21
HETATM   21  C   UNL     1       4.792  29.784  50.475  1.00  0.00     0.032 A 
HETATM   22  C   UNL     1       3.577  29.979  51.152  1.00  0.00     0.045 A 
HETATM   23 CL   UNL     1       2.520  28.679  51.567  1.00  0.00    -0.084 Cl
HETATM   24  C   UNL     1       3.164  31.267  51.528  1.00  0.00     0.024 A 
HETATM   25  C   UNL     1       3.953  32.378  51.241  1.00  0.00     0.005 A 
HETATM   26  C   UNL     1       5.160  32.204  50.575  1.00  0.00     0.043 A 
HETATM   27  C   UNL     1       5.563  30.924  50.202  1.00  0.00     0.126 A 
HETATM   28  F   UNL     1       6.730  30.798  49.552  1.00  0.00    -0.205 F 
ENDBRANCH   9  21
BRANCH  10  29
HETATM   29  C   UNL     1       4.453  28.490  47.656  1.00  0.00     0.293 C 
HETATM   30  O   UNL     1       5.346  28.573  46.829  1.00  0.00    -0.259 OA
BRANCH  29  31
HETATM   31  O   UNL     1       3.200  28.992  47.524  1.00  0.00    -0.323 OA
HETATM   32  C   UNL     1       3.163  30.379  47.185  1.00  0.00     0.213 C 
ENDBRANCH  29  31
ENDBRANCH  10  29
TORSDOF 6
ENDMDL
MODEL 4
REMARK VINA RESULT:      -8.7      5.588      7.713
REMARK  6 active torsions:
REMARK  status: ('A' for Active; 'I' for Inactive)
REMARK    1  A    between atoms: C_7  and  S_8 
REMARK    2  A    between atoms: S_8  and  C_9 
REMARK    3  A    between atoms: C_9  and  C_10 
REMARK    4  A    between atoms: C_18  and  C_19 
REMARK    5  A    between atoms: C_27  and  C_28 
REMARK    6  A    between atoms: C_28  and  O_29 
ROOT
HETATM    1  C   UNL     1       8.325  23.331  52.516  1.00  0.00     0.070 C 
HETATM    2  C   UNL     1       7.357  24.430  52.875  1.00  0.00     0.037 A 
HETATM    3  N   UNL     1       6.837  25.145  51.802  1.00  0.00    -0.192 N 
HETATM    4  C   UNL     1       5.966  26.161  51.939  1.00  0.00     0.726 A 
HETATM    5  N   UNL     1       5.596  26.561  53.194  1.00  0.00    -0.082 N 
HETATM    6  N   UNL     1       4.684  27.553  53.142  1.00  0.00    -0.128 NA
HETATM    7  C   UNL     1       4.580  27.731  51.820  1.00  0.00     0.226 A 
HETATM    8  N   UNL     1       5.349  26.893  51.048  1.00  0.00    -0.035 NA
HETATM    9  C   UNL     1       6.073  25.935  54.435  1.00  0.00     0.208 A 
HETATM   10  C   UNL     1       7.001  24.760  54.143  1.00  0.00     0.070 A 
HETATM   11  H   UNL     1       7.115  24.861  50.866  1.00  0.00     0.184 HD
ENDROOT
BRANCH   7  12
HETATM   12  S   UNL     1       3.529  28.951  51.159  1.00  0.00    -0.083 SA
BRANCH  12  13
HETATM   13  C   UNL     1       4.065  28.916  49.426  1.00  0.00     0.123 C 
BRANCH  13  14
HETATM   14  C   UNL     1       3.128  28.103  48.565  1.00  0.00    -0.027 A 
HETATM   15  C   UNL     1       3.574  27.090  47.700  1.00  0.00     0.041 A 
HETATM   16 CL   UNL     1       5.249  26.696  47.537  1.00  0.00    -0.084 Cl
HETATM   17  C   UNL     1       2.663  26.362  46.928  1.00  0.00     0.024 A 
HETATM   18  C   UNL     1       1.298  26.629  47.011  1.00  0.00     0.002 A 
HETATM   19  C   UNL     1       0.839  27.623  47.870  1.00  0.00     0.001 A 
HETATM   20  C   UNL     1       1.745  28.351  48.644  1.00  0.00     0.009 A 
ENDBRANCH  13  14
ENDBRANCH  12  13
ENDBRANCH   7  12
BRANCH   9  21
HETATM   21  C   UNL     1       6.616  26.996  55.378  1.00  0.00     0.032 A 
HETATM   22  C   UNL     1       6.159  27.224  56.686  1.00  0.00     0.045 A 
HETATM   23 CL   UNL     1       4.881  26.310  57.401  1.00  0.00    -0.084 Cl
HETATM   24  C   UNL     1       6.735  28.226  57.483  1.00  0.00     0.024 A 
HETATM   25  C   UNL     1       7.776  29.012  56.994  1.00  0.00     0.005 A 
HETATM   26  C   UNL     1       8.243  28.799  55.703  1.00  0.00     0.043 A 
HETATM   27  C   UNL     1       7.666  27.805  54.916  1.00  0.00     0.126 A 
HETATM   28  F   UNL     1       8.138  27.636  53.671  1.00  0.00    -0.205 F 
ENDBRANCH   9  21
BRANCH  10  29
HETATM   29  C   UNL     1       7.425  23.982  55.327  1.00  0.00     0.293 C 
HETATM   30  O   UNL     1       6.834  22.999  55.743  1.00  0.00    -0.259 OA
BRANCH  29  31
HETATM   31  O   UNL     1       8.593  24.472  55.813  1.00  0.00    -0.323 OA
HETATM   32  C   UNL     1       8.675  24.469  57.238  1.00  0.00     0.213 C 
ENDBRANCH  29  31
ENDBRANCH  10  29
TORSDOF 6
ENDMDL
MODEL 5
REMARK VINA RESULT:      -8.5      5.770      7.905
REMARK  6 active torsions:
REMARK  status: ('A' for Active; 'I' for Inactive)
REMARK    1  A    between atoms: C_7  and  S_8 
REMARK    2  A    between atoms: S_8  and  C_9 
REMARK    3  A    between atoms: C_9  and  C_10 
REMARK    4  A    between atoms: C_18  and  C_19 
REMARK    5  A    between atoms: C_27  and  C_28 
REMARK    6  A    between atoms: C_28  and  O_29 
ROOT
HETATM    1  C   UNL     1       8.318  23.816  52.864  1.00  0.00     0.070 C 
HETATM    2  C   UNL     1       7.264  24.877  53.062  1.00  0.00     0.037 A 
HETATM    3  N   UNL     1       6.844  25.528  51.907  1.00  0.00    -0.192 N 
HETATM    4  C   UNL     1       5.917  26.502  51.899  1.00  0.00     0.726 A 
HETATM    5  N   UNL     1       5.382  26.926  53.084  1.00  0.00    -0.082 N 
HETATM    6  N   UNL     1       4.438  27.868  52.885  1.00  0.00    -0.128 NA
HETATM    7  C   UNL     1       4.485  27.994  51.554  1.00  0.00     0.226 A 
HETATM    8  N   UNL     1       5.378  27.171  50.913  1.00  0.00    -0.035 NA
HETATM    9  C   UNL     1       5.735  26.368  54.397  1.00  0.00     0.208 A 
HETATM   10  C   UNL     1       6.744  25.232  54.265  1.00  0.00     0.070 A 
HETATM   11  H   UNL     1       7.245  25.225  51.023  1.00  0.00     0.184 HD
ENDROOT
BRANCH   7  12
HETATM   12  S   UNL     1       3.465  29.136  50.725  1.00  0.00    -0.083 SA
BRANCH  12  13
HETATM   13  C   UNL     1       3.969  28.814  49.012  1.00  0.00     0.123 C 
BRANCH  13  14
HETATM   14  C   UNL     1       2.803  28.377  48.156  1.00  0.00    -0.027 A 
HETATM   15  C   UNL     1       2.675  27.073  47.651  1.00  0.00     0.041 A 
HETATM   16 CL   UNL     1       3.858  25.852  47.958  1.00  0.00    -0.084 Cl
HETATM   17  C   UNL     1       1.571  26.718  46.868  1.00  0.00     0.024 A 
HETATM   18  C   UNL     1       0.580  27.656  46.583  1.00  0.00     0.002 A 
HETATM   19  C   UNL     1       0.687  28.950  47.084  1.00  0.00     0.001 A 
HETATM   20  C   UNL     1       1.786  29.307  47.867  1.00  0.00     0.009 A 
ENDBRANCH  13  14
ENDBRANCH  12  13
ENDBRANCH   7  12
BRANCH   9  21
HETATM   21  C   UNL     1       6.111  27.487  55.354  1.00  0.00     0.032 A 
HETATM   22  C   UNL     1       7.218  28.339  55.205  1.00  0.00     0.045 A 
HETATM   23 CL   UNL     1       8.325  28.210  53.886  1.00  0.00    -0.084 Cl
HETATM   24  C   UNL     1       7.475  29.352  56.142  1.00  0.00     0.024 A 
HETATM   25  C   UNL     1       6.633  29.537  57.237  1.00  0.00     0.005 A 
HETATM   26  C   UNL     1       5.532  28.706  57.399  1.00  0.00     0.043 A 
HETATM   27  C   UNL     1       5.284  27.701  56.467  1.00  0.00     0.126 A 
HETATM   28  F   UNL     1       4.216  26.912  56.663  1.00  0.00    -0.205 F 
ENDBRANCH   9  21
BRANCH  10  29
HETATM   29  C   UNL     1       7.058  24.518  55.520  1.00  0.00     0.293 C 
HETATM   30  O   UNL     1       6.494  23.500  55.885  1.00  0.00    -0.259 OA
BRANCH  29  31
HETATM   31  O   UNL     1       8.106  25.112  56.144  1.00  0.00    -0.323 OA
HETATM   32  C   UNL     1       8.931  24.209  56.881  1.00  0.00     0.213 C 
ENDBRANCH  29  31
ENDBRANCH  10  29
TORSDOF 6
ENDMDL
MODEL 6
REMARK VINA RESULT:      -8.1      5.060      6.716
REMARK  6 active torsions:
REMARK  status: ('A' for Active; 'I' for Inactive)
REMARK    1  A    between atoms: C_7  and  S_8 
REMARK    2  A    between atoms: S_8  and  C_9 
REMARK    3  A    between atoms: C_9  and  C_10 
REMARK    4  A    between atoms: C_18  and  C_19 
REMARK    5  A    between atoms: C_27  and  C_28 
REMARK    6  A    between atoms: C_28  and  O_29 
ROOT
HETATM    1  C   UNL     1       3.983  32.808  52.688  1.00  0.00     0.070 C 
HETATM    2  C   UNL     1       3.935  31.315  52.479  1.00  0.00     0.037 A 
HETATM    3  N   UNL     1       4.616  30.556  53.424  1.00  0.00    -0.192 N 
HETATM    4  C   UNL     1       4.681  29.212  53.388  1.00  0.00     0.726 A 
HETATM    5  N   UNL     1       4.098  28.541  52.349  1.00  0.00    -0.082 N 
HETATM    6  N   UNL     1       4.217  27.206  52.501  1.00  0.00    -0.128 NA
HETATM    7  C   UNL     1       4.924  27.144  53.636  1.00  0.00     0.226 A 
HETATM    8  N   UNL     1       5.225  28.355  54.212  1.00  0.00    -0.035 NA
HETATM    9  C   UNL     1       3.366  29.190  51.253  1.00  0.00     0.208 A 
HETATM   10  C   UNL     1       3.309  30.703  51.442  1.00  0.00     0.070 A 
HETATM   11  H   UNL     1       5.061  31.048  54.194  1.00  0.00     0.184 HD
ENDROOT
BRANCH   7  12
HETATM   12  S   UNL     1       5.408  25.612  54.308  1.00  0.00    -0.083 SA
BRANCH  12  13
HETATM   13  C   UNL     1       7.082  25.489  53.621  1.00  0.00     0.123 C 
BRANCH  13  14
HETATM   14  C   UNL     1       7.688  24.126  53.860  1.00  0.00    -0.027 A 
HETATM   15  C   UNL     1       8.260  23.750  55.086  1.00  0.00     0.041 A 
HETATM   16 CL   UNL     1       8.330  24.830  56.433  1.00  0.00    -0.084 Cl
HETATM   17  C   UNL     1       8.801  22.472  55.257  1.00  0.00     0.024 A 
HETATM   18  C   UNL     1       8.777  21.552  54.210  1.00  0.00     0.002 A 
HETATM   19  C   UNL     1       8.206  21.905  52.991  1.00  0.00     0.001 A 
HETATM   20  C   UNL     1       7.662  23.179  52.818  1.00  0.00     0.009 A 
ENDBRANCH  13  14
ENDBRANCH  12  13
ENDBRANCH   7  12
BRANCH   9  21
HETATM   21  C   UNL     1       3.897  28.705  49.914  1.00  0.00     0.032 A 
HETATM   22  C   UNL     1       3.128  28.081  48.918  1.00  0.00     0.045 A 
HETATM   23 CL   UNL     1       1.440  27.770  49.100  1.00  0.00    -0.084 Cl
HETATM   24  C   UNL     1       3.713  27.677  47.708  1.00  0.00     0.024 A 
HETATM   25  C   UNL     1       5.068  27.891  47.467  1.00  0.00     0.005 A 
HETATM   26  C   UNL     1       5.844  28.509  48.440  1.00  0.00     0.043 A 
HETATM   27  C   UNL     1       5.259  28.906  49.640  1.00  0.00     0.126 A 
HETATM   28  F   UNL     1       6.043  29.491  50.558  1.00  0.00    -0.205 F 
ENDBRANCH   9  21
BRANCH  10  29
HETATM   29  C   UNL     1       2.478  31.430  50.460  1.00  0.00     0.293 C 
HETATM   30  O   UNL     1       1.270  31.571  50.560  1.00  0.00    -0.259 OA
BRANCH  29  31
HETATM   31  O   UNL     1       3.263  31.976  49.498  1.00  0.00    -0.323 OA
HETATM   32  C   UNL     1       2.578  32.884  48.635  1.00  0.00     0.213 C 
ENDBRANCH  29  31
ENDBRANCH  10  29
TORSDOF 6
ENDMDL
MODEL 7
REMARK VINA RESULT:      -7.8      3.788      9.059
REMARK  6 active torsions:
REMARK  status: ('A' for Active; 'I' for Inactive)
REMARK    1  A    between atoms: C_7  and  S_8 
REMARK    2  A    between atoms: S_8  and  C_9 
REMARK    3  A    between atoms: C_9  and  C_10 
REMARK    4  A    between atoms: C_18  and  C_19 
REMARK    5  A    between atoms: C_27  and  C_28 
REMARK    6  A    between atoms: C_28  and  O_29 
ROOT
HETATM    1  C   UNL     1       5.539  25.321  55.156  1.00  0.00     0.070 C 
HETATM    2  C   UNL     1       5.689  26.687  55.778  1.00  0.00     0.037 A 
HETATM    3  N   UNL     1       4.793  27.651  55.329  1.00  0.00    -0.192 N 
HETATM    4  C   UNL     1       4.787  28.921  55.773  1.00  0.00     0.726 A 
HETATM    5  N   UNL     1       5.735  29.320  56.674  1.00  0.00    -0.082 N 
HETATM    6  N   UNL     1       5.549  30.603  57.043  1.00  0.00    -0.128 NA
HETATM    7  C   UNL     1       4.492  30.931  56.291  1.00  0.00     0.226 A 
HETATM    8  N   UNL     1       3.994  29.924  55.500  1.00  0.00    -0.035 NA
HETATM    9  C   UNL     1       6.772  28.438  57.227  1.00  0.00     0.208 A 
HETATM   10  C   UNL     1       6.632  27.015  56.697  1.00  0.00     0.070 A 
HETATM   11  H   UNL     1       4.091  27.365  54.652  1.00  0.00     0.184 HD
ENDROOT
BRANCH   7  12
HETATM   12  S   UNL     1       3.819  32.537  56.341  1.00  0.00    -0.083 SA
BRANCH  12  13
HETATM   13  C   UNL     1       3.742  32.784  58.136  1.00  0.00     0.123 C 
BRANCH  13  14
HETATM   14  C   UNL     1       3.370  34.205  58.492  1.00  0.00    -0.027 A 
HETATM   15  C   UNL     1       3.844  34.850  59.645  1.00  0.00     0.041 A 
HETATM   16 CL   UNL     1       4.892  34.063  60.771  1.00  0.00    -0.084 Cl
HETATM   17  C   UNL     1       3.473  36.170  59.925  1.00  0.00     0.024 A 
HETATM   18  C   UNL     1       2.631  36.863  59.058  1.00  0.00     0.002 A 
HETATM   19  C   UNL     1       2.160  36.241  57.905  1.00  0.00     0.001 A 
HETATM   20  C   UNL     1       2.529  34.924  57.622  1.00  0.00     0.009 A 
ENDBRANCH  13  14
ENDBRANCH  12  13
ENDBRANCH   7  12
BRANCH   9  21
HETATM   21  C   UNL     1       8.141  29.079  57.065  1.00  0.00     0.032 A 
HETATM   22  C   UNL     1       8.864  29.145  55.864  1.00  0.00     0.045 A 
HETATM   23 CL   UNL     1       8.278  28.479  54.383  1.00  0.00    -0.084 Cl
HETATM   24  C   UNL     1      10.120  29.769  55.816  1.00  0.00     0.024 A 
HETATM   25  C   UNL     1      10.673  30.341  56.960  1.00  0.00     0.005 A 
HETATM   26  C   UNL     1       9.970  30.288  58.157  1.00  0.00     0.043 A 
HETATM   27  C   UNL     1       8.726  29.665  58.199  1.00  0.00     0.126 A 
HETATM   28  F   UNL     1       8.082  29.626  59.375  1.00  0.00    -0.205 F 
ENDBRANCH   9  21
BRANCH  10  29
HETATM   29  C   UNL     1       7.548  26.024  57.301  1.00  0.00     0.293 C 
HETATM   30  O   UNL     1       7.636  25.819  58.500  1.00  0.00    -0.259 OA
BRANCH  29  31
HETATM   31  O   UNL     1       8.196  25.336  56.328  1.00  0.00    -0.323 OA
HETATM   32  C   UNL     1       8.747  24.093  56.765  1.00  0.00     0.213 C 
ENDBRANCH  29  31
ENDBRANCH  10  29
TORSDOF 6
ENDMDL
MODEL 8
REMARK VINA RESULT:      -7.7      4.189      8.192
REMARK  6 active torsions:
REMARK  status: ('A' for Active; 'I' for Inactive)
REMARK    1  A    between atoms: C_7  and  S_8 
REMARK    2  A    between atoms: S_8  and  C_9 
REMARK    3  A    between atoms: C_9  and  C_10 
REMARK    4  A    between atoms: C_18  and  C_19 
REMARK    5  A    between atoms: C_27  and  C_28 
REMARK    6  A    between atoms: C_28  and  O_29 
ROOT
HETATM    1  C   UNL     1       8.356  23.313  52.503  1.00  0.00     0.070 C 
HETATM    2  C   UNL     1       7.393  24.428  52.825  1.00  0.00     0.037 A 
HETATM    3  N   UNL     1       6.902  25.131  51.730  1.00  0.00    -0.192 N 
HETATM    4  C   UNL     1       6.039  26.157  51.835  1.00  0.00     0.726 A 
HETATM    5  N   UNL     1       5.649  26.582  53.075  1.00  0.00    -0.082 N 
HETATM    6  N   UNL     1       4.749  27.582  52.989  1.00  0.00    -0.128 NA
HETATM    7  C   UNL     1       4.673  27.739  51.663  1.00  0.00     0.226 A 
HETATM    8  N   UNL     1       5.448  26.882  50.920  1.00  0.00    -0.035 NA
HETATM    9  C   UNL     1       6.095  25.970  54.335  1.00  0.00     0.208 A 
HETATM   10  C   UNL     1       7.016  24.782  54.081  1.00  0.00     0.070 A 
HETATM   11  H   UNL     1       7.195  24.829  50.805  1.00  0.00     0.184 HD
ENDROOT
BRANCH   7  12
HETATM   12  S   UNL     1       3.647  28.960  50.962  1.00  0.00    -0.083 SA
BRANCH  12  13
HETATM   13  C   UNL     1       4.490  30.451  51.559  1.00  0.00     0.123 C 
BRANCH  13  14
HETATM   14  C   UNL     1       3.668  31.185  52.592  1.00  0.00    -0.027 A 
HETATM   15  C   UNL     1       2.802  32.241  52.266  1.00  0.00     0.041 A 
HETATM   16 CL   UNL     1       2.611  32.804  50.644  1.00  0.00    -0.084 Cl
HETATM   17  C   UNL     1       2.057  32.884  53.262  1.00  0.00     0.024 A 
HETATM   18  C   UNL     1       2.164  32.479  54.591  1.00  0.00     0.002 A 
HETATM   19  C   UNL     1       3.011  31.428  54.930  1.00  0.00     0.001 A 
HETATM   20  C   UNL     1       3.754  30.783  53.939  1.00  0.00     0.009 A 
ENDBRANCH  13  14
ENDBRANCH  12  13
ENDBRANCH   7  12
BRANCH   9  21
HETATM   21  C   UNL     1       6.630  27.041  55.272  1.00  0.00     0.032 A 
HETATM   22  C   UNL     1       6.154  27.291  56.569  1.00  0.00     0.045 A 
HETATM   23 CL   UNL     1       4.857  26.396  57.276  1.00  0.00    -0.084 Cl
HETATM   24  C   UNL     1       6.723  28.299  57.361  1.00  0.00     0.024 A 
HETATM   25  C   UNL     1       7.778  29.071  56.878  1.00  0.00     0.005 A 
HETATM   26  C   UNL     1       8.265  28.836  55.598  1.00  0.00     0.043 A 
HETATM   27  C   UNL     1       7.694  27.836  54.816  1.00  0.00     0.126 A 
HETATM   28  F   UNL     1       8.185  27.646  53.582  1.00  0.00    -0.205 F 
ENDBRANCH   9  21
BRANCH  10  29
HETATM   29  C   UNL     1       7.408  24.019  55.284  1.00  0.00     0.293 C 
HETATM   30  O   UNL     1       6.791  23.057  55.712  1.00  0.00    -0.259 OA
BRANCH  29  31
HETATM   31  O   UNL     1       8.580  24.492  55.775  1.00  0.00    -0.323 OA
HETATM   32  C   UNL     1       8.636  24.539  57.201  1.00  0.00     0.213 C 
ENDBRANCH  29  31
ENDBRANCH  10  29
TORSDOF 6
ENDMDL
MODEL 9
REMARK VINA RESULT:      -7.7      6.908      8.841
REMARK  6 active torsions:
REMARK  status: ('A' for Active; 'I' for Inactive)
REMARK    1  A    between atoms: C_7  and  S_8 
REMARK    2  A    between atoms: S_8  and  C_9 
REMARK    3  A    between atoms: C_9  and  C_10 
REMARK    4  A    between atoms: C_18  and  C_19 
REMARK    5  A    between atoms: C_27  and  C_28 
REMARK    6  A    between atoms: C_28  and  O_29 
ROOT
HETATM    1  C   UNL     1       3.359  33.076  48.417  1.00  0.00     0.070 C 
HETATM    2  C   UNL     1       3.293  31.771  49.172  1.00  0.00     0.037 A 
HETATM    3  N   UNL     1       4.036  31.721  50.347  1.00  0.00    -0.192 N 
HETATM    4  C   UNL     1       4.095  30.636  51.140  1.00  0.00     0.726 A 
HETATM    5  N   UNL     1       3.440  29.496  50.766  1.00  0.00    -0.082 N 
HETATM    6  N   UNL     1       3.566  28.530  51.698  1.00  0.00    -0.128 NA
HETATM    7  C   UNL     1       4.349  29.145  52.593  1.00  0.00     0.226 A 
HETATM    8  N   UNL     1       4.693  30.440  52.287  1.00  0.00    -0.035 NA
HETATM    9  C   UNL     1       2.636  29.369  49.543  1.00  0.00     0.208 A 
HETATM   10  C   UNL     1       2.595  30.681  48.765  1.00  0.00     0.070 A 
HETATM   11  H   UNL     1       4.534  32.561  50.627  1.00  0.00     0.184 HD
ENDROOT
BRANCH   7  12
HETATM   12  S   UNL     1       4.875  28.327  54.037  1.00  0.00    -0.083 SA
BRANCH  12  13
HETATM   13  C   UNL     1       4.385  26.629  53.626  1.00  0.00     0.123 C 
BRANCH  13  14
HETATM   14  C   UNL     1       5.561  25.681  53.661  1.00  0.00    -0.027 A 
HETATM   15  C   UNL     1       6.281  25.318  52.511  1.00  0.00     0.041 A 
HETATM   16 CL   UNL     1       5.870  25.920  50.944  1.00  0.00    -0.084 Cl
HETATM   17  C   UNL     1       7.367  24.441  52.599  1.00  0.00     0.024 A 
HETATM   18  C   UNL     1       7.751  23.919  53.833  1.00  0.00     0.002 A 
HETATM   19  C   UNL     1       7.054  24.276  54.983  1.00  0.00     0.001 A 
HETATM   20  C   UNL     1       5.971  25.153  54.900  1.00  0.00     0.009 A 
ENDBRANCH  13  14
ENDBRANCH  12  13
ENDBRANCH   7  12
BRANCH   9  21
HETATM   21  C   UNL     1       3.072  28.142  48.758  1.00  0.00     0.032 A 
HETATM   22  C   UNL     1       4.389  27.866  48.357  1.00  0.00     0.045 A 
HETATM   23 CL   UNL     1       5.711  28.921  48.703  1.00  0.00    -0.084 Cl
HETATM   24  C   UNL     1       4.691  26.697  47.642  1.00  0.00     0.024 A 
HETATM   25  C   UNL     1       3.691  25.782  47.320  1.00  0.00     0.005 A 
HETATM   26  C   UNL     1       2.382  26.037  47.712  1.00  0.00     0.043 A 
HETATM   27  C   UNL     1       2.088  27.200  48.419  1.00  0.00     0.126 A 
HETATM   28  F   UNL     1       0.811  27.415  48.771  1.00  0.00    -0.205 F 
ENDBRANCH   9  21
BRANCH  10  29
HETATM   29  C   UNL     1       1.700  30.690  47.589  1.00  0.00     0.293 C 
HETATM   30  O   UNL     1       0.501  30.911  47.647  1.00  0.00    -0.259 OA
BRANCH  29  31
HETATM   31  O   UNL     1       2.419  30.502  46.455  1.00  0.00    -0.323 OA
HETATM   32  C   UNL     1       2.106  31.424  45.410  1.00  0.00     0.213 C 
ENDBRANCH  29  31
ENDBRANCH  10  29
TORSDOF 6
ENDMDL
MODEL 10
REMARK VINA RESULT:      -7.6      6.260      8.474
REMARK  6 active torsions:
REMARK  status: ('A' for Active; 'I' for Inactive)
REMARK    1  A    between atoms: C_7  and  S_8 
REMARK    2  A    between atoms: S_8  and  C_9 
REMARK    3  A    between atoms: C_9  and  C_10 
REMARK    4  A    between atoms: C_18  and  C_19 
REMARK    5  A    between atoms: C_27  and  C_28 
REMARK    6  A    between atoms: C_28  and  O_29 
ROOT
HETATM    1  C   UNL     1       1.953  26.888  46.956  1.00  0.00     0.070 C 
HETATM    2  C   UNL     1       3.005  27.320  47.947  1.00  0.00     0.037 A 
HETATM    3  N   UNL     1       3.419  26.344  48.847  1.00  0.00    -0.192 N 
HETATM    4  C   UNL     1       4.344  26.557  49.799  1.00  0.00     0.726 A 
HETATM    5  N   UNL     1       4.882  27.806  49.943  1.00  0.00    -0.082 N 
HETATM    6  N   UNL     1       5.823  27.826  50.908  1.00  0.00    -0.128 NA
HETATM    7  C   UNL     1       5.771  26.559  51.336  1.00  0.00     0.226 A 
HETATM    8  N   UNL     1       4.876  25.749  50.679  1.00  0.00    -0.035 NA
HETATM    9  C   UNL     1       4.536  28.957  49.097  1.00  0.00     0.208 A 
HETATM   10  C   UNL     1       3.528  28.571  48.018  1.00  0.00     0.070 A 
HETATM   11  H   UNL     1       3.015  25.416  48.754  1.00  0.00     0.184 HD
ENDROOT
BRANCH   7  12
HETATM   12  S   UNL     1       6.785  26.011  52.642  1.00  0.00    -0.083 SA
BRANCH  12  13
HETATM   13  C   UNL     1       6.208  27.111  53.964  1.00  0.00     0.123 C 
BRANCH  13  14
HETATM   14  C   UNL     1       6.743  26.695  55.314  1.00  0.00    -0.027 A 
HETATM   15  C   UNL     1       7.735  27.419  55.996  1.00  0.00     0.041 A 
HETATM   16 CL   UNL     1       8.441  28.851  55.337  1.00  0.00    -0.084 Cl
HETATM   17  C   UNL     1       8.192  26.993  57.248  1.00  0.00     0.024 A 
HETATM   18  C   UNL     1       7.664  25.846  57.837  1.00  0.00     0.002 A 
HETATM   19  C   UNL     1       6.674  25.122  57.178  1.00  0.00     0.001 A 
HETATM   20  C   UNL     1       6.214  25.545  55.929  1.00  0.00     0.009 A 
ENDBRANCH  13  14
ENDBRANCH  12  13
ENDBRANCH   7  12
BRANCH   9  21
HETATM   21  C   UNL     1       4.160  30.147  49.965  1.00  0.00     0.032 A 
HETATM   22  C   UNL     1       2.969  30.267  50.698  1.00  0.00     0.045 A 
HETATM   23 CL   UNL     1       1.744  29.050  50.696  1.00  0.00    -0.084 Cl
HETATM   24  C   UNL     1       2.720  31.405  51.480  1.00  0.00     0.024 A 
HETATM   25  C   UNL     1       3.652  32.438  51.549  1.00  0.00     0.005 A 
HETATM   26  C   UNL     1       4.838  32.335  50.833  1.00  0.00     0.043 A 
HETATM   27  C   UNL     1       5.079  31.204  50.057  1.00  0.00     0.126 A 
HETATM   28  F   UNL     1       6.231  31.146  49.371  1.00  0.00    -0.205 F 
ENDBRANCH   9  21
BRANCH  10  29
HETATM   29  C   UNL     1       3.221  29.630  47.034  1.00  0.00     0.293 C 
HETATM   30  O   UNL     1       2.101  30.071  46.834  1.00  0.00    -0.259 OA
BRANCH  29  31
HETATM   31  O   UNL     1       4.366  30.083  46.464  1.00  0.00    -0.323 OA
HETATM   32  C   UNL     1       4.434  31.504  46.349  1.00  0.00     0.213 C 
ENDBRANCH  29  31
ENDBRANCH  10  29
TORSDOF 6
ENDMDL
