MODEL 1
REMARK VINA RESULT:      -9.2      0.000      0.000
REMARK  5 active torsions:
REMARK  status: ('A' for Active; 'I' for Inactive)
REMARK    1  A    between atoms: C_3  and  N_4 
REMARK       I    between atoms: N_4  and  C_5 
REMARK    2  A    between atoms: C_5  and  C_6 
REMARK    3  A    between atoms: C_6  and  N_7 
REMARK    4  A    between atoms: C_6  and  C_16 
REMARK       I    between atoms: N_7  and  C_8 
REMARK    5  A    between atoms: C_8  and  C_9 
ROOT
HETATM    1  C   UNL     1       7.287  26.659  54.360  1.00  0.00     0.210 C 
ENDROOT
BRANCH   1   2
HETATM    2  C   UNL     1       7.027  25.192  54.822  1.00  0.00     0.249 C 
HETATM    3  N   UNL     1       8.103  24.326  54.712  1.00  0.00    -0.324 N 
HETATM    4  H   UNL     1       9.010  24.780  54.616  1.00  0.00     0.169 HD
HETATM    5  O   UNL     1       5.902  24.865  55.210  1.00  0.00    -0.270 OA
BRANCH   3   6
HETATM    6  C   UNL     1       8.118  22.992  55.188  1.00  0.00     0.046 A 
HETATM    7  C   UNL     1       7.908  21.880  54.346  1.00  0.00    -0.035 A 
HETATM    8  C   UNL     1       7.749  21.978  52.853  1.00  0.00     0.050 C 
HETATM    9  C   UNL     1       7.896  20.588  54.902  1.00  0.00     0.009 A 
HETATM   10  C   UNL     1       8.148  20.387  56.255  1.00  0.00     0.001 A 
HETATM   11  C   UNL     1       8.420  21.476  57.074  1.00  0.00     0.009 A 
HETATM   12  C   UNL     1       8.409  22.783  56.558  1.00  0.00    -0.035 A 
HETATM   13  C   UNL     1       8.682  23.919  57.507  1.00  0.00     0.050 C 
ENDBRANCH   3   6
ENDBRANCH   1   2
BRANCH   1  14
HETATM   14  N   UNL     1       6.569  27.054  53.148  1.00  0.00    -0.338 N 
HETATM   15  C   UNL     1       6.465  26.317  51.996  1.00  0.00     0.273 C 
HETATM   16  O   UNL     1       7.184  25.356  51.741  1.00  0.00    -0.266 OA
HETATM   17  H   UNL     1       5.856  27.774  53.237  1.00  0.00     0.164 HD
BRANCH  15  18
HETATM   18  C   UNL     1       5.416  26.798  51.086  1.00  0.00     0.145 A 
HETATM   19  N   UNL     1       4.778  25.969  50.235  1.00  0.00    -0.170 NA
HETATM   20  N   UNL     1       3.914  26.770  49.586  1.00  0.00    -0.289 N 
HETATM   21  H   UNL     1       3.308  26.358  48.882  1.00  0.00     0.188 HD
HETATM   22  C   UNL     1       3.977  28.072  49.979  1.00  0.00     0.112 A 
HETATM   23  C   UNL     1       4.943  28.129  50.953  1.00  0.00     0.058 A 
ENDBRANCH  15  18
ENDBRANCH   1  14
BRANCH   1  24
HETATM   24  C   UNL     1       7.269  27.700  55.481  1.00  0.00    -0.026 A 
HETATM   25  C   UNL     1       6.422  28.819  55.403  1.00  0.00     0.010 A 
HETATM   26  C   UNL     1       6.345  29.745  56.447  1.00  0.00     0.001 A 
HETATM   27  C   UNL     1       7.097  29.558  57.602  1.00  0.00     0.000 A 
HETATM   28  C   UNL     1       7.917  28.441  57.718  1.00  0.00     0.001 A 
HETATM   29  C   UNL     1       7.994  27.515  56.673  1.00  0.00     0.010 A 
ENDBRANCH   1  24
TORSDOF 5
ENDMDL
MODEL 2
REMARK VINA RESULT:      -9.0      2.976      5.489
REMARK  5 active torsions:
REMARK  status: ('A' for Active; 'I' for Inactive)
REMARK    1  A    between atoms: C_3  and  N_4 
REMARK       I    between atoms: N_4  and  C_5 
REMARK    2  A    between atoms: C_5  and  C_6 
REMARK    3  A    between atoms: C_6  and  N_7 
REMARK    4  A    between atoms: C_6  and  C_16 
REMARK       I    between atoms: N_7  and  C_8 
REMARK    5  A    between atoms: C_8  and  C_9 
ROOT
HETATM    1  C   UNL     1       6.109  27.801  55.736  1.00  0.00     0.210 C 
ENDROOT
BRANCH   1   2
HETATM    2  C   UNL     1       6.993  26.733  55.022  1.00  0.00     0.249 C 
HETATM    3  N   UNL     1       6.784  25.420  55.412  1.00  0.00    -0.324 N 
HETATM    4  H   UNL     1       5.906  25.252  55.899  1.00  0.00     0.169 HD
HETATM    5  O   UNL     1       7.842  27.094  54.202  1.00  0.00    -0.270 OA
BRANCH   3   6
HETATM    6  C   UNL     1       7.389  24.292  54.805  1.00  0.00     0.046 A 
HETATM    7  C   UNL     1       7.003  23.813  53.535  1.00  0.00    -0.035 A 
HETATM    8  C   UNL     1       5.995  24.496  52.651  1.00  0.00     0.050 C 
HETATM    9  C   UNL     1       7.622  22.660  53.018  1.00  0.00     0.009 A 
HETATM   10  C   UNL     1       8.648  22.024  53.710  1.00  0.00     0.001 A 
HETATM   11  C   UNL     1       9.073  22.533  54.930  1.00  0.00     0.009 A 
HETATM   12  C   UNL     1       8.455  23.663  55.492  1.00  0.00    -0.035 A 
HETATM   13  C   UNL     1       8.945  24.143  56.832  1.00  0.00     0.050 C 
ENDBRANCH   3   6
ENDBRANCH   1   2
BRANCH   1  14
HETATM   14  N   UNL     1       6.839  28.701  56.629  1.00  0.00    -0.338 N 
HETATM   15  C   UNL     1       7.676  28.323  57.647  1.00  0.00     0.273 C 
HETATM   16  O   UNL     1       7.707  27.186  58.109  1.00  0.00    -0.266 OA
HETATM   17  H   UNL     1       6.984  29.658  56.317  1.00  0.00     0.164 HD
BRANCH  15  18
HETATM   18  C   UNL     1       8.525  29.414  58.144  1.00  0.00     0.145 A 
HETATM   19  N   UNL     1       8.389  29.908  59.392  1.00  0.00    -0.170 NA
HETATM   20  N   UNL     1       9.322  30.875  59.462  1.00  0.00    -0.289 N 
HETATM   21  H   UNL     1       9.413  31.397  60.329  1.00  0.00     0.188 HD
HETATM   22  C   UNL     1      10.039  31.026  58.314  1.00  0.00     0.112 A 
HETATM   23  C   UNL     1       9.548  30.093  57.435  1.00  0.00     0.058 A 
ENDBRANCH  15  18
ENDBRANCH   1  14
BRANCH   1  24
HETATM   24  C   UNL     1       5.080  28.490  54.838  1.00  0.00    -0.026 A 
HETATM   25  C   UNL     1       4.818  29.864  54.974  1.00  0.00     0.010 A 
HETATM   26  C   UNL     1       3.930  30.522  54.119  1.00  0.00     0.001 A 
HETATM   27  C   UNL     1       3.301  29.824  53.094  1.00  0.00     0.000 A 
HETATM   28  C   UNL     1       3.567  28.470  52.917  1.00  0.00     0.001 A 
HETATM   29  C   UNL     1       4.457  27.812  53.773  1.00  0.00     0.010 A 
ENDBRANCH   1  24
TORSDOF 5
ENDMDL
MODEL 3
REMARK VINA RESULT:      -8.8      0.666      2.081
REMARK  5 active torsions:
REMARK  status: ('A' for Active; 'I' for Inactive)
REMARK    1  A    between atoms: C_3  and  N_4 
REMARK       I    between atoms: N_4  and  C_5 
REMARK    2  A    between atoms: C_5  and  C_6 
REMARK    3  A    between atoms: C_6  and  N_7 
REMARK    4  A    between atoms: C_6  and  C_16 
REMARK       I    between atoms: N_7  and  C_8 
REMARK    5  A    between atoms: C_8  and  C_9 
ROOT
HETATM    1  C   UNL     1       7.236  26.672  54.415  1.00  0.00     0.210 C 
ENDROOT
BRANCH   1   2
HETATM    2  C   UNL     1       7.015  25.191  54.852  1.00  0.00     0.249 C 
HETATM    3  N   UNL     1       8.111  24.354  54.716  1.00  0.00    -0.324 N 
HETATM    4  H   UNL     1       9.006  24.831  54.620  1.00  0.00     0.169 HD
HETATM    5  O   UNL     1       5.903  24.830  55.245  1.00  0.00    -0.270 OA
BRANCH   3   6
HETATM    6  C   UNL     1       8.163  23.012  55.167  1.00  0.00     0.046 A 
HETATM    7  C   UNL     1       8.382  22.671  56.518  1.00  0.00    -0.035 A 
HETATM    8  C   UNL     1       8.480  23.678  57.632  1.00  0.00     0.050 C 
HETATM    9  C   UNL     1       8.462  21.314  56.881  1.00  0.00     0.009 A 
HETATM   10  C   UNL     1       8.269  20.307  55.941  1.00  0.00     0.001 A 
HETATM   11  C   UNL     1       7.989  20.642  54.623  1.00  0.00     0.009 A 
HETATM   12  C   UNL     1       7.933  21.986  54.219  1.00  0.00    -0.035 A 
HETATM   13  C   UNL     1       7.655  22.277  52.768  1.00  0.00     0.050 C 
ENDBRANCH   3   6
ENDBRANCH   1   2
BRANCH   1  14
HETATM   14  N   UNL     1       6.477  27.079  53.233  1.00  0.00    -0.338 N 
HETATM   15  C   UNL     1       6.386  26.384  52.054  1.00  0.00     0.273 C 
HETATM   16  O   UNL     1       7.145  25.469  51.749  1.00  0.00    -0.266 OA
HETATM   17  H   UNL     1       5.733  27.760  53.362  1.00  0.00     0.164 HD
BRANCH  15  18
HETATM   18  C   UNL     1       5.299  26.849  51.182  1.00  0.00     0.145 A 
HETATM   19  N   UNL     1       4.449  27.825  51.565  1.00  0.00    -0.170 NA
HETATM   20  N   UNL     1       3.615  27.959  50.518  1.00  0.00    -0.289 N 
HETATM   21  H   UNL     1       2.876  28.653  50.575  1.00  0.00     0.188 HD
HETATM   22  C   UNL     1       3.889  27.109  49.490  1.00  0.00     0.112 A 
HETATM   23  C   UNL     1       4.977  26.372  49.886  1.00  0.00     0.058 A 
ENDBRANCH  15  18
ENDBRANCH   1  14
BRANCH   1  24
HETATM   24  C   UNL     1       7.229  27.688  55.559  1.00  0.00    -0.026 A 
HETATM   25  C   UNL     1       8.018  27.480  56.704  1.00  0.00     0.010 A 
HETATM   26  C   UNL     1       8.074  28.429  57.729  1.00  0.00     0.001 A 
HETATM   27  C   UNL     1       7.362  29.618  57.619  1.00  0.00     0.000 A 
HETATM   28  C   UNL     1       6.601  29.863  56.480  1.00  0.00     0.001 A 
HETATM   29  C   UNL     1       6.544  28.913  55.456  1.00  0.00     0.010 A 
ENDBRANCH   1  24
TORSDOF 5
ENDMDL
MODEL 4
REMARK VINA RESULT:      -8.7      2.085      5.008
REMARK  5 active torsions:
REMARK  status: ('A' for Active; 'I' for Inactive)
REMARK    1  A    between atoms: C_3  and  N_4 
REMARK       I    between atoms: N_4  and  C_5 
REMARK    2  A    between atoms: C_5  and  C_6 
REMARK    3  A    between atoms: C_6  and  N_7 
REMARK    4  A    between atoms: C_6  and  C_16 
REMARK       I    between atoms: N_7  and  C_8 
REMARK    5  A    between atoms: C_8  and  C_9 
ROOT
HETATM    1  C   UNL     1       6.020  27.383  54.173  1.00  0.00     0.210 C 
ENDROOT
BRANCH   1   2
HETATM    2  C   UNL     1       6.133  25.885  54.596  1.00  0.00     0.249 C 
HETATM    3  N   UNL     1       7.418  25.371  54.651  1.00  0.00    -0.324 N 
HETATM    4  H   UNL     1       8.159  26.069  54.690  1.00  0.00     0.169 HD
HETATM    5  O   UNL     1       5.108  25.234  54.813  1.00  0.00    -0.270 OA
BRANCH   3   6
HETATM    6  C   UNL     1       7.751  24.079  55.129  1.00  0.00     0.046 A 
HETATM    7  C   UNL     1       7.806  22.948  54.288  1.00  0.00    -0.035 A 
HETATM    8  C   UNL     1       7.622  23.001  52.796  1.00  0.00     0.050 C 
HETATM    9  C   UNL     1       8.103  21.691  54.846  1.00  0.00     0.009 A 
HETATM   10  C   UNL     1       8.402  21.558  56.198  1.00  0.00     0.001 A 
HETATM   11  C   UNL     1       8.412  22.682  57.014  1.00  0.00     0.009 A 
HETATM   12  C   UNL     1       8.089  23.948  56.497  1.00  0.00    -0.035 A 
HETATM   13  C   UNL     1       8.089  25.119  57.444  1.00  0.00     0.050 C 
ENDBRANCH   3   6
ENDBRANCH   1   2
BRANCH   1  14
HETATM   14  N   UNL     1       7.065  28.251  54.715  1.00  0.00    -0.338 N 
HETATM   15  C   UNL     1       7.186  28.648  56.022  1.00  0.00     0.273 C 
HETATM   16  O   UNL     1       6.283  28.543  56.846  1.00  0.00    -0.266 OA
HETATM   17  H   UNL     1       7.924  28.344  54.179  1.00  0.00     0.164 HD
BRANCH  15  18
HETATM   18  C   UNL     1       8.500  29.225  56.339  1.00  0.00     0.145 A 
HETATM   19  N   UNL     1       9.424  29.455  55.383  1.00  0.00    -0.170 NA
HETATM   20  N   UNL     1      10.467  29.972  56.057  1.00  0.00    -0.289 N 
HETATM   21  H   UNL     1      11.298  30.233  55.535  1.00  0.00     0.188 HD
HETATM   22  C   UNL     1      10.254  30.073  57.398  1.00  0.00     0.112 A 
HETATM   23  C   UNL     1       8.985  29.596  57.618  1.00  0.00     0.058 A 
ENDBRANCH  15  18
ENDBRANCH   1  14
BRANCH   1  24
HETATM   24  C   UNL     1       5.702  27.612  52.694  1.00  0.00    -0.026 A 
HETATM   25  C   UNL     1       5.683  28.912  52.160  1.00  0.00     0.010 A 
HETATM   26  C   UNL     1       5.460  29.135  50.799  1.00  0.00     0.001 A 
HETATM   27  C   UNL     1       5.273  28.059  49.937  1.00  0.00     0.000 A 
HETATM   28  C   UNL     1       5.320  26.761  50.434  1.00  0.00     0.001 A 
HETATM   29  C   UNL     1       5.544  26.539  51.797  1.00  0.00     0.010 A 
ENDBRANCH   1  24
TORSDOF 5
ENDMDL
MODEL 5
REMARK VINA RESULT:      -8.7      2.704      5.243
REMARK  5 active torsions:
REMARK  status: ('A' for Active; 'I' for Inactive)
REMARK    1  A    between atoms: C_3  and  N_4 
REMARK       I    between atoms: N_4  and  C_5 
REMARK    2  A    between atoms: C_5  and  C_6 
REMARK    3  A    between atoms: C_6  and  N_7 
REMARK    4  A    between atoms: C_6  and  C_16 
REMARK       I    between atoms: N_7  and  C_8 
REMARK    5  A    between atoms: C_8  and  C_9 
ROOT
HETATM    1  C   UNL     1       5.986  27.423  56.309  1.00  0.00     0.210 C 
ENDROOT
BRANCH   1   2
HETATM    2  C   UNL     1       6.211  25.954  55.834  1.00  0.00     0.249 C 
HETATM    3  N   UNL     1       7.346  25.735  55.069  1.00  0.00    -0.324 N 
HETATM    4  H   UNL     1       8.051  26.468  55.129  1.00  0.00     0.169 HD
HETATM    5  O   UNL     1       5.377  25.089  56.112  1.00  0.00    -0.270 OA
BRANCH   3   6
HETATM    6  C   UNL     1       7.800  24.463  54.644  1.00  0.00     0.046 A 
HETATM    7  C   UNL     1       8.543  23.602  55.480  1.00  0.00    -0.035 A 
HETATM    8  C   UNL     1       8.843  23.889  56.926  1.00  0.00     0.050 C 
HETATM    9  C   UNL     1       8.995  22.371  54.971  1.00  0.00     0.009 A 
HETATM   10  C   UNL     1       8.669  21.964  53.681  1.00  0.00     0.001 A 
HETATM   11  C   UNL     1       7.883  22.782  52.880  1.00  0.00     0.009 A 
HETATM   12  C   UNL     1       7.441  24.032  53.344  1.00  0.00    -0.035 A 
HETATM   13  C   UNL     1       6.618  24.882  52.412  1.00  0.00     0.050 C 
ENDBRANCH   3   6
ENDBRANCH   1   2
BRANCH   1  14
HETATM   14  N   UNL     1       7.191  28.101  56.788  1.00  0.00    -0.338 N 
HETATM   15  C   UNL     1       8.136  28.714  56.006  1.00  0.00     0.273 C 
HETATM   16  O   UNL     1       8.229  28.538  54.795  1.00  0.00    -0.266 OA
HETATM   17  H   UNL     1       7.205  28.405  57.758  1.00  0.00     0.164 HD
BRANCH  15  18
HETATM   18  C   UNL     1       9.039  29.594  56.761  1.00  0.00     0.145 A 
HETATM   19  N   UNL     1      10.270  29.906  56.307  1.00  0.00    -0.170 NA
HETATM   20  N   UNL     1      10.774  30.711  57.261  1.00  0.00    -0.289 N 
HETATM   21  H   UNL     1      11.711  31.083  57.134  1.00  0.00     0.188 HD
HETATM   22  C   UNL     1       9.924  30.919  58.305  1.00  0.00     0.112 A 
HETATM   23  C   UNL     1       8.786  30.208  58.014  1.00  0.00     0.058 A 
ENDBRANCH  15  18
ENDBRANCH   1  14
BRANCH   1  24
HETATM   24  C   UNL     1       5.100  28.268  55.391  1.00  0.00    -0.026 A 
HETATM   25  C   UNL     1       4.661  29.540  55.796  1.00  0.00     0.010 A 
HETATM   26  C   UNL     1       3.905  30.352  54.945  1.00  0.00     0.001 A 
HETATM   27  C   UNL     1       3.594  29.917  53.661  1.00  0.00     0.000 A 
HETATM   28  C   UNL     1       4.045  28.676  53.225  1.00  0.00     0.001 A 
HETATM   29  C   UNL     1       4.800  27.865  54.076  1.00  0.00     0.010 A 
ENDBRANCH   1  24
TORSDOF 5
ENDMDL
MODEL 6
REMARK VINA RESULT:      -8.6      1.832      5.594
REMARK  5 active torsions:
REMARK  status: ('A' for Active; 'I' for Inactive)
REMARK    1  A    between atoms: C_3  and  N_4 
REMARK       I    between atoms: N_4  and  C_5 
REMARK    2  A    between atoms: C_5  and  C_6 
REMARK    3  A    between atoms: C_6  and  N_7 
REMARK    4  A    between atoms: C_6  and  C_16 
REMARK       I    between atoms: N_7  and  C_8 
REMARK    5  A    between atoms: C_8  and  C_9 
ROOT
HETATM    1  C   UNL     1       6.113  25.710  53.526  1.00  0.00     0.210 C 
ENDROOT
BRANCH   1   2
HETATM    2  C   UNL     1       6.674  26.959  54.272  1.00  0.00     0.249 C 
HETATM    3  N   UNL     1       6.028  27.297  55.451  1.00  0.00    -0.324 N 
HETATM    4  H   UNL     1       5.456  26.556  55.854  1.00  0.00     0.169 HD
HETATM    5  O   UNL     1       7.607  27.597  53.777  1.00  0.00    -0.270 OA
BRANCH   3   6
HETATM    6  C   UNL     1       6.453  28.313  56.342  1.00  0.00     0.046 A 
HETATM    7  C   UNL     1       5.917  29.618  56.318  1.00  0.00    -0.035 A 
HETATM    8  C   UNL     1       4.780  30.042  55.429  1.00  0.00     0.050 C 
HETATM    9  C   UNL     1       6.421  30.584  57.208  1.00  0.00     0.009 A 
HETATM   10  C   UNL     1       7.394  30.257  58.148  1.00  0.00     0.001 A 
HETATM   11  C   UNL     1       7.875  28.956  58.215  1.00  0.00     0.009 A 
HETATM   12  C   UNL     1       7.417  27.974  57.321  1.00  0.00    -0.035 A 
HETATM   13  C   UNL     1       8.004  26.591  57.429  1.00  0.00     0.050 C 
ENDBRANCH   3   6
ENDBRANCH   1   2
BRANCH   1  14
HETATM   14  N   UNL     1       5.752  25.945  52.128  1.00  0.00    -0.338 N 
HETATM   15  C   UNL     1       4.909  26.925  51.666  1.00  0.00     0.273 C 
HETATM   16  O   UNL     1       4.145  27.554  52.391  1.00  0.00    -0.266 OA
HETATM   17  H   UNL     1       6.368  25.567  51.412  1.00  0.00     0.164 HD
BRANCH  15  18
HETATM   18  C   UNL     1       5.000  27.139  50.216  1.00  0.00     0.145 A 
HETATM   19  N   UNL     1       5.628  28.213  49.694  1.00  0.00    -0.170 NA
HETATM   20  N   UNL     1       5.495  28.054  48.365  1.00  0.00    -0.289 N 
HETATM   21  H   UNL     1       5.900  28.754  47.751  1.00  0.00     0.188 HD
HETATM   22  C   UNL     1       4.804  26.933  48.015  1.00  0.00     0.112 A 
HETATM   23  C   UNL     1       4.467  26.313  49.193  1.00  0.00     0.058 A 
ENDBRANCH  15  18
ENDBRANCH   1  14
BRANCH   1  24
HETATM   24  C   UNL     1       6.881  24.411  53.777  1.00  0.00    -0.026 A 
HETATM   25  C   UNL     1       6.915  23.838  55.060  1.00  0.00     0.010 A 
HETATM   26  C   UNL     1       7.557  22.618  55.293  1.00  0.00     0.001 A 
HETATM   27  C   UNL     1       8.158  21.934  54.243  1.00  0.00     0.000 A 
HETATM   28  C   UNL     1       8.110  22.463  52.957  1.00  0.00     0.001 A 
HETATM   29  C   UNL     1       7.468  23.684  52.724  1.00  0.00     0.010 A 
ENDBRANCH   1  24
TORSDOF 5
ENDMDL
MODEL 7
REMARK VINA RESULT:      -8.4      5.952      8.940
REMARK  5 active torsions:
REMARK  status: ('A' for Active; 'I' for Inactive)
REMARK    1  A    between atoms: C_3  and  N_4 
REMARK       I    between atoms: N_4  and  C_5 
REMARK    2  A    between atoms: C_5  and  C_6 
REMARK    3  A    between atoms: C_6  and  N_7 
REMARK    4  A    between atoms: C_6  and  C_16 
REMARK       I    between atoms: N_7  and  C_8 
REMARK    5  A    between atoms: C_8  and  C_9 
ROOT
HETATM    1  C   UNL     1       6.871  30.714  58.413  1.00  0.00     0.210 C 
ENDROOT
BRANCH   1   2
HETATM    2  C   UNL     1       6.705  31.728  59.586  1.00  0.00     0.249 C 
HETATM    3  N   UNL     1       6.773  31.190  60.861  1.00  0.00    -0.324 N 
HETATM    4  H   UNL     1       7.196  30.266  60.915  1.00  0.00     0.169 HD
HETATM    5  O   UNL     1       6.486  32.917  59.338  1.00  0.00    -0.270 OA
BRANCH   3   6
HETATM    6  C   UNL     1       6.772  31.948  62.058  1.00  0.00     0.046 A 
HETATM    7  C   UNL     1       5.584  32.375  62.688  1.00  0.00    -0.035 A 
HETATM    8  C   UNL     1       4.205  31.992  62.225  1.00  0.00     0.050 C 
HETATM    9  C   UNL     1       5.667  33.161  63.852  1.00  0.00     0.009 A 
HETATM   10  C   UNL     1       6.897  33.471  64.423  1.00  0.00     0.001 A 
HETATM   11  C   UNL     1       8.065  32.997  63.840  1.00  0.00     0.009 A 
HETATM   12  C   UNL     1       8.021  32.236  62.659  1.00  0.00    -0.035 A 
HETATM   13  C   UNL     1       9.327  31.780  62.064  1.00  0.00     0.050 C 
ENDBRANCH   3   6
ENDBRANCH   1   2
BRANCH   1  14
HETATM   14  N   UNL     1       5.967  30.933  57.284  1.00  0.00    -0.338 N 
HETATM   15  C   UNL     1       4.971  30.084  56.872  1.00  0.00     0.273 C 
HETATM   16  O   UNL     1       4.889  28.914  57.231  1.00  0.00    -0.266 OA
HETATM   17  H   UNL     1       5.854  31.886  56.950  1.00  0.00     0.164 HD
BRANCH  15  18
HETATM   18  C   UNL     1       4.016  30.709  55.945  1.00  0.00     0.145 A 
HETATM   19  N   UNL     1       2.797  31.118  56.351  1.00  0.00    -0.170 NA
HETATM   20  N   UNL     1       2.234  31.620  55.237  1.00  0.00    -0.289 N 
HETATM   21  H   UNL     1       1.294  32.000  55.298  1.00  0.00     0.188 HD
HETATM   22  C   UNL     1       3.035  31.541  54.138  1.00  0.00     0.112 A 
HETATM   23  C   UNL     1       4.202  30.954  54.561  1.00  0.00     0.058 A 
ENDBRANCH  15  18
ENDBRANCH   1  14
BRANCH   1  24
HETATM   24  C   UNL     1       8.319  30.411  58.022  1.00  0.00    -0.026 A 
HETATM   25  C   UNL     1       8.622  29.311  57.200  1.00  0.00     0.010 A 
HETATM   26  C   UNL     1       9.931  29.059  56.780  1.00  0.00     0.001 A 
HETATM   27  C   UNL     1      10.961  29.915  57.154  1.00  0.00     0.000 A 
HETATM   28  C   UNL     1      10.682  31.029  57.939  1.00  0.00     0.001 A 
HETATM   29  C   UNL     1       9.372  31.281  58.359  1.00  0.00     0.010 A 
ENDBRANCH   1  24
TORSDOF 5
ENDMDL
MODEL 8
REMARK VINA RESULT:      -8.3      2.203      7.128
REMARK  5 active torsions:
REMARK  status: ('A' for Active; 'I' for Inactive)
REMARK    1  A    between atoms: C_3  and  N_4 
REMARK       I    between atoms: N_4  and  C_5 
REMARK    2  A    between atoms: C_5  and  C_6 
REMARK    3  A    between atoms: C_6  and  N_7 
REMARK    4  A    between atoms: C_6  and  C_16 
REMARK       I    between atoms: N_7  and  C_8 
REMARK    5  A    between atoms: C_8  and  C_9 
ROOT
HETATM    1  C   UNL     1       6.950  25.960  53.907  1.00  0.00     0.210 C 
ENDROOT
BRANCH   1   2
HETATM    2  C   UNL     1       5.622  26.337  53.181  1.00  0.00     0.249 C 
HETATM    3  N   UNL     1       5.626  27.550  52.511  1.00  0.00    -0.324 N 
HETATM    4  H   UNL     1       6.551  27.931  52.319  1.00  0.00     0.169 HD
HETATM    5  O   UNL     1       4.646  25.588  53.268  1.00  0.00    -0.270 OA
BRANCH   3   6
HETATM    6  C   UNL     1       4.573  28.021  51.689  1.00  0.00     0.046 A 
HETATM    7  C   UNL     1       4.371  27.560  50.371  1.00  0.00    -0.035 A 
HETATM    8  C   UNL     1       5.176  26.459  49.735  1.00  0.00     0.050 C 
HETATM    9  C   UNL     1       3.328  28.108  49.603  1.00  0.00     0.009 A 
HETATM   10  C   UNL     1       2.457  29.050  50.142  1.00  0.00     0.001 A 
HETATM   11  C   UNL     1       2.614  29.456  51.461  1.00  0.00     0.009 A 
HETATM   12  C   UNL     1       3.665  28.953  52.247  1.00  0.00    -0.035 A 
HETATM   13  C   UNL     1       3.796  29.460  53.659  1.00  0.00     0.050 C 
ENDBRANCH   3   6
ENDBRANCH   1   2
BRANCH   1  14
HETATM   14  N   UNL     1       7.217  26.722  55.127  1.00  0.00    -0.338 N 
HETATM   15  C   UNL     1       7.742  27.987  55.189  1.00  0.00     0.273 C 
HETATM   16  O   UNL     1       8.303  28.532  54.244  1.00  0.00    -0.266 OA
HETATM   17  H   UNL     1       6.727  26.442  55.973  1.00  0.00     0.164 HD
BRANCH  15  18
HETATM   18  C   UNL     1       7.581  28.624  56.503  1.00  0.00     0.145 A 
HETATM   19  N   UNL     1       8.040  28.047  57.633  1.00  0.00    -0.170 NA
HETATM   20  N   UNL     1       7.703  28.917  58.603  1.00  0.00    -0.289 N 
HETATM   21  H   UNL     1       7.955  28.694  59.561  1.00  0.00     0.188 HD
HETATM   22  C   UNL     1       7.044  30.017  58.144  1.00  0.00     0.112 A 
HETATM   23  C   UNL     1       6.946  29.861  56.783  1.00  0.00     0.058 A 
ENDBRANCH  15  18
ENDBRANCH   1  14
BRANCH   1  24
HETATM   24  C   UNL     1       7.217  24.458  54.021  1.00  0.00    -0.026 A 
HETATM   25  C   UNL     1       7.613  23.715  52.894  1.00  0.00     0.010 A 
HETATM   26  C   UNL     1       7.924  22.357  52.994  1.00  0.00     0.001 A 
HETATM   27  C   UNL     1       7.870  21.716  54.227  1.00  0.00     0.000 A 
HETATM   28  C   UNL     1       7.514  22.436  55.363  1.00  0.00     0.001 A 
HETATM   29  C   UNL     1       7.202  23.796  55.263  1.00  0.00     0.010 A 
ENDBRANCH   1  24
TORSDOF 5
ENDMDL
MODEL 9
REMARK VINA RESULT:      -8.3      2.107      3.059
REMARK  5 active torsions:
REMARK  status: ('A' for Active; 'I' for Inactive)
REMARK    1  A    between atoms: C_3  and  N_4 
REMARK       I    between atoms: N_4  and  C_5 
REMARK    2  A    between atoms: C_5  and  C_6 
REMARK    3  A    between atoms: C_6  and  N_7 
REMARK    4  A    between atoms: C_6  and  C_16 
REMARK       I    between atoms: N_7  and  C_8 
REMARK    5  A    between atoms: C_8  and  C_9 
ROOT
HETATM    1  C   UNL     1       5.564  28.557  53.498  1.00  0.00     0.210 C 
ENDROOT
BRANCH   1   2
HETATM    2  C   UNL     1       6.547  27.430  53.941  1.00  0.00     0.249 C 
HETATM    3  N   UNL     1       6.006  26.157  54.025  1.00  0.00    -0.324 N 
HETATM    4  H   UNL     1       5.125  26.033  53.530  1.00  0.00     0.169 HD
HETATM    5  O   UNL     1       7.712  27.716  54.230  1.00  0.00    -0.270 OA
BRANCH   3   6
HETATM    6  C   UNL     1       6.749  24.979  54.286  1.00  0.00     0.046 A 
HETATM    7  C   UNL     1       7.503  24.320  53.292  1.00  0.00    -0.035 A 
HETATM    8  C   UNL     1       7.684  24.841  51.892  1.00  0.00     0.050 C 
HETATM    9  C   UNL     1       8.180  23.131  53.619  1.00  0.00     0.009 A 
HETATM   10  C   UNL     1       8.167  22.631  54.918  1.00  0.00     0.001 A 
HETATM   11  C   UNL     1       7.478  23.315  55.911  1.00  0.00     0.009 A 
HETATM   12  C   UNL     1       6.765  24.488  55.613  1.00  0.00    -0.035 A 
HETATM   13  C   UNL     1       6.015  25.162  56.731  1.00  0.00     0.050 C 
ENDBRANCH   3   6
ENDBRANCH   1   2
BRANCH   1  14
HETATM   14  N   UNL     1       4.755  28.234  52.324  1.00  0.00    -0.338 N 
HETATM   15  C   UNL     1       5.053  28.559  51.025  1.00  0.00     0.273 C 
HETATM   16  O   UNL     1       5.898  29.392  50.714  1.00  0.00    -0.266 OA
HETATM   17  H   UNL     1       4.080  27.479  52.410  1.00  0.00     0.164 HD
BRANCH  15  18
HETATM   18  C   UNL     1       4.252  27.821  50.038  1.00  0.00     0.145 A 
HETATM   19  N   UNL     1       3.010  28.219  49.691  1.00  0.00    -0.170 NA
HETATM   20  N   UNL     1       2.615  27.304  48.788  1.00  0.00    -0.289 N 
HETATM   21  H   UNL     1       1.693  27.400  48.373  1.00  0.00     0.188 HD
HETATM   22  C   UNL     1       3.544  26.336  48.550  1.00  0.00     0.112 A 
HETATM   23  C   UNL     1       4.621  26.640  49.346  1.00  0.00     0.058 A 
ENDBRANCH  15  18
ENDBRANCH   1  14
BRANCH   1  24
HETATM   24  C   UNL     1       4.796  29.226  54.639  1.00  0.00    -0.026 A 
HETATM   25  C   UNL     1       5.114  28.941  55.979  1.00  0.00     0.010 A 
HETATM   26  C   UNL     1       4.467  29.592  57.033  1.00  0.00     0.001 A 
HETATM   27  C   UNL     1       3.503  30.560  56.769  1.00  0.00     0.000 A 
HETATM   28  C   UNL     1       3.194  30.884  55.452  1.00  0.00     0.001 A 
HETATM   29  C   UNL     1       3.842  30.232  54.398  1.00  0.00     0.010 A 
ENDBRANCH   1  24
TORSDOF 5
ENDMDL
MODEL 10
REMARK VINA RESULT:      -8.2      2.386      6.502
REMARK  5 active torsions:
REMARK  status: ('A' for Active; 'I' for Inactive)
REMARK    1  A    between atoms: C_3  and  N_4 
REMARK       I    between atoms: N_4  and  C_5 
REMARK    2  A    between atoms: C_5  and  C_6 
REMARK    3  A    between atoms: C_6  and  N_7 
REMARK    4  A    between atoms: C_6  and  C_16 
REMARK       I    between atoms: N_7  and  C_8 
REMARK    5  A    between atoms: C_8  and  C_9 
ROOT
HETATM    1  C   UNL     1       7.289  26.980  54.551  1.00  0.00     0.210 C 
ENDROOT
BRANCH   1   2
HETATM    2  C   UNL     1       7.750  27.575  55.917  1.00  0.00     0.249 C 
HETATM    3  N   UNL     1       7.959  28.944  55.939  1.00  0.00    -0.324 N 
HETATM    4  H   UNL     1       7.531  29.456  55.169  1.00  0.00     0.169 HD
HETATM    5  O   UNL     1       7.943  26.822  56.875  1.00  0.00    -0.270 OA
BRANCH   3   6
HETATM    6  C   UNL     1       8.257  29.697  57.101  1.00  0.00     0.046 A 
HETATM    7  C   UNL     1       9.579  29.963  57.517  1.00  0.00    -0.035 A 
HETATM    8  C   UNL     1      10.801  29.572  56.732  1.00  0.00     0.050 C 
HETATM    9  C   UNL     1       9.793  30.683  58.707  1.00  0.00     0.009 A 
HETATM   10  C   UNL     1       8.725  31.187  59.443  1.00  0.00     0.001 A 
HETATM   11  C   UNL     1       7.426  30.982  58.999  1.00  0.00     0.009 A 
HETATM   12  C   UNL     1       7.174  30.240  57.833  1.00  0.00    -0.035 A 
HETATM   13  C   UNL     1       5.740  30.030  57.425  1.00  0.00     0.050 C 
ENDBRANCH   3   6
ENDBRANCH   1   2
BRANCH   1  14
HETATM   14  N   UNL     1       7.187  25.521  54.522  1.00  0.00    -0.338 N 
HETATM   15  C   UNL     1       7.733  24.693  53.575  1.00  0.00     0.273 C 
HETATM   16  O   UNL     1       8.146  25.088  52.490  1.00  0.00    -0.266 OA
HETATM   17  H   UNL     1       6.956  25.049  55.393  1.00  0.00     0.164 HD
BRANCH  15  18
HETATM   18  C   UNL     1       7.763  23.281  53.981  1.00  0.00     0.145 A 
HETATM   19  N   UNL     1       7.567  22.905  55.261  1.00  0.00    -0.170 NA
HETATM   20  N   UNL     1       7.673  21.564  55.227  1.00  0.00    -0.289 N 
HETATM   21  H   UNL     1       7.556  21.048  56.093  1.00  0.00     0.188 HD
HETATM   22  C   UNL     1       7.936  21.069  53.986  1.00  0.00     0.112 A 
HETATM   23  C   UNL     1       8.002  22.157  53.150  1.00  0.00     0.058 A 
ENDBRANCH  15  18
ENDBRANCH   1  14
BRANCH   1  24
HETATM   24  C   UNL     1       6.121  27.715  53.890  1.00  0.00    -0.026 A 
HETATM   25  C   UNL     1       6.245  28.226  52.585  1.00  0.00     0.010 A 
HETATM   26  C   UNL     1       5.168  28.842  51.942  1.00  0.00     0.001 A 
HETATM   27  C   UNL     1       3.936  28.940  52.582  1.00  0.00     0.000 A 
HETATM   28  C   UNL     1       3.779  28.413  53.859  1.00  0.00     0.001 A 
HETATM   29  C   UNL     1       4.857  27.797  54.502  1.00  0.00     0.010 A 
ENDBRANCH   1  24
TORSDOF 5
ENDMDL
