MODEL 1
REMARK VINA RESULT:      -8.9      0.000      0.000
REMARK  7 active torsions:
REMARK  status: ('A' for Active; 'I' for Inactive)
REMARK    1  A    between atoms: S_2  and  C_3 
REMARK    2  A    between atoms: C_6  and  C_7 
REMARK    3  A    between atoms: N_8  and  C_9 
REMARK    4  A    between atoms: C_9  and  C_10 
REMARK    5  A    between atoms: C_10  and  C_11 
REMARK    6  A    between atoms: C_24  and  C_25 
REMARK    7  A    between atoms: C_26  and  O_27 
ROOT
HETATM    1  C   UNL     1       5.454  27.732  56.685  1.00  0.00     0.159 A 
HETATM    2  N   UNL     1       6.190  26.490  57.014  1.00  0.00    -0.333 N 
HETATM    3  C   UNL     1       7.428  26.701  57.642  1.00  0.00     0.275 A 
HETATM    4  O   UNL     1       8.248  25.862  57.973  1.00  0.00    -0.266 OA
HETATM    5  C   UNL     1       7.475  28.133  57.846  1.00  0.00     0.155 A 
HETATM    6  C   UNL     1       6.328  28.746  57.327  1.00  0.00     0.034 A 
HETATM    7  N   UNL     1       8.297  28.981  58.454  1.00  0.00    -0.168 NA
HETATM    8  N   UNL     1       7.653  30.165  58.303  1.00  0.00    -0.276 N 
HETATM    9  H   UNL     1       8.087  31.003  58.678  1.00  0.00     0.189 HD
HETATM   10  C   UNL     1       6.407  30.065  57.703  1.00  0.00     0.074 A 
ENDROOT
BRANCH   1  11
HETATM   11  C   UNL     1       5.441  28.037  55.200  1.00  0.00    -0.031 A 
HETATM   12  C   UNL     1       4.217  28.212  54.538  1.00  0.00     0.011 A 
HETATM   13  C   UNL     1       4.177  28.541  53.177  1.00  0.00     0.019 A 
HETATM   14  C   UNL     1       5.359  28.707  52.451  1.00  0.00    -0.000 A 
HETATM   15  C   UNL     1       6.581  28.489  53.086  1.00  0.00     0.019 A 
HETATM   16  C   UNL     1       6.622  28.157  54.443  1.00  0.00     0.011 A 
BRANCH  14  17
HETATM   17  S   UNL     1       5.272  29.165  50.730  1.00  0.00    -0.134 SA
HETATM   18  C   UNL     1       4.355  27.741  50.077  1.00  0.00     0.095 C 
ENDBRANCH  14  17
ENDBRANCH   1  11
BRANCH   2  19
HETATM   19  C   UNL     1       5.646  25.171  56.731  1.00  0.00     0.132 C 
BRANCH  19  20
HETATM   20  C   UNL     1       6.631  24.293  55.948  1.00  0.00     0.058 C 
BRANCH  20  21
HETATM   21  C   UNL     1       6.631  24.575  54.466  1.00  0.00    -0.057 A 
HETATM   22  C   UNL     1       5.430  24.717  53.760  1.00  0.00     0.007 A 
HETATM   23  C   UNL     1       5.441  25.000  52.393  1.00  0.00     0.001 A 
HETATM   24  C   UNL     1       6.652  25.148  51.719  1.00  0.00     0.000 A 
HETATM   25  C   UNL     1       7.853  25.014  52.412  1.00  0.00     0.001 A 
HETATM   26  C   UNL     1       7.844  24.728  53.778  1.00  0.00     0.007 A 
ENDBRANCH  20  21
ENDBRANCH  19  20
ENDBRANCH   2  19
BRANCH  10  27
HETATM   27  C   UNL     1       5.503  31.203  57.584  1.00  0.00     0.026 A 
HETATM   28  C   UNL     1       5.178  32.004  58.691  1.00  0.00     0.078 A 
HETATM   29  C   UNL     1       4.366  33.127  58.560  1.00  0.00     0.037 A 
HETATM   30  C   UNL     1       3.832  33.452  57.316  1.00  0.00     0.003 A 
HETATM   31  C   UNL     1       4.125  32.660  56.207  1.00  0.00     0.001 A 
HETATM   32  C   UNL     1       4.963  31.548  56.339  1.00  0.00     0.016 A 
BRANCH  28  33
HETATM   33  O   UNL     1       5.627  31.725  59.956  1.00  0.00    -0.360 OA
HETATM   34  H   UNL     1       6.187  32.467  60.245  1.00  0.00     0.217 HD
ENDBRANCH  28  33
ENDBRANCH  10  27
TORSDOF 7
ENDMDL
MODEL 2
REMARK VINA RESULT:      -8.8      3.330      7.568
REMARK  7 active torsions:
REMARK  status: ('A' for Active; 'I' for Inactive)
REMARK    1  A    between atoms: S_2  and  C_3 
REMARK    2  A    between atoms: C_6  and  C_7 
REMARK    3  A    between atoms: N_8  and  C_9 
REMARK    4  A    between atoms: C_9  and  C_10 
REMARK    5  A    between atoms: C_10  and  C_11 
REMARK    6  A    between atoms: C_24  and  C_25 
REMARK    7  A    between atoms: C_26  and  O_27 
ROOT
HETATM    1  C   UNL     1       5.606  26.519  54.510  1.00  0.00     0.159 A 
HETATM    2  N   UNL     1       4.953  27.338  53.462  1.00  0.00    -0.333 N 
HETATM    3  C   UNL     1       5.445  27.116  52.166  1.00  0.00     0.275 A 
HETATM    4  O   UNL     1       5.121  27.686  51.138  1.00  0.00    -0.266 OA
HETATM    5  C   UNL     1       6.384  26.026  52.332  1.00  0.00     0.155 A 
HETATM    6  C   UNL     1       6.468  25.645  53.677  1.00  0.00     0.034 A 
HETATM    7  N   UNL     1       7.118  25.271  51.522  1.00  0.00    -0.168 NA
HETATM    8  N   UNL     1       7.691  24.397  52.385  1.00  0.00    -0.276 N 
HETATM    9  H   UNL     1       8.329  23.699  52.014  1.00  0.00     0.189 HD
HETATM   10  C   UNL     1       7.260  24.523  53.697  1.00  0.00     0.074 A 
ENDROOT
BRANCH   1  11
HETATM   11  C   UNL     1       6.527  27.326  55.403  1.00  0.00    -0.031 A 
HETATM   12  C   UNL     1       7.539  28.110  54.829  1.00  0.00     0.011 A 
HETATM   13  C   UNL     1       8.373  28.903  55.627  1.00  0.00     0.019 A 
HETATM   14  C   UNL     1       8.211  28.933  57.014  1.00  0.00    -0.000 A 
HETATM   15  C   UNL     1       7.240  28.122  57.600  1.00  0.00     0.019 A 
HETATM   16  C   UNL     1       6.409  27.328  56.806  1.00  0.00     0.011 A 
BRANCH  14  17
HETATM   17  S   UNL     1       9.265  29.984  57.996  1.00  0.00    -0.134 SA
HETATM   18  C   UNL     1      10.800  29.867  57.035  1.00  0.00     0.095 C 
ENDBRANCH  14  17
ENDBRANCH   1  11
BRANCH   2  19
HETATM   19  C   UNL     1       3.875  28.265  53.765  1.00  0.00     0.132 C 
BRANCH  19  20
HETATM   20  C   UNL     1       4.372  29.711  53.894  1.00  0.00     0.058 C 
BRANCH  20  21
HETATM   21  C   UNL     1       4.453  30.188  55.323  1.00  0.00    -0.057 A 
HETATM   22  C   UNL     1       3.597  29.671  56.304  1.00  0.00     0.007 A 
HETATM   23  C   UNL     1       3.695  30.102  57.628  1.00  0.00     0.001 A 
HETATM   24  C   UNL     1       4.652  31.050  57.986  1.00  0.00     0.000 A 
HETATM   25  C   UNL     1       5.512  31.568  57.020  1.00  0.00     0.001 A 
HETATM   26  C   UNL     1       5.413  31.140  55.695  1.00  0.00     0.007 A 
ENDBRANCH  20  21
ENDBRANCH  19  20
ENDBRANCH   2  19
BRANCH  10  27
HETATM   27  C   UNL     1       7.650  23.583  54.741  1.00  0.00     0.026 A 
HETATM   28  C   UNL     1       7.786  22.209  54.483  1.00  0.00     0.078 A 
HETATM   29  C   UNL     1       8.221  21.326  55.468  1.00  0.00     0.037 A 
HETATM   30  C   UNL     1       8.497  21.799  56.748  1.00  0.00     0.003 A 
HETATM   31  C   UNL     1       8.350  23.156  57.032  1.00  0.00     0.001 A 
HETATM   32  C   UNL     1       7.939  24.043  56.032  1.00  0.00     0.016 A 
BRANCH  28  33
HETATM   33  O   UNL     1       7.491  21.660  53.263  1.00  0.00    -0.360 OA
HETATM   34  H   UNL     1       6.879  22.262  52.803  1.00  0.00     0.217 HD
ENDBRANCH  28  33
ENDBRANCH  10  27
TORSDOF 7
ENDMDL
MODEL 3
REMARK VINA RESULT:      -8.4      3.288      6.802
REMARK  7 active torsions:
REMARK  status: ('A' for Active; 'I' for Inactive)
REMARK    1  A    between atoms: S_2  and  C_3 
REMARK    2  A    between atoms: C_6  and  C_7 
REMARK    3  A    between atoms: N_8  and  C_9 
REMARK    4  A    between atoms: C_9  and  C_10 
REMARK    5  A    between atoms: C_10  and  C_11 
REMARK    6  A    between atoms: C_24  and  C_25 
REMARK    7  A    between atoms: C_26  and  O_27 
ROOT
HETATM    1  C   UNL     1       3.864  27.981  53.331  1.00  0.00     0.159 A 
HETATM    2  N   UNL     1       4.032  28.962  54.428  1.00  0.00    -0.333 N 
HETATM    3  C   UNL     1       4.428  30.240  54.003  1.00  0.00     0.275 A 
HETATM    4  O   UNL     1       4.682  31.211  54.697  1.00  0.00    -0.266 OA
HETATM    5  C   UNL     1       4.416  30.147  52.559  1.00  0.00     0.155 A 
HETATM    6  C   UNL     1       4.062  28.855  52.149  1.00  0.00     0.034 A 
HETATM    7  N   UNL     1       4.591  30.992  51.549  1.00  0.00    -0.168 NA
HETATM    8  N   UNL     1       4.351  30.206  50.471  1.00  0.00    -0.276 N 
HETATM    9  H   UNL     1       4.433  30.616  49.545  1.00  0.00     0.189 HD
HETATM   10  C   UNL     1       3.938  28.920  50.782  1.00  0.00     0.074 A 
ENDROOT
BRANCH   1  11
HETATM   11  C   UNL     1       4.964  26.938  53.297  1.00  0.00    -0.031 A 
HETATM   12  C   UNL     1       4.628  25.577  53.227  1.00  0.00     0.011 A 
HETATM   13  C   UNL     1       5.623  24.595  53.146  1.00  0.00     0.019 A 
HETATM   14  C   UNL     1       6.973  24.951  53.129  1.00  0.00    -0.000 A 
HETATM   15  C   UNL     1       7.321  26.296  53.247  1.00  0.00     0.019 A 
HETATM   16  C   UNL     1       6.330  27.278  53.331  1.00  0.00     0.011 A 
BRANCH  14  17
HETATM   17  S   UNL     1       8.213  23.678  52.986  1.00  0.00    -0.134 SA
HETATM   18  C   UNL     1       7.642  22.543  54.283  1.00  0.00     0.095 C 
ENDBRANCH  14  17
ENDBRANCH   1  11
BRANCH   2  19
HETATM   19  C   UNL     1       3.774  28.620  55.817  1.00  0.00     0.132 C 
BRANCH  19  20
HETATM   20  C   UNL     1       5.024  28.770  56.694  1.00  0.00     0.058 C 
BRANCH  20  21
HETATM   21  C   UNL     1       5.820  27.495  56.819  1.00  0.00    -0.057 A 
HETATM   22  C   UNL     1       5.184  26.247  56.817  1.00  0.00     0.007 A 
HETATM   23  C   UNL     1       5.931  25.071  56.912  1.00  0.00     0.001 A 
HETATM   24  C   UNL     1       7.321  25.131  57.005  1.00  0.00     0.000 A 
HETATM   25  C   UNL     1       7.964  26.367  57.003  1.00  0.00     0.001 A 
HETATM   26  C   UNL     1       7.218  27.543  56.911  1.00  0.00     0.007 A 
ENDBRANCH  20  21
ENDBRANCH  19  20
ENDBRANCH   2  19
BRANCH  10  27
HETATM   27  C   UNL     1       3.494  27.973  49.765  1.00  0.00     0.026 A 
HETATM   28  C   UNL     1       4.275  26.864  49.400  1.00  0.00     0.078 A 
HETATM   29  C   UNL     1       3.818  25.929  48.475  1.00  0.00     0.037 A 
HETATM   30  C   UNL     1       2.577  26.106  47.868  1.00  0.00     0.003 A 
HETATM   31  C   UNL     1       1.794  27.209  48.201  1.00  0.00     0.001 A 
HETATM   32  C   UNL     1       2.246  28.132  49.151  1.00  0.00     0.016 A 
BRANCH  28  33
HETATM   33  O   UNL     1       5.524  26.645  49.918  1.00  0.00    -0.360 OA
HETATM   34  H   UNL     1       5.733  27.381  50.520  1.00  0.00     0.217 HD
ENDBRANCH  28  33
ENDBRANCH  10  27
TORSDOF 7
ENDMDL
MODEL 4
REMARK VINA RESULT:      -8.4      0.862      1.599
REMARK  7 active torsions:
REMARK  status: ('A' for Active; 'I' for Inactive)
REMARK    1  A    between atoms: S_2  and  C_3 
REMARK    2  A    between atoms: C_6  and  C_7 
REMARK    3  A    between atoms: N_8  and  C_9 
REMARK    4  A    between atoms: C_9  and  C_10 
REMARK    5  A    between atoms: C_10  and  C_11 
REMARK    6  A    between atoms: C_24  and  C_25 
REMARK    7  A    between atoms: C_26  and  O_27 
ROOT
HETATM    1  C   UNL     1       5.468  27.796  56.744  1.00  0.00     0.159 A 
HETATM    2  N   UNL     1       6.222  26.555  57.034  1.00  0.00    -0.333 N 
HETATM    3  C   UNL     1       7.486  26.767  57.607  1.00  0.00     0.275 A 
HETATM    4  O   UNL     1       8.323  25.929  57.897  1.00  0.00    -0.266 OA
HETATM    5  C   UNL     1       7.538  28.198  57.815  1.00  0.00     0.155 A 
HETATM    6  C   UNL     1       6.367  28.810  57.350  1.00  0.00     0.034 A 
HETATM    7  N   UNL     1       8.384  29.046  58.389  1.00  0.00    -0.168 NA
HETATM    8  N   UNL     1       7.731  30.228  58.273  1.00  0.00    -0.276 N 
HETATM    9  H   UNL     1       8.179  31.066  58.631  1.00  0.00     0.189 HD
HETATM   10  C   UNL     1       6.459  30.127  57.729  1.00  0.00     0.074 A 
ENDROOT
BRANCH   1  11
HETATM   11  C   UNL     1       5.388  28.107  55.263  1.00  0.00    -0.031 A 
HETATM   12  C   UNL     1       6.558  28.097  54.487  1.00  0.00     0.011 A 
HETATM   13  C   UNL     1       6.506  28.333  53.108  1.00  0.00     0.019 A 
HETATM   14  C   UNL     1       5.286  28.579  52.474  1.00  0.00    -0.000 A 
HETATM   15  C   UNL     1       4.123  28.639  53.241  1.00  0.00     0.019 A 
HETATM   16  C   UNL     1       4.173  28.407  54.618  1.00  0.00     0.011 A 
BRANCH  14  17
HETATM   17  S   UNL     1       5.252  28.836  50.710  1.00  0.00    -0.134 SA
HETATM   18  C   UNL     1       5.002  27.127  50.153  1.00  0.00     0.095 C 
ENDBRANCH  14  17
ENDBRANCH   1  11
BRANCH   2  19
HETATM   19  C   UNL     1       5.669  25.236  56.770  1.00  0.00     0.132 C 
BRANCH  19  20
HETATM   20  C   UNL     1       5.574  24.937  55.269  1.00  0.00     0.058 C 
BRANCH  20  21
HETATM   21  C   UNL     1       6.697  24.065  54.763  1.00  0.00    -0.057 A 
HETATM   22  C   UNL     1       7.535  23.382  55.653  1.00  0.00     0.007 A 
HETATM   23  C   UNL     1       8.557  22.561  55.175  1.00  0.00     0.001 A 
HETATM   24  C   UNL     1       8.749  22.409  53.802  1.00  0.00     0.000 A 
HETATM   25  C   UNL     1       7.918  23.079  52.907  1.00  0.00     0.001 A 
HETATM   26  C   UNL     1       6.898  23.903  53.384  1.00  0.00     0.007 A 
ENDBRANCH  20  21
ENDBRANCH  19  20
ENDBRANCH   2  19
BRANCH  10  27
HETATM   27  C   UNL     1       5.548  31.263  57.656  1.00  0.00     0.026 A 
HETATM   28  C   UNL     1       5.263  32.052  58.782  1.00  0.00     0.078 A 
HETATM   29  C   UNL     1       4.442  33.174  58.693  1.00  0.00     0.037 A 
HETATM   30  C   UNL     1       3.860  33.509  57.473  1.00  0.00     0.003 A 
HETATM   31  C   UNL     1       4.113  32.729  56.347  1.00  0.00     0.001 A 
HETATM   32  C   UNL     1       4.960  31.618  56.436  1.00  0.00     0.016 A 
BRANCH  28  33
HETATM   33  O   UNL     1       5.761  31.763  60.026  1.00  0.00    -0.360 OA
HETATM   34  H   UNL     1       6.228  32.552  60.353  1.00  0.00     0.217 HD
ENDBRANCH  28  33
ENDBRANCH  10  27
TORSDOF 7
ENDMDL
MODEL 5
REMARK VINA RESULT:      -8.1      3.123      5.590
REMARK  7 active torsions:
REMARK  status: ('A' for Active; 'I' for Inactive)
REMARK    1  A    between atoms: S_2  and  C_3 
REMARK    2  A    between atoms: C_6  and  C_7 
REMARK    3  A    between atoms: N_8  and  C_9 
REMARK    4  A    between atoms: C_9  and  C_10 
REMARK    5  A    between atoms: C_10  and  C_11 
REMARK    6  A    between atoms: C_24  and  C_25 
REMARK    7  A    between atoms: C_26  and  O_27 
ROOT
HETATM    1  C   UNL     1       6.604  27.411  53.645  1.00  0.00     0.159 A 
HETATM    2  N   UNL     1       5.368  27.299  52.835  1.00  0.00    -0.333 N 
HETATM    3  C   UNL     1       4.254  27.950  53.389  1.00  0.00     0.275 A 
HETATM    4  O   UNL     1       3.114  27.974  52.957  1.00  0.00    -0.266 OA
HETATM    5  C   UNL     1       4.787  28.620  54.556  1.00  0.00     0.155 A 
HETATM    6  C   UNL     1       6.152  28.346  54.705  1.00  0.00     0.034 A 
HETATM    7  N   UNL     1       4.317  29.469  55.463  1.00  0.00    -0.168 NA
HETATM    8  N   UNL     1       5.417  29.728  56.212  1.00  0.00    -0.276 N 
HETATM    9  H   UNL     1       5.326  30.357  57.004  1.00  0.00     0.189 HD
HETATM   10  C   UNL     1       6.581  29.141  55.740  1.00  0.00     0.074 A 
ENDROOT
BRANCH   1  11
HETATM   11  C   UNL     1       6.980  26.113  54.331  1.00  0.00    -0.031 A 
HETATM   12  C   UNL     1       7.720  25.147  53.633  1.00  0.00     0.011 A 
HETATM   13  C   UNL     1       8.122  23.960  54.258  1.00  0.00     0.019 A 
HETATM   14  C   UNL     1       7.799  23.716  55.595  1.00  0.00    -0.000 A 
HETATM   15  C   UNL     1       7.024  24.647  56.285  1.00  0.00     0.019 A 
HETATM   16  C   UNL     1       6.618  25.830  55.663  1.00  0.00     0.011 A 
BRANCH  14  17
HETATM   17  S   UNL     1       8.361  22.213  56.371  1.00  0.00    -0.134 SA
HETATM   18  C   UNL     1       8.054  21.035  55.023  1.00  0.00     0.095 C 
ENDBRANCH  14  17
ENDBRANCH   1  11
BRANCH   2  19
HETATM   19  C   UNL     1       5.339  26.597  51.562  1.00  0.00     0.132 C 
BRANCH  19  20
HETATM   20  C   UNL     1       5.240  27.560  50.372  1.00  0.00     0.058 C 
BRANCH  20  21
HETATM   21  C   UNL     1       4.037  27.304  49.498  1.00  0.00    -0.057 A 
HETATM   22  C   UNL     1       2.989  28.230  49.427  1.00  0.00     0.007 A 
HETATM   23  C   UNL     1       1.890  27.995  48.598  1.00  0.00     0.001 A 
HETATM   24  C   UNL     1       1.831  26.834  47.828  1.00  0.00     0.000 A 
HETATM   25  C   UNL     1       2.870  25.908  47.887  1.00  0.00     0.001 A 
HETATM   26  C   UNL     1       3.967  26.141  48.717  1.00  0.00     0.007 A 
ENDBRANCH  20  21
ENDBRANCH  19  20
ENDBRANCH   2  19
BRANCH  10  27
HETATM   27  C   UNL     1       7.889  29.418  56.324  1.00  0.00     0.026 A 
HETATM   28  C   UNL     1       8.032  29.770  57.676  1.00  0.00     0.078 A 
HETATM   29  C   UNL     1       9.288  29.971  58.243  1.00  0.00     0.037 A 
HETATM   30  C   UNL     1      10.430  29.855  57.454  1.00  0.00     0.003 A 
HETATM   31  C   UNL     1      10.309  29.524  56.105  1.00  0.00     0.001 A 
HETATM   32  C   UNL     1       9.047  29.298  55.546  1.00  0.00     0.016 A 
BRANCH  28  33
HETATM   33  O   UNL     1       6.957  29.948  58.506  1.00  0.00    -0.360 OA
HETATM   34  H   UNL     1       7.182  30.650  59.142  1.00  0.00     0.217 HD
ENDBRANCH  28  33
ENDBRANCH  10  27
TORSDOF 7
ENDMDL
MODEL 6
REMARK VINA RESULT:      -7.9      7.779     10.986
REMARK  7 active torsions:
REMARK  status: ('A' for Active; 'I' for Inactive)
REMARK    1  A    between atoms: S_2  and  C_3 
REMARK    2  A    between atoms: C_6  and  C_7 
REMARK    3  A    between atoms: N_8  and  C_9 
REMARK    4  A    between atoms: C_9  and  C_10 
REMARK    5  A    between atoms: C_10  and  C_11 
REMARK    6  A    between atoms: C_24  and  C_25 
REMARK    7  A    between atoms: C_26  and  O_27 
ROOT
HETATM    1  C   UNL     1       5.142  34.813  61.737  1.00  0.00     0.159 A 
HETATM    2  N   UNL     1       4.306  33.867  60.963  1.00  0.00    -0.333 N 
HETATM    3  C   UNL     1       3.169  34.448  60.377  1.00  0.00     0.275 A 
HETATM    4  O   UNL     1       2.295  33.891  59.734  1.00  0.00    -0.266 OA
HETATM    5  C   UNL     1       3.306  35.858  60.674  1.00  0.00     0.155 A 
HETATM    6  C   UNL     1       4.459  36.094  61.434  1.00  0.00     0.034 A 
HETATM    7  N   UNL     1       2.652  36.967  60.348  1.00  0.00    -0.168 NA
HETATM    8  N   UNL     1       3.408  37.929  60.930  1.00  0.00    -0.276 N 
HETATM    9  H   UNL     1       3.113  38.897  60.842  1.00  0.00     0.189 HD
HETATM   10  C   UNL     1       4.569  37.461  61.528  1.00  0.00     0.074 A 
ENDROOT
BRANCH   1  11
HETATM   11  C   UNL     1       5.041  34.602  63.235  1.00  0.00    -0.031 A 
HETATM   12  C   UNL     1       6.203  34.355  63.982  1.00  0.00     0.011 A 
HETATM   13  C   UNL     1       6.144  34.205  65.373  1.00  0.00     0.019 A 
HETATM   14  C   UNL     1       4.925  34.302  66.047  1.00  0.00    -0.000 A 
HETATM   15  C   UNL     1       3.758  34.499  65.312  1.00  0.00     0.019 A 
HETATM   16  C   UNL     1       3.813  34.646  63.923  1.00  0.00     0.011 A 
BRANCH  14  17
HETATM   17  S   UNL     1       4.893  34.144  67.823  1.00  0.00    -0.134 SA
HETATM   18  C   UNL     1       6.639  34.472  68.195  1.00  0.00     0.095 C 
ENDBRANCH  14  17
ENDBRANCH   1  11
BRANCH   2  19
HETATM   19  C   UNL     1       4.665  32.467  60.807  1.00  0.00     0.132 C 
BRANCH  19  20
HETATM   20  C   UNL     1       5.809  32.270  59.803  1.00  0.00     0.058 C 
BRANCH  20  21
HETATM   21  C   UNL     1       7.149  32.058  60.463  1.00  0.00    -0.057 A 
HETATM   22  C   UNL     1       8.339  32.228  59.745  1.00  0.00     0.007 A 
HETATM   23  C   UNL     1       9.575  32.051  60.370  1.00  0.00     0.001 A 
HETATM   24  C   UNL     1       9.634  31.707  61.719  1.00  0.00     0.000 A 
HETATM   25  C   UNL     1       8.456  31.540  62.445  1.00  0.00     0.001 A 
HETATM   26  C   UNL     1       7.220  31.714  61.821  1.00  0.00     0.007 A 
ENDBRANCH  20  21
ENDBRANCH  19  20
ENDBRANCH   2  19
BRANCH  10  27
HETATM   27  C   UNL     1       5.580  38.355  62.079  1.00  0.00     0.026 A 
HETATM   28  C   UNL     1       6.386  39.154  61.251  1.00  0.00     0.078 A 
HETATM   29  C   UNL     1       7.306  40.053  61.784  1.00  0.00     0.037 A 
HETATM   30  C   UNL     1       7.462  40.145  63.165  1.00  0.00     0.003 A 
HETATM   31  C   UNL     1       6.686  39.348  64.005  1.00  0.00     0.001 A 
HETATM   32  C   UNL     1       5.744  38.466  63.465  1.00  0.00     0.016 A 
BRANCH  28  33
HETATM   33  O   UNL     1       6.325  39.089  59.884  1.00  0.00    -0.360 OA
HETATM   34  H   UNL     1       6.898  39.790  59.524  1.00  0.00     0.217 HD
ENDBRANCH  28  33
ENDBRANCH  10  27
TORSDOF 7
ENDMDL
MODEL 7
REMARK VINA RESULT:      -7.8      2.768      4.620
REMARK  7 active torsions:
REMARK  status: ('A' for Active; 'I' for Inactive)
REMARK    1  A    between atoms: S_2  and  C_3 
REMARK    2  A    between atoms: C_6  and  C_7 
REMARK    3  A    between atoms: N_8  and  C_9 
REMARK    4  A    between atoms: C_9  and  C_10 
REMARK    5  A    between atoms: C_10  and  C_11 
REMARK    6  A    between atoms: C_24  and  C_25 
REMARK    7  A    between atoms: C_26  and  O_27 
ROOT
HETATM    1  C   UNL     1       6.131  29.533  57.734  1.00  0.00     0.159 A 
HETATM    2  N   UNL     1       6.452  28.670  56.574  1.00  0.00    -0.333 N 
HETATM    3  C   UNL     1       7.781  28.767  56.133  1.00  0.00     0.275 A 
HETATM    4  O   UNL     1       8.292  28.207  55.177  1.00  0.00    -0.266 OA
HETATM    5  C   UNL     1       8.407  29.643  57.100  1.00  0.00     0.155 A 
HETATM    6  C   UNL     1       7.476  30.073  58.054  1.00  0.00     0.034 A 
HETATM    7  N   UNL     1       9.641  30.074  57.336  1.00  0.00    -0.168 NA
HETATM    8  N   UNL     1       9.480  30.806  58.465  1.00  0.00    -0.276 N 
HETATM    9  H   UNL     1      10.292  31.270  58.861  1.00  0.00     0.189 HD
HETATM   10  C   UNL     1       8.199  30.766  58.995  1.00  0.00     0.074 A 
ENDROOT
BRANCH   1  11
HETATM   11  C   UNL     1       5.257  30.716  57.367  1.00  0.00    -0.031 A 
HETATM   12  C   UNL     1       4.313  31.194  58.288  1.00  0.00     0.011 A 
HETATM   13  C   UNL     1       3.526  32.315  57.993  1.00  0.00     0.019 A 
HETATM   14  C   UNL     1       3.669  32.983  56.775  1.00  0.00    -0.000 A 
HETATM   15  C   UNL     1       4.569  32.489  55.832  1.00  0.00     0.019 A 
HETATM   16  C   UNL     1       5.353  31.369  56.123  1.00  0.00     0.011 A 
BRANCH  14  17
HETATM   17  S   UNL     1       2.679  34.429  56.449  1.00  0.00    -0.134 SA
HETATM   18  C   UNL     1       2.785  35.248  58.066  1.00  0.00     0.095 C 
ENDBRANCH  14  17
ENDBRANCH   1  11
BRANCH   2  19
HETATM   19  C   UNL     1       5.469  27.779  55.978  1.00  0.00     0.132 C 
BRANCH  19  20
HETATM   20  C   UNL     1       5.316  26.473  56.768  1.00  0.00     0.058 C 
BRANCH  20  21
HETATM   21  C   UNL     1       6.390  25.459  56.456  1.00  0.00    -0.057 A 
HETATM   22  C   UNL     1       7.446  25.232  57.347  1.00  0.00     0.007 A 
HETATM   23  C   UNL     1       8.422  24.276  57.059  1.00  0.00     0.001 A 
HETATM   24  C   UNL     1       8.349  23.534  55.881  1.00  0.00     0.000 A 
HETATM   25  C   UNL     1       7.300  23.748  54.990  1.00  0.00     0.001 A 
HETATM   26  C   UNL     1       6.326  24.705  55.275  1.00  0.00     0.007 A 
ENDBRANCH  20  21
ENDBRANCH  19  20
ENDBRANCH   2  19
BRANCH  10  27
HETATM   27  C   UNL     1       7.865  31.369  60.279  1.00  0.00     0.026 A 
HETATM   28  C   UNL     1       8.432  30.909  61.479  1.00  0.00     0.078 A 
HETATM   29  C   UNL     1       8.159  31.530  62.695  1.00  0.00     0.037 A 
HETATM   30  C   UNL     1       7.280  32.610  62.738  1.00  0.00     0.003 A 
HETATM   31  C   UNL     1       6.691  33.071  61.562  1.00  0.00     0.001 A 
HETATM   32  C   UNL     1       6.989  32.460  60.339  1.00  0.00     0.016 A 
BRANCH  28  33
HETATM   33  O   UNL     1       9.271  29.826  61.526  1.00  0.00    -0.360 OA
HETATM   34  H   UNL     1       9.787  29.811  60.701  1.00  0.00     0.217 HD
ENDBRANCH  28  33
ENDBRANCH  10  27
TORSDOF 7
ENDMDL
MODEL 8
REMARK VINA RESULT:      -7.7      2.904      4.153
REMARK  7 active torsions:
REMARK  status: ('A' for Active; 'I' for Inactive)
REMARK    1  A    between atoms: S_2  and  C_3 
REMARK    2  A    between atoms: C_6  and  C_7 
REMARK    3  A    between atoms: N_8  and  C_9 
REMARK    4  A    between atoms: C_9  and  C_10 
REMARK    5  A    between atoms: C_10  and  C_11 
REMARK    6  A    between atoms: C_24  and  C_25 
REMARK    7  A    between atoms: C_26  and  O_27 
ROOT
HETATM    1  C   UNL     1       7.448  29.611  58.204  1.00  0.00     0.159 A 
HETATM    2  N   UNL     1       8.516  29.127  57.299  1.00  0.00    -0.333 N 
HETATM    3  C   UNL     1       9.648  29.956  57.245  1.00  0.00     0.275 A 
HETATM    4  O   UNL     1      10.640  29.818  56.550  1.00  0.00    -0.266 OA
HETATM    5  C   UNL     1       9.379  30.977  58.236  1.00  0.00     0.155 A 
HETATM    6  C   UNL     1       8.124  30.777  58.825  1.00  0.00     0.034 A 
HETATM    7  N   UNL     1      10.051  31.996  58.758  1.00  0.00    -0.168 NA
HETATM    8  N   UNL     1       9.189  32.460  59.695  1.00  0.00    -0.276 N 
HETATM    9  H   UNL     1       9.462  33.269  60.246  1.00  0.00     0.189 HD
HETATM   10  C   UNL     1       8.039  31.699  59.839  1.00  0.00     0.074 A 
ENDROOT
BRANCH   1  11
HETATM   11  C   UNL     1       6.240  30.146  57.460  1.00  0.00    -0.031 A 
HETATM   12  C   UNL     1       5.137  29.308  57.234  1.00  0.00     0.011 A 
HETATM   13  C   UNL     1       3.989  29.790  56.593  1.00  0.00     0.019 A 
HETATM   14  C   UNL     1       3.917  31.118  56.168  1.00  0.00    -0.000 A 
HETATM   15  C   UNL     1       5.024  31.947  56.344  1.00  0.00     0.019 A 
HETATM   16  C   UNL     1       6.172  31.468  56.980  1.00  0.00     0.011 A 
BRANCH  14  17
HETATM   17  S   UNL     1       2.425  31.708  55.390  1.00  0.00    -0.134 SA
HETATM   18  C   UNL     1       3.126  32.988  54.309  1.00  0.00     0.095 C 
ENDBRANCH  14  17
ENDBRANCH   1  11
BRANCH   2  19
HETATM   19  C   UNL     1       8.397  27.880  56.561  1.00  0.00     0.132 C 
BRANCH  19  20
HETATM   20  C   UNL     1       8.068  26.693  57.477  1.00  0.00     0.058 C 
BRANCH  20  21
HETATM   21  C   UNL     1       7.886  25.396  56.729  1.00  0.00    -0.057 A 
HETATM   22  C   UNL     1       7.065  25.327  55.597  1.00  0.00     0.007 A 
HETATM   23  C   UNL     1       6.921  24.127  54.899  1.00  0.00     0.001 A 
HETATM   24  C   UNL     1       7.599  22.985  55.322  1.00  0.00     0.000 A 
HETATM   25  C   UNL     1       8.423  23.043  56.445  1.00  0.00     0.001 A 
HETATM   26  C   UNL     1       8.565  24.241  57.145  1.00  0.00     0.007 A 
ENDBRANCH  20  21
ENDBRANCH  19  20
ENDBRANCH   2  19
BRANCH  10  27
HETATM   27  C   UNL     1       7.061  31.952  60.892  1.00  0.00     0.026 A 
HETATM   28  C   UNL     1       7.373  31.763  62.248  1.00  0.00     0.078 A 
HETATM   29  C   UNL     1       6.458  32.068  63.252  1.00  0.00     0.037 A 
HETATM   30  C   UNL     1       5.191  32.538  62.913  1.00  0.00     0.003 A 
HETATM   31  C   UNL     1       4.853  32.715  61.573  1.00  0.00     0.001 A 
HETATM   32  C   UNL     1       5.786  32.433  60.569  1.00  0.00     0.016 A 
BRANCH  28  33
HETATM   33  O   UNL     1       8.580  31.262  62.660  1.00  0.00    -0.360 OA
HETATM   34  H   UNL     1       8.758  30.451  62.151  1.00  0.00     0.217 HD
ENDBRANCH  28  33
ENDBRANCH  10  27
TORSDOF 7
ENDMDL
MODEL 9
REMARK VINA RESULT:      -7.6      8.080     10.911
REMARK  7 active torsions:
REMARK  status: ('A' for Active; 'I' for Inactive)
REMARK    1  A    between atoms: S_2  and  C_3 
REMARK    2  A    between atoms: C_6  and  C_7 
REMARK    3  A    between atoms: N_8  and  C_9 
REMARK    4  A    between atoms: C_9  and  C_10 
REMARK    5  A    between atoms: C_10  and  C_11 
REMARK    6  A    between atoms: C_24  and  C_25 
REMARK    7  A    between atoms: C_26  and  O_27 
ROOT
HETATM    1  C   UNL     1       5.328  35.071  62.715  1.00  0.00     0.159 A 
HETATM    2  N   UNL     1       5.756  34.285  63.895  1.00  0.00    -0.333 N 
HETATM    3  C   UNL     1       4.699  33.818  64.692  1.00  0.00     0.275 A 
HETATM    4  O   UNL     1       4.774  33.194  65.737  1.00  0.00    -0.266 OA
HETATM    5  C   UNL     1       3.513  34.207  63.960  1.00  0.00     0.155 A 
HETATM    6  C   UNL     1       3.855  34.907  62.797  1.00  0.00     0.034 A 
HETATM    7  N   UNL     1       2.206  34.006  64.090  1.00  0.00    -0.168 NA
HETATM    8  N   UNL     1       1.711  34.607  62.981  1.00  0.00    -0.276 N 
HETATM    9  H   UNL     1       0.705  34.608  62.839  1.00  0.00     0.189 HD
HETATM   10  C   UNL     1       2.678  35.093  62.114  1.00  0.00     0.074 A 
ENDROOT
BRANCH   1  11
HETATM   11  C   UNL     1       5.615  36.553  62.855  1.00  0.00    -0.031 A 
HETATM   12  C   UNL     1       6.157  37.261  61.772  1.00  0.00     0.011 A 
HETATM   13  C   UNL     1       6.387  38.640  61.858  1.00  0.00     0.019 A 
HETATM   14  C   UNL     1       6.077  39.340  63.026  1.00  0.00    -0.000 A 
HETATM   15  C   UNL     1       5.583  38.640  64.125  1.00  0.00     0.019 A 
HETATM   16  C   UNL     1       5.355  37.264  64.043  1.00  0.00     0.011 A 
BRANCH  14  17
HETATM   17  S   UNL     1       6.346  41.102  63.087  1.00  0.00    -0.134 SA
HETATM   18  C   UNL     1       7.707  41.165  64.287  1.00  0.00     0.095 C 
ENDBRANCH  14  17
ENDBRANCH   1  11
BRANCH   2  19
HETATM   19  C   UNL     1       7.156  34.005  64.170  1.00  0.00     0.132 C 
BRANCH  19  20
HETATM   20  C   UNL     1       7.536  32.558  63.827  1.00  0.00     0.058 C 
BRANCH  20  21
HETATM   21  C   UNL     1       7.908  32.367  62.378  1.00  0.00    -0.057 A 
HETATM   22  C   UNL     1       9.247  32.226  61.991  1.00  0.00     0.007 A 
HETATM   23  C   UNL     1       9.579  32.028  60.650  1.00  0.00     0.001 A 
HETATM   24  C   UNL     1       8.577  31.963  59.683  1.00  0.00     0.000 A 
HETATM   25  C   UNL     1       7.242  32.097  60.057  1.00  0.00     0.001 A 
HETATM   26  C   UNL     1       6.908  32.298  61.396  1.00  0.00     0.007 A 
ENDBRANCH  20  21
ENDBRANCH  19  20
ENDBRANCH   2  19
BRANCH  10  27
HETATM   27  C   UNL     1       2.348  35.641  60.803  1.00  0.00     0.026 A 
HETATM   28  C   UNL     1       1.294  35.125  60.033  1.00  0.00     0.078 A 
HETATM   29  C   UNL     1       0.943  35.693  58.811  1.00  0.00     0.037 A 
HETATM   30  C   UNL     1       1.667  36.776  58.319  1.00  0.00     0.003 A 
HETATM   31  C   UNL     1       2.730  37.293  59.058  1.00  0.00     0.001 A 
HETATM   32  C   UNL     1       3.062  36.735  60.297  1.00  0.00     0.016 A 
BRANCH  28  33
HETATM   33  O   UNL     1       0.563  34.035  60.427  1.00  0.00    -0.360 OA
HETATM   34  H   UNL     1       0.345  33.517  59.631  1.00  0.00     0.217 HD
ENDBRANCH  28  33
ENDBRANCH  10  27
TORSDOF 7
ENDMDL
MODEL 10
REMARK VINA RESULT:      -7.6      2.901      4.858
REMARK  7 active torsions:
REMARK  status: ('A' for Active; 'I' for Inactive)
REMARK    1  A    between atoms: S_2  and  C_3 
REMARK    2  A    between atoms: C_6  and  C_7 
REMARK    3  A    between atoms: N_8  and  C_9 
REMARK    4  A    between atoms: C_9  and  C_10 
REMARK    5  A    between atoms: C_10  and  C_11 
REMARK    6  A    between atoms: C_24  and  C_25 
REMARK    7  A    between atoms: C_26  and  O_27 
ROOT
HETATM    1  C   UNL     1       5.473  30.802  56.075  1.00  0.00     0.159 A 
HETATM    2  N   UNL     1       4.215  31.064  55.338  1.00  0.00    -0.333 N 
HETATM    3  C   UNL     1       3.130  31.420  56.154  1.00  0.00     0.275 A 
HETATM    4  O   UNL     1       1.980  31.639  55.812  1.00  0.00    -0.266 OA
HETATM    5  C   UNL     1       3.706  31.510  57.479  1.00  0.00     0.155 A 
HETATM    6  C   UNL     1       5.068  31.187  57.450  1.00  0.00     0.034 A 
HETATM    7  N   UNL     1       3.278  31.884  58.680  1.00  0.00    -0.168 NA
HETATM    8  N   UNL     1       4.401  31.782  59.431  1.00  0.00    -0.276 N 
HETATM    9  H   UNL     1       4.344  32.005  60.420  1.00  0.00     0.189 HD
HETATM   10  C   UNL     1       5.540  31.448  58.714  1.00  0.00     0.074 A 
ENDROOT
BRANCH   1  11
HETATM   11  C   UNL     1       5.838  29.332  56.118  1.00  0.00    -0.031 A 
HETATM   12  C   UNL     1       7.040  28.897  55.538  1.00  0.00     0.011 A 
HETATM   13  C   UNL     1       7.425  27.553  55.605  1.00  0.00     0.019 A 
HETATM   14  C   UNL     1       6.620  26.615  56.255  1.00  0.00    -0.000 A 
HETATM   15  C   UNL     1       5.401  27.025  56.794  1.00  0.00     0.019 A 
HETATM   16  C   UNL     1       5.013  28.365  56.725  1.00  0.00     0.011 A 
BRANCH  14  17
HETATM   17  S   UNL     1       7.159  24.918  56.356  1.00  0.00    -0.134 SA
HETATM   18  C   UNL     1       8.562  25.107  57.493  1.00  0.00     0.095 C 
ENDBRANCH  14  17
ENDBRANCH   1  11
BRANCH   2  19
HETATM   19  C   UNL     1       4.139  30.987  53.888  1.00  0.00     0.132 C 
BRANCH  19  20
HETATM   20  C   UNL     1       3.369  29.747  53.413  1.00  0.00     0.058 C 
BRANCH  20  21
HETATM   21  C   UNL     1       4.269  28.594  53.039  1.00  0.00    -0.057 A 
HETATM   22  C   UNL     1       3.959  27.285  53.428  1.00  0.00     0.007 A 
HETATM   23  C   UNL     1       4.786  26.223  53.057  1.00  0.00     0.001 A 
HETATM   24  C   UNL     1       5.927  26.458  52.292  1.00  0.00     0.000 A 
HETATM   25  C   UNL     1       6.242  27.756  51.896  1.00  0.00     0.001 A 
HETATM   26  C   UNL     1       5.418  28.819  52.268  1.00  0.00     0.007 A 
ENDBRANCH  20  21
ENDBRANCH  19  20
ENDBRANCH   2  19
BRANCH  10  27
HETATM   27  C   UNL     1       6.867  31.432  59.318  1.00  0.00     0.026 A 
HETATM   28  C   UNL     1       7.197  32.271  60.395  1.00  0.00     0.078 A 
HETATM   29  C   UNL     1       8.445  32.206  61.009  1.00  0.00     0.037 A 
HETATM   30  C   UNL     1       9.405  31.318  60.531  1.00  0.00     0.003 A 
HETATM   31  C   UNL     1       9.106  30.489  59.451  1.00  0.00     0.001 A 
HETATM   32  C   UNL     1       7.842  30.539  58.855  1.00  0.00     0.016 A 
BRANCH  28  33
HETATM   33  O   UNL     1       6.324  33.203  60.893  1.00  0.00    -0.360 OA
HETATM   34  H   UNL     1       5.682  33.417  60.192  1.00  0.00     0.217 HD
ENDBRANCH  28  33
ENDBRANCH  10  27
TORSDOF 7
ENDMDL
