MODEL 1
REMARK VINA RESULT:      -9.2      0.000      0.000
REMARK  4 active torsions:
REMARK  status: ('A' for Active; 'I' for Inactive)
REMARK    1  A    between atoms: C_9  and  C_10 
REMARK       I    between atoms: C_10  and  N_11 
REMARK    2  A    between atoms: N_11  and  C_12 
REMARK    3  A    between atoms: C_12  and  C_13 
REMARK    4  A    between atoms: C_14  and  O_15 
ROOT
HETATM    1  C   UNL     1       8.005  27.272  56.524  1.00  0.00     0.273 C 
HETATM    2  N   UNL     1       8.850  28.106  57.219  1.00  0.00    -0.347 N 
HETATM    3  O   UNL     1       7.207  27.645  55.671  1.00  0.00    -0.266 OA
HETATM    4  H   UNL     1       9.513  27.619  57.815  1.00  0.00     0.163 HD
ENDROOT
BRANCH   1   5
HETATM    5  C   UNL     1       8.170  25.855  56.894  1.00  0.00     0.157 A 
HETATM    6  C   UNL     1       8.097  24.722  56.029  1.00  0.00     0.029 A 
HETATM    7  C   UNL     1       7.862  24.506  54.657  1.00  0.00     0.023 A 
HETATM    8  C   UNL     1       8.331  23.626  56.849  1.00  0.00     0.063 A 
HETATM    9  C   UNL     1       7.869  23.196  54.151  1.00  0.00    -0.061 A 
HETATM   10  C   UNL     1       7.618  22.943  52.692  1.00  0.00     0.048 C 
HETATM   11  C   UNL     1       8.110  22.117  55.013  1.00  0.00     0.009 A 
HETATM   12  C   UNL     1       8.346  22.309  56.379  1.00  0.00     0.032 A 
HETATM   13  N   UNL     1       8.521  24.144  58.100  1.00  0.00    -0.277 N 
HETATM   14  H   UNL     1       8.716  23.632  58.952  1.00  0.00     0.189 HD
HETATM   15  N   UNL     1       8.433  25.485  58.168  1.00  0.00    -0.168 NA
ENDBRANCH   1   5
BRANCH   2  16
HETATM   16  C   UNL     1       9.035  29.538  57.022  1.00  0.00     0.116 C 
HETATM   17  C   UNL     1      10.457  29.943  56.630  1.00  0.00     0.037 C 
BRANCH  16  18
HETATM   18  C   UNL     1       8.510  30.381  58.177  1.00  0.00    -0.002 A 
HETATM   19  C   UNL     1       7.174  30.837  58.180  1.00  0.00     0.076 A 
HETATM   20  C   UNL     1       6.708  31.621  59.241  1.00  0.00     0.038 A 
HETATM   21  C   UNL     1       7.557  31.974  60.293  1.00  0.00     0.009 A 
HETATM   22  C   UNL     1       8.886  31.555  60.297  1.00  0.00    -0.061 A 
HETATM   23  C   UNL     1       9.817  31.937  61.410  1.00  0.00     0.048 C 
HETATM   24  C   UNL     1       9.355  30.771  59.235  1.00  0.00     0.018 A 
BRANCH  19  25
HETATM   25  O   UNL     1       6.407  30.460  57.107  1.00  0.00    -0.355 OA
HETATM   26  C   UNL     1       5.101  29.966  57.375  1.00  0.00     0.210 C 
ENDBRANCH  19  25
ENDBRANCH  16  18
ENDBRANCH   2  16
TORSDOF 4
ENDMDL
MODEL 2
REMARK VINA RESULT:      -9.1      2.128      7.773
REMARK  4 active torsions:
REMARK  status: ('A' for Active; 'I' for Inactive)
REMARK    1  A    between atoms: C_9  and  C_10 
REMARK       I    between atoms: C_10  and  N_11 
REMARK    2  A    between atoms: N_11  and  C_12 
REMARK    3  A    between atoms: C_12  and  C_13 
REMARK    4  A    between atoms: C_14  and  O_15 
ROOT
HETATM    1  C   UNL     1       6.918  27.415  54.726  1.00  0.00     0.273 C 
HETATM    2  N   UNL     1       6.747  26.062  54.904  1.00  0.00    -0.347 N 
HETATM    3  O   UNL     1       7.136  27.950  53.645  1.00  0.00    -0.266 OA
HETATM    4  H   UNL     1       6.476  25.800  55.848  1.00  0.00     0.163 HD
ENDROOT
BRANCH   1   5
HETATM    5  C   UNL     1       6.789  28.176  55.981  1.00  0.00     0.157 A 
HETATM    6  C   UNL     1       7.827  28.844  56.696  1.00  0.00     0.029 A 
HETATM    7  C   UNL     1       9.215  29.026  56.538  1.00  0.00     0.023 A 
HETATM    8  C   UNL     1       7.198  29.416  57.795  1.00  0.00     0.063 A 
HETATM    9  C   UNL     1       9.928  29.777  57.486  1.00  0.00    -0.061 A 
HETATM   10  C   UNL     1      11.409  29.981  57.338  1.00  0.00     0.048 C 
HETATM   11  C   UNL     1       9.255  30.338  58.580  1.00  0.00     0.009 A 
HETATM   12  C   UNL     1       7.877  30.170  58.757  1.00  0.00     0.032 A 
HETATM   13  N   UNL     1       5.880  29.072  57.677  1.00  0.00    -0.277 N 
HETATM   14  H   UNL     1       5.124  29.318  58.305  1.00  0.00     0.189 HD
HETATM   15  N   UNL     1       5.593  28.325  56.596  1.00  0.00    -0.168 NA
ENDBRANCH   1   5
BRANCH   2  16
HETATM   16  C   UNL     1       6.692  25.035  53.871  1.00  0.00     0.116 C 
HETATM   17  C   UNL     1       5.309  24.837  53.249  1.00  0.00     0.037 C 
BRANCH  16  18
HETATM   18  C   UNL     1       7.308  23.709  54.302  1.00  0.00    -0.002 A 
HETATM   19  C   UNL     1       7.697  23.504  55.643  1.00  0.00     0.076 A 
HETATM   20  C   UNL     1       8.273  22.286  56.023  1.00  0.00     0.038 A 
HETATM   21  C   UNL     1       8.484  21.275  55.083  1.00  0.00     0.009 A 
HETATM   22  C   UNL     1       8.130  21.466  53.748  1.00  0.00    -0.061 A 
HETATM   23  C   UNL     1       8.364  20.397  52.722  1.00  0.00     0.048 C 
HETATM   24  C   UNL     1       7.554  22.685  53.367  1.00  0.00     0.018 A 
BRANCH  19  25
HETATM   25  O   UNL     1       7.470  24.549  56.503  1.00  0.00    -0.355 OA
HETATM   26  C   UNL     1       8.462  24.816  57.486  1.00  0.00     0.210 C 
ENDBRANCH  19  25
ENDBRANCH  16  18
ENDBRANCH   2  16
TORSDOF 4
ENDMDL
MODEL 3
REMARK VINA RESULT:      -9.1      1.789      7.887
REMARK  4 active torsions:
REMARK  status: ('A' for Active; 'I' for Inactive)
REMARK    1  A    between atoms: C_9  and  C_10 
REMARK       I    between atoms: C_10  and  N_11 
REMARK    2  A    between atoms: N_11  and  C_12 
REMARK    3  A    between atoms: C_12  and  C_13 
REMARK    4  A    between atoms: C_14  and  O_15 
ROOT
HETATM    1  C   UNL     1       7.111  28.022  55.962  1.00  0.00     0.273 C 
HETATM    2  N   UNL     1       7.427  26.698  55.766  1.00  0.00    -0.347 N 
HETATM    3  O   UNL     1       5.968  28.466  55.986  1.00  0.00    -0.266 OA
HETATM    4  H   UNL     1       8.416  26.489  55.873  1.00  0.00     0.163 HD
ENDROOT
BRANCH   1   5
HETATM    5  C   UNL     1       8.299  28.869  56.166  1.00  0.00     0.157 A 
HETATM    6  C   UNL     1       8.616  29.650  57.317  1.00  0.00     0.029 A 
HETATM    7  C   UNL     1       8.013  29.913  58.563  1.00  0.00     0.023 A 
HETATM    8  C   UNL     1       9.834  30.250  57.023  1.00  0.00     0.063 A 
HETATM    9  C   UNL     1       8.651  30.769  59.475  1.00  0.00    -0.061 A 
HETATM   10  C   UNL     1       8.024  31.065  60.807  1.00  0.00     0.048 C 
HETATM   11  C   UNL     1       9.880  31.353  59.139  1.00  0.00     0.009 A 
HETATM   12  C   UNL     1      10.497  31.106  57.907  1.00  0.00     0.032 A 
HETATM   13  N   UNL     1      10.159  29.812  55.769  1.00  0.00    -0.277 N 
HETATM   14  H   UNL     1      10.986  30.048  55.234  1.00  0.00     0.189 HD
HETATM   15  N   UNL     1       9.259  28.977  55.219  1.00  0.00    -0.168 NA
ENDBRANCH   1   5
BRANCH   2  16
HETATM   16  C   UNL     1       6.504  25.576  55.652  1.00  0.00     0.116 C 
HETATM   17  C   UNL     1       5.913  25.106  56.981  1.00  0.00     0.037 C 
BRANCH  16  18
HETATM   18  C   UNL     1       7.062  24.412  54.842  1.00  0.00    -0.002 A 
HETATM   19  C   UNL     1       7.356  24.571  53.471  1.00  0.00     0.076 A 
HETATM   20  C   UNL     1       7.857  23.490  52.736  1.00  0.00     0.038 A 
HETATM   21  C   UNL     1       8.053  22.246  53.342  1.00  0.00     0.009 A 
HETATM   22  C   UNL     1       7.746  22.062  54.689  1.00  0.00    -0.061 A 
HETATM   23  C   UNL     1       7.936  20.730  55.353  1.00  0.00     0.048 C 
HETATM   24  C   UNL     1       7.244  23.143  55.426  1.00  0.00     0.018 A 
BRANCH  19  25
HETATM   25  O   UNL     1       7.123  25.816  52.945  1.00  0.00    -0.355 OA
HETATM   26  C   UNL     1       6.332  25.893  51.766  1.00  0.00     0.210 C 
ENDBRANCH  19  25
ENDBRANCH  16  18
ENDBRANCH   2  16
TORSDOF 4
ENDMDL
MODEL 4
REMARK VINA RESULT:      -8.8      1.270      2.186
REMARK  4 active torsions:
REMARK  status: ('A' for Active; 'I' for Inactive)
REMARK    1  A    between atoms: C_9  and  C_10 
REMARK       I    between atoms: C_10  and  N_11 
REMARK    2  A    between atoms: N_11  and  C_12 
REMARK    3  A    between atoms: C_12  and  C_13 
REMARK    4  A    between atoms: C_14  and  O_15 
ROOT
HETATM    1  C   UNL     1       6.568  27.196  57.239  1.00  0.00     0.273 C 
HETATM    2  N   UNL     1       7.240  28.298  57.714  1.00  0.00    -0.347 N 
HETATM    3  O   UNL     1       5.404  27.205  56.853  1.00  0.00    -0.266 OA
HETATM    4  H   UNL     1       8.226  28.134  57.897  1.00  0.00     0.163 HD
ENDROOT
BRANCH   1   5
HETATM    5  C   UNL     1       7.405  25.983  57.217  1.00  0.00     0.157 A 
HETATM    6  C   UNL     1       7.669  25.136  56.099  1.00  0.00     0.029 A 
HETATM    7  C   UNL     1       7.290  25.098  54.742  1.00  0.00     0.023 A 
HETATM    8  C   UNL     1       8.512  24.147  56.587  1.00  0.00     0.063 A 
HETATM    9  C   UNL     1       7.771  24.068  53.917  1.00  0.00    -0.061 A 
HETATM   10  C   UNL     1       7.379  24.007  52.469  1.00  0.00     0.048 C 
HETATM   11  C   UNL     1       8.622  23.090  54.449  1.00  0.00     0.009 A 
HETATM   12  C   UNL     1       9.011  23.108  55.794  1.00  0.00     0.032 A 
HETATM   13  N   UNL     1       8.695  24.446  57.908  1.00  0.00    -0.277 N 
HETATM   14  H   UNL     1       9.256  23.936  58.580  1.00  0.00     0.189 HD
HETATM   15  N   UNL     1       8.045  25.547  58.326  1.00  0.00    -0.168 NA
ENDBRANCH   1   5
BRANCH   2  16
HETATM   16  C   UNL     1       6.759  29.673  57.761  1.00  0.00     0.116 C 
HETATM   17  C   UNL     1       6.406  30.267  56.397  1.00  0.00     0.037 C 
BRANCH  16  18
HETATM   18  C   UNL     1       7.662  30.603  58.561  1.00  0.00    -0.002 A 
HETATM   19  C   UNL     1       9.039  30.694  58.263  1.00  0.00     0.076 A 
HETATM   20  C   UNL     1       9.860  31.543  59.013  1.00  0.00     0.038 A 
HETATM   21  C   UNL     1       9.334  32.291  60.070  1.00  0.00     0.009 A 
HETATM   22  C   UNL     1       7.983  32.197  60.397  1.00  0.00    -0.061 A 
HETATM   23  C   UNL     1       7.404  32.981  61.538  1.00  0.00     0.048 C 
HETATM   24  C   UNL     1       7.160  31.347  59.647  1.00  0.00     0.018 A 
BRANCH  19  25
HETATM   25  O   UNL     1       9.482  29.919  57.221  1.00  0.00    -0.355 OA
HETATM   26  C   UNL     1      10.887  29.753  57.078  1.00  0.00     0.210 C 
ENDBRANCH  19  25
ENDBRANCH  16  18
ENDBRANCH   2  16
TORSDOF 4
ENDMDL
MODEL 5
REMARK VINA RESULT:      -8.6      2.076      2.872
REMARK  4 active torsions:
REMARK  status: ('A' for Active; 'I' for Inactive)
REMARK    1  A    between atoms: C_9  and  C_10 
REMARK       I    between atoms: C_10  and  N_11 
REMARK    2  A    between atoms: N_11  and  C_12 
REMARK    3  A    between atoms: C_12  and  C_13 
REMARK    4  A    between atoms: C_14  and  O_15 
ROOT
HETATM    1  C   UNL     1       7.421  25.738  55.260  1.00  0.00     0.273 C 
HETATM    2  N   UNL     1       7.603  26.900  55.973  1.00  0.00    -0.347 N 
HETATM    3  O   UNL     1       7.019  25.690  54.102  1.00  0.00    -0.266 OA
HETATM    4  H   UNL     1       8.035  26.764  56.882  1.00  0.00     0.163 HD
ENDROOT
BRANCH   1   5
HETATM    5  C   UNL     1       7.784  24.534  56.028  1.00  0.00     0.157 A 
HETATM    6  C   UNL     1       7.964  23.211  55.526  1.00  0.00     0.029 A 
HETATM    7  C   UNL     1       7.875  22.581  54.269  1.00  0.00     0.023 A 
HETATM    8  C   UNL     1       8.307  22.448  56.634  1.00  0.00     0.063 A 
HETATM    9  C   UNL     1       8.133  21.205  54.163  1.00  0.00    -0.061 A 
HETATM   10  C   UNL     1       8.041  20.513  52.834  1.00  0.00     0.048 C 
HETATM   11  C   UNL     1       8.478  20.471  55.307  1.00  0.00     0.009 A 
HETATM   12  C   UNL     1       8.572  21.076  56.566  1.00  0.00     0.032 A 
HETATM   13  N   UNL     1       8.312  23.320  57.687  1.00  0.00    -0.277 N 
HETATM   14  H   UNL     1       8.520  23.110  58.656  1.00  0.00     0.189 HD
HETATM   15  N   UNL     1       8.003  24.588  57.362  1.00  0.00    -0.168 NA
ENDBRANCH   1   5
BRANCH   2  16
HETATM   16  C   UNL     1       7.457  28.267  55.487  1.00  0.00     0.116 C 
HETATM   17  C   UNL     1       8.765  29.055  55.414  1.00  0.00     0.037 C 
BRANCH  16  18
HETATM   18  C   UNL     1       6.368  29.053  56.207  1.00  0.00    -0.002 A 
HETATM   19  C   UNL     1       5.007  28.820  55.914  1.00  0.00     0.076 A 
HETATM   20  C   UNL     1       4.017  29.557  56.574  1.00  0.00     0.038 A 
HETATM   21  C   UNL     1       4.362  30.537  57.508  1.00  0.00     0.009 A 
HETATM   22  C   UNL     1       5.701  30.800  57.792  1.00  0.00    -0.061 A 
HETATM   23  C   UNL     1       6.090  31.859  58.781  1.00  0.00     0.048 C 
HETATM   24  C   UNL     1       6.693  30.063  57.133  1.00  0.00     0.018 A 
BRANCH  19  25
HETATM   25  O   UNL     1       4.749  27.852  54.977  1.00  0.00    -0.355 OA
HETATM   26  C   UNL     1       4.002  28.235  53.828  1.00  0.00     0.210 C 
ENDBRANCH  19  25
ENDBRANCH  16  18
ENDBRANCH   2  16
TORSDOF 4
ENDMDL
MODEL 6
REMARK VINA RESULT:      -8.6      2.432      8.066
REMARK  4 active torsions:
REMARK  status: ('A' for Active; 'I' for Inactive)
REMARK    1  A    between atoms: C_9  and  C_10 
REMARK       I    between atoms: C_10  and  N_11 
REMARK    2  A    between atoms: N_11  and  C_12 
REMARK    3  A    between atoms: C_12  and  C_13 
REMARK    4  A    between atoms: C_14  and  O_15 
ROOT
HETATM    1  C   UNL     1       7.069  27.474  54.459  1.00  0.00     0.273 C 
HETATM    2  N   UNL     1       6.964  26.116  54.266  1.00  0.00    -0.347 N 
HETATM    3  O   UNL     1       8.056  28.142  54.169  1.00  0.00    -0.266 OA
HETATM    4  H   UNL     1       6.042  25.741  54.470  1.00  0.00     0.163 HD
ENDROOT
BRANCH   1   5
HETATM    5  C   UNL     1       5.849  28.066  55.037  1.00  0.00     0.157 A 
HETATM    6  C   UNL     1       5.770  29.038  56.078  1.00  0.00     0.029 A 
HETATM    7  C   UNL     1       6.689  29.738  56.885  1.00  0.00     0.023 A 
HETATM    8  C   UNL     1       4.413  29.273  56.251  1.00  0.00     0.063 A 
HETATM    9  C   UNL     1       6.216  30.653  57.840  1.00  0.00    -0.061 A 
HETATM   10  C   UNL     1       7.177  31.408  58.712  1.00  0.00     0.048 C 
HETATM   11  C   UNL     1       4.837  30.862  57.981  1.00  0.00     0.009 A 
HETATM   12  C   UNL     1       3.907  30.177  57.190  1.00  0.00     0.032 A 
HETATM   13  N   UNL     1       3.787  28.463  55.344  1.00  0.00    -0.277 N 
HETATM   14  H   UNL     1       2.790  28.374  55.188  1.00  0.00     0.189 HD
HETATM   15  N   UNL     1       4.619  27.720  54.592  1.00  0.00    -0.168 NA
ENDBRANCH   1   5
BRANCH   2  16
HETATM   16  C   UNL     1       7.926  25.240  53.612  1.00  0.00     0.116 C 
HETATM   17  C   UNL     1       7.861  25.258  52.084  1.00  0.00     0.037 C 
BRANCH  16  18
HETATM   18  C   UNL     1       7.917  23.817  54.157  1.00  0.00    -0.002 A 
HETATM   19  C   UNL     1       7.846  23.585  55.548  1.00  0.00     0.076 A 
HETATM   20  C   UNL     1       7.851  22.273  56.036  1.00  0.00     0.038 A 
HETATM   21  C   UNL     1       7.945  21.188  55.161  1.00  0.00     0.009 A 
HETATM   22  C   UNL     1       8.042  21.396  53.786  1.00  0.00    -0.061 A 
HETATM   23  C   UNL     1       8.159  20.243  52.833  1.00  0.00     0.048 C 
HETATM   24  C   UNL     1       8.037  22.708  53.296  1.00  0.00     0.018 A 
BRANCH  19  25
HETATM   25  O   UNL     1       7.770  24.701  56.342  1.00  0.00    -0.355 OA
HETATM   26  C   UNL     1       8.726  24.827  57.388  1.00  0.00     0.210 C 
ENDBRANCH  19  25
ENDBRANCH  16  18
ENDBRANCH   2  16
TORSDOF 4
ENDMDL
MODEL 7
REMARK VINA RESULT:      -8.6      1.742      2.939
REMARK  4 active torsions:
REMARK  status: ('A' for Active; 'I' for Inactive)
REMARK    1  A    between atoms: C_9  and  C_10 
REMARK       I    between atoms: C_10  and  N_11 
REMARK    2  A    between atoms: N_11  and  C_12 
REMARK    3  A    between atoms: C_12  and  C_13 
REMARK    4  A    between atoms: C_14  and  O_15 
ROOT
HETATM    1  C   UNL     1       7.066  25.472  55.369  1.00  0.00     0.273 C 
HETATM    2  N   UNL     1       7.411  26.656  55.978  1.00  0.00    -0.347 N 
HETATM    3  O   UNL     1       6.410  25.388  54.337  1.00  0.00    -0.266 OA
HETATM    4  H   UNL     1       8.040  26.546  56.769  1.00  0.00     0.163 HD
ENDROOT
BRANCH   1   5
HETATM    5  C   UNL     1       7.590  24.291  56.079  1.00  0.00     0.157 A 
HETATM    6  C   UNL     1       7.897  23.014  55.521  1.00  0.00     0.029 A 
HETATM    7  C   UNL     1       7.831  22.422  54.245  1.00  0.00     0.023 A 
HETATM    8  C   UNL     1       8.364  22.257  56.587  1.00  0.00     0.063 A 
HETATM    9  C   UNL     1       8.238  21.087  54.078  1.00  0.00    -0.061 A 
HETATM   10  C   UNL     1       8.174  20.436  52.727  1.00  0.00     0.048 C 
HETATM   11  C   UNL     1       8.704  20.359  55.181  1.00  0.00     0.009 A 
HETATM   12  C   UNL     1       8.777  20.928  56.458  1.00  0.00     0.032 A 
HETATM   13  N   UNL     1       8.311  23.088  57.672  1.00  0.00    -0.277 N 
HETATM   14  H   UNL     1       8.578  22.870  58.624  1.00  0.00     0.189 HD
HETATM   15  N   UNL     1       7.851  24.324  57.406  1.00  0.00    -0.168 NA
ENDBRANCH   1   5
BRANCH   2  16
HETATM   16  C   UNL     1       7.165  28.006  55.488  1.00  0.00     0.116 C 
HETATM   17  C   UNL     1       8.071  28.434  54.332  1.00  0.00     0.037 C 
BRANCH  16  18
HETATM   18  C   UNL     1       7.131  29.055  56.592  1.00  0.00    -0.002 A 
HETATM   19  C   UNL     1       8.275  29.298  57.383  1.00  0.00     0.076 A 
HETATM   20  C   UNL     1       8.227  30.255  58.402  1.00  0.00     0.038 A 
HETATM   21  C   UNL     1       7.050  30.963  58.660  1.00  0.00     0.009 A 
HETATM   22  C   UNL     1       5.903  30.720  57.908  1.00  0.00    -0.061 A 
HETATM   23  C   UNL     1       4.626  31.459  58.180  1.00  0.00     0.048 C 
HETATM   24  C   UNL     1       5.949  29.762  56.887  1.00  0.00     0.018 A 
BRANCH  19  25
HETATM   25  O   UNL     1       9.387  28.554  57.078  1.00  0.00    -0.355 OA
HETATM   26  C   UNL     1      10.585  29.258  56.776  1.00  0.00     0.210 C 
ENDBRANCH  19  25
ENDBRANCH  16  18
ENDBRANCH   2  16
TORSDOF 4
ENDMDL
MODEL 8
REMARK VINA RESULT:      -8.6      1.670      2.410
REMARK  4 active torsions:
REMARK  status: ('A' for Active; 'I' for Inactive)
REMARK    1  A    between atoms: C_9  and  C_10 
REMARK       I    between atoms: C_10  and  N_11 
REMARK    2  A    between atoms: N_11  and  C_12 
REMARK    3  A    between atoms: C_12  and  C_13 
REMARK    4  A    between atoms: C_14  and  O_15 
ROOT
HETATM    1  C   UNL     1       6.909  25.275  55.395  1.00  0.00     0.273 C 
HETATM    2  N   UNL     1       7.405  26.470  55.861  1.00  0.00    -0.347 N 
HETATM    3  O   UNL     1       6.071  25.171  54.506  1.00  0.00    -0.266 OA
HETATM    4  H   UNL     1       8.165  26.370  56.529  1.00  0.00     0.163 HD
ENDROOT
BRANCH   1   5
HETATM    5  C   UNL     1       7.511  24.108  56.063  1.00  0.00     0.157 A 
HETATM    6  C   UNL     1       7.863  22.859  55.470  1.00  0.00     0.029 A 
HETATM    7  C   UNL     1       7.789  22.290  54.183  1.00  0.00     0.023 A 
HETATM    8  C   UNL     1       8.398  22.104  56.506  1.00  0.00     0.063 A 
HETATM    9  C   UNL     1       8.255  20.981  53.976  1.00  0.00    -0.061 A 
HETATM   10  C   UNL     1       8.183  20.354  52.614  1.00  0.00     0.048 C 
HETATM   11  C   UNL     1       8.789  20.254  55.049  1.00  0.00     0.009 A 
HETATM   12  C   UNL     1       8.872  20.800  56.336  1.00  0.00     0.032 A 
HETATM   13  N   UNL     1       8.337  22.910  57.609  1.00  0.00    -0.277 N 
HETATM   14  H   UNL     1       8.642  22.686  58.548  1.00  0.00     0.189 HD
HETATM   15  N   UNL     1       7.809  24.126  57.383  1.00  0.00    -0.168 NA
ENDBRANCH   1   5
BRANCH   2  16
HETATM   16  C   UNL     1       7.123  27.804  55.347  1.00  0.00     0.116 C 
HETATM   17  C   UNL     1       7.936  28.191  54.111  1.00  0.00     0.037 C 
BRANCH  16  18
HETATM   18  C   UNL     1       7.176  28.889  56.416  1.00  0.00    -0.002 A 
HETATM   19  C   UNL     1       6.001  29.566  56.806  1.00  0.00     0.076 A 
HETATM   20  C   UNL     1       6.066  30.569  57.781  1.00  0.00     0.038 A 
HETATM   21  C   UNL     1       7.287  30.921  58.360  1.00  0.00     0.009 A 
HETATM   22  C   UNL     1       8.463  30.282  57.971  1.00  0.00    -0.061 A 
HETATM   23  C   UNL     1       9.785  30.658  58.571  1.00  0.00     0.048 C 
HETATM   24  C   UNL     1       8.400  29.279  56.996  1.00  0.00     0.018 A 
BRANCH  19  25
HETATM   25  O   UNL     1       4.844  29.174  56.182  1.00  0.00    -0.355 OA
HETATM   26  C   UNL     1       3.664  29.916  56.463  1.00  0.00     0.210 C 
ENDBRANCH  19  25
ENDBRANCH  16  18
ENDBRANCH   2  16
TORSDOF 4
ENDMDL
MODEL 9
REMARK VINA RESULT:      -8.6      4.136      7.929
REMARK  4 active torsions:
REMARK  status: ('A' for Active; 'I' for Inactive)
REMARK    1  A    between atoms: C_9  and  C_10 
REMARK       I    between atoms: C_10  and  N_11 
REMARK    2  A    between atoms: N_11  and  C_12 
REMARK    3  A    between atoms: C_12  and  C_13 
REMARK    4  A    between atoms: C_14  and  O_15 
ROOT
HETATM    1  C   UNL     1       5.628  26.067  54.354  1.00  0.00     0.273 C 
HETATM    2  N   UNL     1       6.969  26.228  54.097  1.00  0.00    -0.347 N 
HETATM    3  O   UNL     1       4.935  25.167  53.890  1.00  0.00    -0.266 OA
HETATM    4  H   UNL     1       7.409  26.965  54.641  1.00  0.00     0.163 HD
ENDROOT
BRANCH   1   5
HETATM    5  C   UNL     1       5.097  27.085  55.278  1.00  0.00     0.157 A 
HETATM    6  C   UNL     1       4.508  28.338  54.935  1.00  0.00     0.029 A 
HETATM    7  C   UNL     1       4.231  29.038  53.744  1.00  0.00     0.023 A 
HETATM    8  C   UNL     1       4.163  28.919  56.149  1.00  0.00     0.063 A 
HETATM    9  C   UNL     1       3.616  30.300  53.809  1.00  0.00    -0.061 A 
HETATM   10  C   UNL     1       3.314  31.064  52.552  1.00  0.00     0.048 C 
HETATM   11  C   UNL     1       3.283  30.850  55.054  1.00  0.00     0.009 A 
HETATM   12  C   UNL     1       3.549  30.172  56.250  1.00  0.00     0.032 A 
HETATM   13  N   UNL     1       4.550  28.019  57.103  1.00  0.00    -0.277 N 
HETATM   14  H   UNL     1       4.452  28.112  58.107  1.00  0.00     0.189 HD
HETATM   15  N   UNL     1       5.116  26.900  56.618  1.00  0.00    -0.168 NA
ENDBRANCH   1   5
BRANCH   2  16
HETATM   16  C   UNL     1       7.835  25.341  53.330  1.00  0.00     0.116 C 
HETATM   17  C   UNL     1       7.457  25.209  51.854  1.00  0.00     0.037 C 
BRANCH  16  18
HETATM   18  C   UNL     1       8.035  23.978  53.982  1.00  0.00    -0.002 A 
HETATM   19  C   UNL     1       8.339  23.881  55.357  1.00  0.00     0.076 A 
HETATM   20  C   UNL     1       8.532  22.624  55.940  1.00  0.00     0.038 A 
HETATM   21  C   UNL     1       8.446  21.461  55.172  1.00  0.00     0.009 A 
HETATM   22  C   UNL     1       8.172  21.536  53.807  1.00  0.00    -0.061 A 
HETATM   23  C   UNL     1       8.090  20.299  52.962  1.00  0.00     0.048 C 
HETATM   24  C   UNL     1       7.978  22.793  53.221  1.00  0.00     0.018 A 
BRANCH  19  25
HETATM   25  O   UNL     1       8.420  25.067  56.041  1.00  0.00    -0.355 OA
HETATM   26  C   UNL     1       8.303  25.017  57.457  1.00  0.00     0.210 C 
ENDBRANCH  19  25
ENDBRANCH  16  18
ENDBRANCH   2  16
TORSDOF 4
ENDMDL
MODEL 10
REMARK VINA RESULT:      -8.6      2.359      3.576
REMARK  4 active torsions:
REMARK  status: ('A' for Active; 'I' for Inactive)
REMARK    1  A    between atoms: C_9  and  C_10 
REMARK       I    between atoms: C_10  and  N_11 
REMARK    2  A    between atoms: N_11  and  C_12 
REMARK    3  A    between atoms: C_12  and  C_13 
REMARK    4  A    between atoms: C_14  and  O_15 
ROOT
HETATM    1  C   UNL     1       6.305  25.723  54.973  1.00  0.00     0.273 C 
HETATM    2  N   UNL     1       6.534  27.044  54.664  1.00  0.00    -0.347 N 
HETATM    3  O   UNL     1       5.649  25.338  55.935  1.00  0.00    -0.266 OA
HETATM    4  H   UNL     1       7.013  27.184  53.779  1.00  0.00     0.163 HD
ENDROOT
BRANCH   1   5
HETATM    5  C   UNL     1       6.917  24.796  54.004  1.00  0.00     0.157 A 
HETATM    6  C   UNL     1       7.351  23.459  54.244  1.00  0.00     0.029 A 
HETATM    7  C   UNL     1       7.383  22.584  55.349  1.00  0.00     0.023 A 
HETATM    8  C   UNL     1       7.840  23.012  53.024  1.00  0.00     0.063 A 
HETATM    9  C   UNL     1       7.905  21.290  55.194  1.00  0.00    -0.061 A 
HETATM   10  C   UNL     1       7.951  20.343  56.358  1.00  0.00     0.048 C 
HETATM   11  C   UNL     1       8.388  20.879  53.943  1.00  0.00     0.009 A 
HETATM   12  C   UNL     1       8.366  21.731  52.833  1.00  0.00     0.032 A 
HETATM   13  N   UNL     1       7.678  24.063  52.164  1.00  0.00    -0.277 N 
HETATM   14  H   UNL     1       7.927  24.095  51.182  1.00  0.00     0.189 HD
HETATM   15  N   UNL     1       7.124  25.157  52.717  1.00  0.00    -0.168 NA
ENDBRANCH   1   5
BRANCH   2  16
HETATM   16  C   UNL     1       5.982  28.215  55.332  1.00  0.00     0.116 C 
HETATM   17  C   UNL     1       5.351  29.242  54.391  1.00  0.00     0.037 C 
BRANCH  16  18
HETATM   18  C   UNL     1       6.953  28.870  56.307  1.00  0.00    -0.002 A 
HETATM   19  C   UNL     1       6.479  29.469  57.494  1.00  0.00     0.076 A 
HETATM   20  C   UNL     1       7.381  30.078  58.375  1.00  0.00     0.038 A 
HETATM   21  C   UNL     1       8.746  30.116  58.083  1.00  0.00     0.009 A 
HETATM   22  C   UNL     1       9.231  29.553  56.904  1.00  0.00    -0.061 A 
HETATM   23  C   UNL     1      10.692  29.597  56.567  1.00  0.00     0.048 C 
HETATM   24  C   UNL     1       8.331  28.944  56.021  1.00  0.00     0.018 A 
BRANCH  19  25
HETATM   25  O   UNL     1       5.125  29.403  57.703  1.00  0.00    -0.355 OA
HETATM   26  C   UNL     1       4.420  30.632  57.829  1.00  0.00     0.210 C 
ENDBRANCH  19  25
ENDBRANCH  16  18
ENDBRANCH   2  16
TORSDOF 4
ENDMDL
