MODEL 1
REMARK VINA RESULT:      -9.3      0.000      0.000
REMARK  7 active torsions:
REMARK  status: ('A' for Active; 'I' for Inactive)
REMARK    1  A    between atoms: C_2  and  C_3 
REMARK    2  A    between atoms: C_3  and  N_4 
REMARK    3  A    between atoms: C_3  and  C_20 
REMARK       I    between atoms: N_4  and  C_5 
REMARK       I    between atoms: C_5  and  N_6 
REMARK    4  A    between atoms: N_6  and  C_7 
REMARK    5  A    between atoms: C_7  and  C_8 
REMARK    6  A    between atoms: C_10  and  O_11 
REMARK    7  A    between atoms: O_11  and  C_12 
ROOT
HETATM    1  N   UNL     1       7.677  24.777  55.110  1.00  0.00    -0.334 N 
HETATM    2  C   UNL     1       6.999  25.619  55.949  1.00  0.00     0.316 C 
HETATM    3  N   UNL     1       7.865  26.383  56.690  1.00  0.00    -0.339 N 
HETATM    4  O   UNL     1       5.781  25.694  56.022  1.00  0.00    -0.247 OA
HETATM    5  H   UNL     1       8.651  24.623  55.307  1.00  0.00     0.165 HD
HETATM    6  H   UNL     1       8.785  26.503  56.299  1.00  0.00     0.164 HD
ENDROOT
BRANCH   3   7
HETATM    7  C   UNL     1       7.377  27.472  57.508  1.00  0.00     0.163 C 
BRANCH   7   8
HETATM    8  C   UNL     1       8.403  28.571  57.572  1.00  0.00    -0.035 A 
HETATM    9  C   UNL     1       8.193  29.690  58.384  1.00  0.00     0.066 A 
HETATM   10  C   UNL     1       9.116  30.720  58.340  1.00  0.00     0.164 A 
HETATM   11  N   UNL     1      10.223  30.714  57.568  1.00  0.00    -0.237 NA
HETATM   12  C   UNL     1      10.414  29.619  56.804  1.00  0.00     0.120 A 
HETATM   13  C   UNL     1       9.544  28.540  56.764  1.00  0.00     0.028 A 
BRANCH  10  14
HETATM   14  O   UNL     1       8.859  31.818  59.137  1.00  0.00    -0.329 OA
BRANCH  14  15
HETATM   15  C   UNL     1       8.456  31.526  60.493  1.00  0.00     0.130 C 
HETATM   16  C   UNL     1       9.540  31.704  61.590  1.00  0.00     0.032 C 
HETATM   17  C   UNL     1       8.450  32.313  62.487  1.00  0.00     0.005 C 
HETATM   18  C   UNL     1       7.683  32.669  61.201  1.00  0.00     0.032 C 
ENDBRANCH  14  15
ENDBRANCH  10  14
ENDBRANCH   7   8
ENDBRANCH   3   7
BRANCH   1  19
HETATM   19  C   UNL     1       6.997  23.816  54.254  1.00  0.00     0.119 C 
BRANCH  19  20
HETATM   20  C   UNL     1       6.850  24.377  52.825  1.00  0.00     0.025 C 
HETATM   21  C   UNL     1       8.028  25.213  52.335  1.00  0.00     0.007 C 
ENDBRANCH  19  20
BRANCH  19  22
HETATM   22  C   UNL     1       7.637  22.436  54.274  1.00  0.00    -0.033 A 
HETATM   23  C   UNL     1       7.890  21.818  55.507  1.00  0.00     0.028 A 
HETATM   24  C   UNL     1       8.444  20.547  55.526  1.00  0.00     0.116 A 
HETATM   25  N   UNL     1       8.760  19.850  54.416  1.00  0.00    -0.273 NA
HETATM   26  C   UNL     1       8.520  20.457  53.237  1.00  0.00     0.116 A 
HETATM   27  C   UNL     1       7.968  21.725  53.115  1.00  0.00     0.028 A 
ENDBRANCH  19  22
ENDBRANCH   1  19
TORSDOF 7
ENDMDL
MODEL 2
REMARK VINA RESULT:      -8.2      2.196      9.363
REMARK  7 active torsions:
REMARK  status: ('A' for Active; 'I' for Inactive)
REMARK    1  A    between atoms: C_2  and  C_3 
REMARK    2  A    between atoms: C_3  and  N_4 
REMARK    3  A    between atoms: C_3  and  C_20 
REMARK       I    between atoms: N_4  and  C_5 
REMARK       I    between atoms: C_5  and  N_6 
REMARK    4  A    between atoms: N_6  and  C_7 
REMARK    5  A    between atoms: C_7  and  C_8 
REMARK    6  A    between atoms: C_10  and  O_11 
REMARK    7  A    between atoms: O_11  and  C_12 
ROOT
HETATM    1  N   UNL     1       7.420  28.827  57.476  1.00  0.00    -0.334 N 
HETATM    2  C   UNL     1       7.216  27.474  57.511  1.00  0.00     0.316 C 
HETATM    3  N   UNL     1       6.012  27.140  56.944  1.00  0.00    -0.339 N 
HETATM    4  O   UNL     1       8.007  26.664  57.972  1.00  0.00    -0.247 OA
HETATM    5  H   UNL     1       6.614  29.405  57.307  1.00  0.00     0.165 HD
HETATM    6  H   UNL     1       5.636  27.809  56.292  1.00  0.00     0.164 HD
ENDROOT
BRANCH   3   7
HETATM    7  C   UNL     1       5.667  25.756  56.702  1.00  0.00     0.163 C 
BRANCH   7   8
HETATM    8  C   UNL     1       5.867  25.420  55.248  1.00  0.00    -0.035 A 
HETATM    9  C   UNL     1       6.785  24.435  54.869  1.00  0.00     0.066 A 
HETATM   10  C   UNL     1       7.008  24.225  53.519  1.00  0.00     0.164 A 
HETATM   11  N   UNL     1       6.384  24.904  52.534  1.00  0.00    -0.237 NA
HETATM   12  C   UNL     1       5.493  25.839  52.921  1.00  0.00     0.120 A 
HETATM   13  C   UNL     1       5.208  26.136  54.246  1.00  0.00     0.028 A 
BRANCH  10  14
HETATM   14  O   UNL     1       7.940  23.262  53.186  1.00  0.00    -0.329 OA
BRANCH  14  15
HETATM   15  C   UNL     1       7.808  22.000  53.875  1.00  0.00     0.130 C 
HETATM   16  C   UNL     1       7.934  20.721  53.002  1.00  0.00     0.032 C 
HETATM   17  C   UNL     1       8.744  20.091  54.147  1.00  0.00     0.005 C 
HETATM   18  C   UNL     1       9.091  21.519  54.601  1.00  0.00     0.032 C 
ENDBRANCH  14  15
ENDBRANCH  10  14
ENDBRANCH   7   8
ENDBRANCH   3   7
BRANCH   1  19
HETATM   19  C   UNL     1       8.594  29.453  58.065  1.00  0.00     0.119 C 
BRANCH  19  20
HETATM   20  C   UNL     1       9.517  30.011  56.961  1.00  0.00     0.025 C 
HETATM   21  C   UNL     1      10.990  29.643  57.104  1.00  0.00     0.007 C 
ENDBRANCH  19  20
BRANCH  19  22
HETATM   22  C   UNL     1       8.255  30.494  59.121  1.00  0.00    -0.033 A 
HETATM   23  C   UNL     1       9.054  30.585  60.270  1.00  0.00     0.028 A 
HETATM   24  C   UNL     1       8.765  31.554  61.220  1.00  0.00     0.116 A 
HETATM   25  N   UNL     1       7.749  32.434  61.108  1.00  0.00    -0.273 NA
HETATM   26  C   UNL     1       6.984  32.331  60.003  1.00  0.00     0.116 A 
HETATM   27  C   UNL     1       7.193  31.397  58.999  1.00  0.00     0.028 A 
ENDBRANCH  19  22
ENDBRANCH   1  19
TORSDOF 7
ENDMDL
MODEL 3
REMARK VINA RESULT:      -8.1      4.750      8.278
REMARK  7 active torsions:
REMARK  status: ('A' for Active; 'I' for Inactive)
REMARK    1  A    between atoms: C_2  and  C_3 
REMARK    2  A    between atoms: C_3  and  N_4 
REMARK    3  A    between atoms: C_3  and  C_20 
REMARK       I    between atoms: N_4  and  C_5 
REMARK       I    between atoms: C_5  and  N_6 
REMARK    4  A    between atoms: N_6  and  C_7 
REMARK    5  A    between atoms: C_7  and  C_8 
REMARK    6  A    between atoms: C_10  and  O_11 
REMARK    7  A    between atoms: O_11  and  C_12 
ROOT
HETATM    1  N   UNL     1       6.408  24.384  54.570  1.00  0.00    -0.334 N 
HETATM    2  C   UNL     1       6.244  25.723  54.341  1.00  0.00     0.316 C 
HETATM    3  N   UNL     1       5.044  25.977  53.727  1.00  0.00    -0.339 N 
HETATM    4  O   UNL     1       7.052  26.585  54.655  1.00  0.00    -0.247 OA
HETATM    5  H   UNL     1       5.811  23.757  54.059  1.00  0.00     0.165 HD
HETATM    6  H   UNL     1       4.332  25.276  53.852  1.00  0.00     0.164 HD
ENDROOT
BRANCH   3   7
HETATM    7  C   UNL     1       4.573  27.334  53.555  1.00  0.00     0.163 C 
BRANCH   7   8
HETATM    8  C   UNL     1       4.812  27.789  52.140  1.00  0.00    -0.035 A 
HETATM    9  C   UNL     1       4.601  26.915  51.070  1.00  0.00     0.066 A 
HETATM   10  C   UNL     1       4.925  27.342  49.794  1.00  0.00     0.164 A 
HETATM   11  N   UNL     1       5.424  28.563  49.508  1.00  0.00    -0.237 NA
HETATM   12  C   UNL     1       5.607  29.396  50.553  1.00  0.00     0.120 A 
HETATM   13  C   UNL     1       5.328  29.060  51.869  1.00  0.00     0.028 A 
BRANCH  10  14
HETATM   14  O   UNL     1       4.725  26.441  48.767  1.00  0.00    -0.329 OA
BRANCH  14  15
HETATM   15  C   UNL     1       3.754  26.831  47.773  1.00  0.00     0.130 C 
HETATM   16  C   UNL     1       2.940  25.683  47.116  1.00  0.00     0.032 C 
HETATM   17  C   UNL     1       1.703  26.594  47.195  1.00  0.00     0.005 C 
HETATM   18  C   UNL     1       2.405  27.337  48.345  1.00  0.00     0.032 C 
ENDBRANCH  14  15
ENDBRANCH  10  14
ENDBRANCH   7   8
ENDBRANCH   3   7
BRANCH   1  19
HETATM   19  C   UNL     1       7.622  23.838  55.159  1.00  0.00     0.119 C 
BRANCH  19  20
HETATM   20  C   UNL     1       7.565  23.934  56.697  1.00  0.00     0.025 C 
HETATM   21  C   UNL     1       8.682  24.755  57.334  1.00  0.00     0.007 C 
ENDBRANCH  19  20
BRANCH  19  22
HETATM   22  C   UNL     1       7.944  22.432  54.676  1.00  0.00    -0.033 A 
HETATM   23  C   UNL     1       7.798  22.127  53.315  1.00  0.00     0.028 A 
HETATM   24  C   UNL     1       8.121  20.855  52.867  1.00  0.00     0.116 A 
HETATM   25  N   UNL     1       8.578  19.871  53.669  1.00  0.00    -0.273 NA
HETATM   26  C   UNL     1       8.705  20.173  54.977  1.00  0.00     0.116 A 
HETATM   27  C   UNL     1       8.409  21.416  55.519  1.00  0.00     0.028 A 
ENDBRANCH  19  22
ENDBRANCH   1  19
TORSDOF 7
ENDMDL
MODEL 4
REMARK VINA RESULT:      -8.0      1.483      2.071
REMARK  7 active torsions:
REMARK  status: ('A' for Active; 'I' for Inactive)
REMARK    1  A    between atoms: C_2  and  C_3 
REMARK    2  A    between atoms: C_3  and  N_4 
REMARK    3  A    between atoms: C_3  and  C_20 
REMARK       I    between atoms: N_4  and  C_5 
REMARK       I    between atoms: C_5  and  N_6 
REMARK    4  A    between atoms: N_6  and  C_7 
REMARK    5  A    between atoms: C_7  and  C_8 
REMARK    6  A    between atoms: C_10  and  O_11 
REMARK    7  A    between atoms: O_11  and  C_12 
ROOT
HETATM    1  N   UNL     1       6.483  24.143  54.803  1.00  0.00    -0.334 N 
HETATM    2  C   UNL     1       7.305  24.910  55.584  1.00  0.00     0.316 C 
HETATM    3  N   UNL     1       6.604  25.512  56.598  1.00  0.00    -0.339 N 
HETATM    4  O   UNL     1       8.509  25.033  55.412  1.00  0.00    -0.247 OA
HETATM    5  H   UNL     1       5.494  24.310  54.881  1.00  0.00     0.165 HD
HETATM    6  H   UNL     1       5.740  25.065  56.857  1.00  0.00     0.164 HD
ENDROOT
BRANCH   3   7
HETATM    7  C   UNL     1       7.294  26.219  57.655  1.00  0.00     0.163 C 
BRANCH   7   8
HETATM    8  C   UNL     1       6.982  27.690  57.583  1.00  0.00    -0.035 A 
HETATM    9  C   UNL     1       7.867  28.629  58.122  1.00  0.00     0.066 A 
HETATM   10  C   UNL     1       7.497  29.962  58.120  1.00  0.00     0.164 A 
HETATM   11  N   UNL     1       6.333  30.425  57.616  1.00  0.00    -0.237 NA
HETATM   12  C   UNL     1       5.501  29.505  57.088  1.00  0.00     0.120 A 
HETATM   13  C   UNL     1       5.770  28.145  57.054  1.00  0.00     0.028 A 
BRANCH  10  14
HETATM   14  O   UNL     1       8.387  30.855  58.684  1.00  0.00    -0.329 OA
BRANCH  14  15
HETATM   15  C   UNL     1       8.175  31.152  60.080  1.00  0.00     0.130 C 
HETATM   16  C   UNL     1       9.209  30.562  61.077  1.00  0.00     0.032 C 
HETATM   17  C   UNL     1       9.145  31.895  61.842  1.00  0.00     0.005 C 
HETATM   18  C   UNL     1       8.674  32.549  60.531  1.00  0.00     0.032 C 
ENDBRANCH  14  15
ENDBRANCH  10  14
ENDBRANCH   7   8
ENDBRANCH   3   7
BRANCH   1  19
HETATM   19  C   UNL     1       6.963  23.441  53.622  1.00  0.00     0.119 C 
BRANCH  19  20
HETATM   20  C   UNL     1       7.876  24.361  52.784  1.00  0.00     0.025 C 
HETATM   21  C   UNL     1       7.144  25.332  51.864  1.00  0.00     0.007 C 
ENDBRANCH  19  20
BRANCH  19  22
HETATM   22  C   UNL     1       7.619  22.106  53.942  1.00  0.00    -0.033 A 
HETATM   23  C   UNL     1       8.165  21.347  52.897  1.00  0.00     0.028 A 
HETATM   24  C   UNL     1       8.791  20.144  53.190  1.00  0.00     0.116 A 
HETATM   25  N   UNL     1       8.915  19.647  54.437  1.00  0.00    -0.273 NA
HETATM   26  C   UNL     1       8.378  20.382  55.432  1.00  0.00     0.116 A 
HETATM   27  C   UNL     1       7.734  21.596  55.240  1.00  0.00     0.028 A 
ENDBRANCH  19  22
ENDBRANCH   1  19
TORSDOF 7
ENDMDL
MODEL 5
REMARK VINA RESULT:      -7.9      2.664     10.130
REMARK  7 active torsions:
REMARK  status: ('A' for Active; 'I' for Inactive)
REMARK    1  A    between atoms: C_2  and  C_3 
REMARK    2  A    between atoms: C_3  and  N_4 
REMARK    3  A    between atoms: C_3  and  C_20 
REMARK       I    between atoms: N_4  and  C_5 
REMARK       I    between atoms: C_5  and  N_6 
REMARK    4  A    between atoms: N_6  and  C_7 
REMARK    5  A    between atoms: C_7  and  C_8 
REMARK    6  A    between atoms: C_10  and  O_11 
REMARK    7  A    between atoms: O_11  and  C_12 
ROOT
HETATM    1  N   UNL     1       6.928  31.211  59.427  1.00  0.00    -0.334 N 
HETATM    2  C   UNL     1       7.512  30.235  58.666  1.00  0.00     0.316 C 
HETATM    3  N   UNL     1       6.853  30.077  57.473  1.00  0.00    -0.339 N 
HETATM    4  O   UNL     1       8.500  29.595  58.996  1.00  0.00    -0.247 OA
HETATM    5  H   UNL     1       5.996  31.490  59.174  1.00  0.00     0.165 HD
HETATM    6  H   UNL     1       6.317  30.871  57.162  1.00  0.00     0.164 HD
ENDROOT
BRANCH   3   7
HETATM    7  C   UNL     1       7.400  29.234  56.432  1.00  0.00     0.163 C 
BRANCH   7   8
HETATM    8  C   UNL     1       6.838  27.843  56.545  1.00  0.00    -0.035 A 
HETATM    9  C   UNL     1       7.628  26.733  56.230  1.00  0.00     0.066 A 
HETATM   10  C   UNL     1       7.044  25.478  56.255  1.00  0.00     0.164 A 
HETATM   11  N   UNL     1       5.754  25.249  56.578  1.00  0.00    -0.237 NA
HETATM   12  C   UNL     1       5.014  26.332  56.892  1.00  0.00     0.120 A 
HETATM   13  C   UNL     1       5.499  27.631  56.884  1.00  0.00     0.028 A 
BRANCH  10  14
HETATM   14  O   UNL     1       7.851  24.410  55.914  1.00  0.00    -0.329 OA
BRANCH  14  15
HETATM   15  C   UNL     1       7.339  23.546  54.876  1.00  0.00     0.130 C 
HETATM   16  C   UNL     1       7.363  24.113  53.431  1.00  0.00     0.032 C 
HETATM   17  C   UNL     1       7.799  22.718  52.953  1.00  0.00     0.005 C 
HETATM   18  C   UNL     1       8.338  22.472  54.373  1.00  0.00     0.032 C 
ENDBRANCH  14  15
ENDBRANCH  10  14
ENDBRANCH   7   8
ENDBRANCH   3   7
BRANCH   1  19
HETATM   19  C   UNL     1       7.396  31.539  60.766  1.00  0.00     0.119 C 
BRANCH  19  20
HETATM   20  C   UNL     1       8.629  32.464  60.694  1.00  0.00     0.025 C 
HETATM   21  C   UNL     1       9.872  31.938  61.404  1.00  0.00     0.007 C 
ENDBRANCH  19  20
BRANCH  19  22
HETATM   22  C   UNL     1       6.303  32.096  61.665  1.00  0.00    -0.033 A 
HETATM   23  C   UNL     1       5.067  32.443  61.101  1.00  0.00     0.028 A 
HETATM   24  C   UNL     1       4.058  32.921  61.925  1.00  0.00     0.116 A 
HETATM   25  N   UNL     1       4.188  33.076  63.258  1.00  0.00    -0.273 NA
HETATM   26  C   UNL     1       5.384  32.748  63.787  1.00  0.00     0.116 A 
HETATM   27  C   UNL     1       6.452  32.260  63.047  1.00  0.00     0.028 A 
ENDBRANCH  19  22
ENDBRANCH   1  19
TORSDOF 7
ENDMDL
MODEL 6
REMARK VINA RESULT:      -7.9      2.814      4.461
REMARK  7 active torsions:
REMARK  status: ('A' for Active; 'I' for Inactive)
REMARK    1  A    between atoms: C_2  and  C_3 
REMARK    2  A    between atoms: C_3  and  N_4 
REMARK    3  A    between atoms: C_3  and  C_20 
REMARK       I    between atoms: N_4  and  C_5 
REMARK       I    between atoms: C_5  and  N_6 
REMARK    4  A    between atoms: N_6  and  C_7 
REMARK    5  A    between atoms: C_7  and  C_8 
REMARK    6  A    between atoms: C_10  and  O_11 
REMARK    7  A    between atoms: O_11  and  C_12 
ROOT
HETATM    1  N   UNL     1       6.693  24.253  55.046  1.00  0.00    -0.334 N 
HETATM    2  C   UNL     1       6.425  25.091  53.998  1.00  0.00     0.316 C 
HETATM    3  N   UNL     1       5.088  25.390  53.933  1.00  0.00    -0.339 N 
HETATM    4  O   UNL     1       7.266  25.530  53.227  1.00  0.00    -0.247 OA
HETATM    5  H   UNL     1       5.913  23.766  55.452  1.00  0.00     0.165 HD
HETATM    6  H   UNL     1       4.575  25.286  54.793  1.00  0.00     0.164 HD
ENDROOT
BRANCH   3   7
HETATM    7  C   UNL     1       4.599  26.402  53.021  1.00  0.00     0.163 C 
BRANCH   7   8
HETATM    8  C   UNL     1       4.536  27.736  53.716  1.00  0.00    -0.035 A 
HETATM    9  C   UNL     1       5.206  27.935  54.928  1.00  0.00     0.066 A 
HETATM   10  C   UNL     1       5.044  29.145  55.580  1.00  0.00     0.164 A 
HETATM   11  N   UNL     1       4.286  30.160  55.117  1.00  0.00    -0.237 NA
HETATM   12  C   UNL     1       3.660  29.953  53.940  1.00  0.00     0.120 A 
HETATM   13  C   UNL     1       3.746  28.774  53.215  1.00  0.00     0.028 A 
BRANCH  10  14
HETATM   14  O   UNL     1       5.702  29.293  56.786  1.00  0.00    -0.329 OA
BRANCH  14  15
HETATM   15  C   UNL     1       6.988  28.645  56.880  1.00  0.00     0.130 C 
HETATM   16  C   UNL     1       8.143  29.278  56.058  1.00  0.00     0.032 C 
HETATM   17  C   UNL     1       9.067  29.007  57.258  1.00  0.00     0.005 C 
HETATM   18  C   UNL     1       7.809  29.011  58.144  1.00  0.00     0.032 C 
ENDBRANCH  14  15
ENDBRANCH  10  14
ENDBRANCH   7   8
ENDBRANCH   3   7
BRANCH   1  19
HETATM   19  C   UNL     1       8.028  23.735  55.306  1.00  0.00     0.119 C 
BRANCH  19  20
HETATM   20  C   UNL     1       8.372  23.859  56.805  1.00  0.00     0.025 C 
HETATM   21  C   UNL     1       8.545  25.288  57.310  1.00  0.00     0.007 C 
ENDBRANCH  19  20
BRANCH  19  22
HETATM   22  C   UNL     1       8.238  22.323  54.777  1.00  0.00    -0.033 A 
HETATM   23  C   UNL     1       8.086  22.079  53.404  1.00  0.00     0.028 A 
HETATM   24  C   UNL     1       8.307  20.800  52.916  1.00  0.00     0.116 A 
HETATM   25  N   UNL     1       8.669  19.755  53.687  1.00  0.00    -0.273 NA
HETATM   26  C   UNL     1       8.804  20.000  55.006  1.00  0.00     0.116 A 
HETATM   27  C   UNL     1       8.605  21.244  55.588  1.00  0.00     0.028 A 
ENDBRANCH  19  22
ENDBRANCH   1  19
TORSDOF 7
ENDMDL
MODEL 7
REMARK VINA RESULT:      -7.8      4.714      7.554
REMARK  7 active torsions:
REMARK  status: ('A' for Active; 'I' for Inactive)
REMARK    1  A    between atoms: C_2  and  C_3 
REMARK    2  A    between atoms: C_3  and  N_4 
REMARK    3  A    between atoms: C_3  and  C_20 
REMARK       I    between atoms: N_4  and  C_5 
REMARK       I    between atoms: C_5  and  N_6 
REMARK    4  A    between atoms: N_6  and  C_7 
REMARK    5  A    between atoms: C_7  and  C_8 
REMARK    6  A    between atoms: C_10  and  O_11 
REMARK    7  A    between atoms: O_11  and  C_12 
ROOT
HETATM    1  N   UNL     1       7.958  29.855  59.252  1.00  0.00    -0.334 N 
HETATM    2  C   UNL     1       8.286  31.009  59.910  1.00  0.00     0.316 C 
HETATM    3  N   UNL     1       8.166  30.857  61.268  1.00  0.00    -0.339 N 
HETATM    4  O   UNL     1       8.654  32.039  59.363  1.00  0.00    -0.247 OA
HETATM    5  H   UNL     1       7.441  29.166  59.771  1.00  0.00     0.165 HD
HETATM    6  H   UNL     1       8.221  29.911  61.608  1.00  0.00     0.164 HD
ENDROOT
BRANCH   3   7
HETATM    7  C   UNL     1       8.638  31.883  62.172  1.00  0.00     0.163 C 
BRANCH   7   8
HETATM    8  C   UNL     1       7.511  32.354  63.053  1.00  0.00    -0.035 A 
HETATM    9  C   UNL     1       6.184  32.239  62.626  1.00  0.00     0.066 A 
HETATM   10  C   UNL     1       5.186  32.771  63.424  1.00  0.00     0.164 A 
HETATM   11  N   UNL     1       5.407  33.389  64.603  1.00  0.00    -0.237 NA
HETATM   12  C   UNL     1       6.692  33.477  65.002  1.00  0.00     0.120 A 
HETATM   13  C   UNL     1       7.766  32.989  64.271  1.00  0.00     0.028 A 
BRANCH  10  14
HETATM   14  O   UNL     1       3.891  32.659  62.957  1.00  0.00    -0.329 OA
BRANCH  14  15
HETATM   15  C   UNL     1       3.284  33.886  62.497  1.00  0.00     0.130 C 
HETATM   16  C   UNL     1       2.576  33.831  61.116  1.00  0.00     0.032 C 
HETATM   17  C   UNL     1       1.466  34.711  61.716  1.00  0.00     0.005 C 
HETATM   18  C   UNL     1       1.886  34.185  63.099  1.00  0.00     0.032 C 
ENDBRANCH  14  15
ENDBRANCH  10  14
ENDBRANCH   7   8
ENDBRANCH   3   7
BRANCH   1  19
HETATM   19  C   UNL     1       7.945  29.763  57.800  1.00  0.00     0.119 C 
BRANCH  19  20
HETATM   20  C   UNL     1       9.165  28.963  57.300  1.00  0.00     0.025 C 
HETATM   21  C   UNL     1      10.358  29.809  56.867  1.00  0.00     0.007 C 
ENDBRANCH  19  20
BRANCH  19  22
HETATM   22  C   UNL     1       6.633  29.231  57.243  1.00  0.00    -0.033 A 
HETATM   23  C   UNL     1       5.488  30.038  57.305  1.00  0.00     0.028 A 
HETATM   24  C   UNL     1       4.298  29.567  56.769  1.00  0.00     0.116 A 
HETATM   25  N   UNL     1       4.166  28.362  56.179  1.00  0.00    -0.273 NA
HETATM   26  C   UNL     1       5.272  27.591  56.134  1.00  0.00     0.116 A 
HETATM   27  C   UNL     1       6.506  27.974  56.640  1.00  0.00     0.028 A 
ENDBRANCH  19  22
ENDBRANCH   1  19
TORSDOF 7
ENDMDL
MODEL 8
REMARK VINA RESULT:      -7.8      4.039      7.445
REMARK  7 active torsions:
REMARK  status: ('A' for Active; 'I' for Inactive)
REMARK    1  A    between atoms: C_2  and  C_3 
REMARK    2  A    between atoms: C_3  and  N_4 
REMARK    3  A    between atoms: C_3  and  C_20 
REMARK       I    between atoms: N_4  and  C_5 
REMARK       I    between atoms: C_5  and  N_6 
REMARK    4  A    between atoms: N_6  and  C_7 
REMARK    5  A    between atoms: C_7  and  C_8 
REMARK    6  A    between atoms: C_10  and  O_11 
REMARK    7  A    between atoms: O_11  and  C_12 
ROOT
HETATM    1  N   UNL     1       8.223  29.785  59.492  1.00  0.00    -0.334 N 
HETATM    2  C   UNL     1       8.351  31.000  60.109  1.00  0.00     0.316 C 
HETATM    3  N   UNL     1       8.269  30.874  61.472  1.00  0.00    -0.339 N 
HETATM    4  O   UNL     1       8.531  32.059  59.525  1.00  0.00    -0.247 OA
HETATM    5  H   UNL     1       7.837  29.034  60.039  1.00  0.00     0.165 HD
HETATM    6  H   UNL     1       8.489  29.964  61.841  1.00  0.00     0.164 HD
ENDROOT
BRANCH   3   7
HETATM    7  C   UNL     1       8.561  31.996  62.338  1.00  0.00     0.163 C 
BRANCH   7   8
HETATM    8  C   UNL     1       7.319  32.419  63.075  1.00  0.00    -0.035 A 
HETATM    9  C   UNL     1       7.398  33.333  64.130  1.00  0.00     0.066 A 
HETATM   10  C   UNL     1       6.246  33.620  64.842  1.00  0.00     0.164 A 
HETATM   11  N   UNL     1       5.037  33.084  64.576  1.00  0.00    -0.237 NA
HETATM   12  C   UNL     1       4.980  32.216  63.545  1.00  0.00     0.120 A 
HETATM   13  C   UNL     1       6.077  31.850  62.779  1.00  0.00     0.028 A 
BRANCH  10  14
HETATM   14  O   UNL     1       6.371  34.508  65.893  1.00  0.00    -0.329 OA
BRANCH  14  15
HETATM   15  C   UNL     1       6.232  33.938  67.212  1.00  0.00     0.130 C 
HETATM   16  C   UNL     1       6.949  34.689  68.367  1.00  0.00     0.032 C 
HETATM   17  C   UNL     1       5.711  34.412  69.237  1.00  0.00     0.005 C 
HETATM   18  C   UNL     1       4.904  34.285  67.934  1.00  0.00     0.032 C 
ENDBRANCH  14  15
ENDBRANCH  10  14
ENDBRANCH   7   8
ENDBRANCH   3   7
BRANCH   1  19
HETATM   19  C   UNL     1       8.216  29.644  58.044  1.00  0.00     0.119 C 
BRANCH  19  20
HETATM   20  C   UNL     1       9.641  29.361  57.523  1.00  0.00     0.025 C 
HETATM   21  C   UNL     1       9.867  29.694  56.052  1.00  0.00     0.007 C 
ENDBRANCH  19  20
BRANCH  19  22
HETATM   22  C   UNL     1       7.202  28.626  57.544  1.00  0.00    -0.033 A 
HETATM   23  C   UNL     1       7.533  27.263  57.570  1.00  0.00     0.028 A 
HETATM   24  C   UNL     1       6.599  26.331  57.145  1.00  0.00     0.116 A 
HETATM   25  N   UNL     1       5.367  26.653  56.701  1.00  0.00    -0.273 NA
HETATM   26  C   UNL     1       5.063  27.966  56.672  1.00  0.00     0.116 A 
HETATM   27  C   UNL     1       5.929  28.972  57.077  1.00  0.00     0.028 A 
ENDBRANCH  19  22
ENDBRANCH   1  19
TORSDOF 7
ENDMDL
MODEL 9
REMARK VINA RESULT:      -7.7      4.103      5.556
REMARK  7 active torsions:
REMARK  status: ('A' for Active; 'I' for Inactive)
REMARK    1  A    between atoms: C_2  and  C_3 
REMARK    2  A    between atoms: C_3  and  N_4 
REMARK    3  A    between atoms: C_3  and  C_20 
REMARK       I    between atoms: N_4  and  C_5 
REMARK       I    between atoms: C_5  and  N_6 
REMARK    4  A    between atoms: N_6  and  C_7 
REMARK    5  A    between atoms: C_7  and  C_8 
REMARK    6  A    between atoms: C_10  and  O_11 
REMARK    7  A    between atoms: O_11  and  C_12 
ROOT
HETATM    1  N   UNL     1       6.619  24.306  53.726  1.00  0.00    -0.334 N 
HETATM    2  C   UNL     1       6.617  24.906  52.496  1.00  0.00     0.316 C 
HETATM    3  N   UNL     1       5.337  25.108  52.046  1.00  0.00    -0.339 N 
HETATM    4  O   UNL     1       7.622  25.234  51.882  1.00  0.00    -0.247 OA
HETATM    5  H   UNL     1       5.765  23.864  54.019  1.00  0.00     0.165 HD
HETATM    6  H   UNL     1       4.625  25.145  52.757  1.00  0.00     0.164 HD
ENDROOT
BRANCH   3   7
HETATM    7  C   UNL     1       5.086  25.893  50.856  1.00  0.00     0.163 C 
BRANCH   7   8
HETATM    8  C   UNL     1       5.032  27.357  51.205  1.00  0.00    -0.035 A 
HETATM    9  C   UNL     1       4.526  27.772  52.441  1.00  0.00     0.066 A 
HETATM   10  C   UNL     1       4.405  29.129  52.682  1.00  0.00     0.164 A 
HETATM   11  N   UNL     1       4.757  30.090  51.802  1.00  0.00    -0.237 NA
HETATM   12  C   UNL     1       5.256  29.668  50.622  1.00  0.00     0.120 A 
HETATM   13  C   UNL     1       5.405  28.333  50.277  1.00  0.00     0.028 A 
BRANCH  10  14
HETATM   14  O   UNL     1       3.878  29.499  53.904  1.00  0.00    -0.329 OA
BRANCH  14  15
HETATM   15  C   UNL     1       4.324  28.723  55.037  1.00  0.00     0.130 C 
HETATM   16  C   UNL     1       5.792  28.946  55.491  1.00  0.00     0.032 C 
HETATM   17  C   UNL     1       5.292  28.876  56.944  1.00  0.00     0.005 C 
HETATM   18  C   UNL     1       3.907  29.292  56.419  1.00  0.00     0.032 C 
ENDBRANCH  14  15
ENDBRANCH  10  14
ENDBRANCH   7   8
ENDBRANCH   3   7
BRANCH   1  19
HETATM   19  C   UNL     1       7.849  23.927  54.405  1.00  0.00     0.119 C 
BRANCH  19  20
HETATM   20  C   UNL     1       7.809  24.374  55.881  1.00  0.00     0.025 C 
HETATM   21  C   UNL     1       6.445  24.842  56.377  1.00  0.00     0.007 C 
ENDBRANCH  19  20
BRANCH  19  22
HETATM   22  C   UNL     1       8.188  22.451  54.253  1.00  0.00    -0.033 A 
HETATM   23  C   UNL     1       8.572  21.720  55.386  1.00  0.00     0.028 A 
HETATM   24  C   UNL     1       8.851  20.367  55.256  1.00  0.00     0.116 A 
HETATM   25  N   UNL     1       8.774  19.694  54.090  1.00  0.00    -0.273 NA
HETATM   26  C   UNL     1       8.413  20.411  53.006  1.00  0.00     0.116 A 
HETATM   27  C   UNL     1       8.113  21.765  53.036  1.00  0.00     0.028 A 
ENDBRANCH  19  22
ENDBRANCH   1  19
TORSDOF 7
ENDMDL
MODEL 10
REMARK VINA RESULT:      -7.6      5.286      8.809
REMARK  7 active torsions:
REMARK  status: ('A' for Active; 'I' for Inactive)
REMARK    1  A    between atoms: C_2  and  C_3 
REMARK    2  A    between atoms: C_3  and  N_4 
REMARK    3  A    between atoms: C_3  and  C_20 
REMARK       I    between atoms: N_4  and  C_5 
REMARK       I    between atoms: C_5  and  N_6 
REMARK    4  A    between atoms: N_6  and  C_7 
REMARK    5  A    between atoms: C_7  and  C_8 
REMARK    6  A    between atoms: C_10  and  O_11 
REMARK    7  A    between atoms: O_11  and  C_12 
ROOT
HETATM    1  N   UNL     1       6.387  24.433  53.705  1.00  0.00    -0.334 N 
HETATM    2  C   UNL     1       6.750  25.125  52.581  1.00  0.00     0.316 C 
HETATM    3  N   UNL     1       5.655  25.432  51.814  1.00  0.00    -0.339 N 
HETATM    4  O   UNL     1       7.897  25.442  52.301  1.00  0.00    -0.247 OA
HETATM    5  H   UNL     1       5.471  24.017  53.709  1.00  0.00     0.165 HD
HETATM    6  H   UNL     1       4.773  25.454  52.300  1.00  0.00     0.164 HD
ENDROOT
BRANCH   3   7
HETATM    7  C   UNL     1       5.773  26.318  50.677  1.00  0.00     0.163 C 
BRANCH   7   8
HETATM    8  C   UNL     1       4.666  27.337  50.698  1.00  0.00    -0.035 A 
HETATM    9  C   UNL     1       4.081  27.772  49.504  1.00  0.00     0.066 A 
HETATM   10  C   UNL     1       3.133  28.780  49.562  1.00  0.00     0.164 A 
HETATM   11  N   UNL     1       2.722  29.368  50.704  1.00  0.00    -0.237 NA
HETATM   12  C   UNL     1       3.288  28.924  51.845  1.00  0.00     0.120 A 
HETATM   13  C   UNL     1       4.255  27.931  51.895  1.00  0.00     0.028 A 
BRANCH  10  14
HETATM   14  O   UNL     1       2.598  29.199  48.360  1.00  0.00    -0.329 OA
BRANCH  14  15
HETATM   15  C   UNL     1       1.271  28.714  48.063  1.00  0.00     0.130 C 
HETATM   16  C   UNL     1       0.736  28.995  46.633  1.00  0.00     0.032 C 
HETATM   17  C   UNL     1       0.139  27.578  46.640  1.00  0.00     0.005 C 
HETATM   18  C   UNL     1       1.195  27.209  47.696  1.00  0.00     0.032 C 
ENDBRANCH  14  15
ENDBRANCH  10  14
ENDBRANCH   7   8
ENDBRANCH   3   7
BRANCH   1  19
HETATM   19  C   UNL     1       7.364  23.935  54.661  1.00  0.00     0.119 C 
BRANCH  19  20
HETATM   20  C   UNL     1       6.857  24.137  56.104  1.00  0.00     0.025 C 
HETATM   21  C   UNL     1       5.798  25.222  56.270  1.00  0.00     0.007 C 
ENDBRANCH  19  20
BRANCH  19  22
HETATM   22  C   UNL     1       7.791  22.499  54.391  1.00  0.00    -0.033 A 
HETATM   23  C   UNL     1       8.018  21.639  55.476  1.00  0.00     0.028 A 
HETATM   24  C   UNL     1       8.377  20.322  55.231  1.00  0.00     0.116 A 
HETATM   25  N   UNL     1       8.523  19.802  53.996  1.00  0.00    -0.273 NA
HETATM   26  C   UNL     1       8.311  20.641  52.961  1.00  0.00     0.116 A 
HETATM   27  C   UNL     1       7.949  21.972  53.105  1.00  0.00     0.028 A 
ENDBRANCH  19  22
ENDBRANCH   1  19
TORSDOF 7
ENDMDL
