MODEL 1
REMARK VINA RESULT:     -10.2      0.000      0.000
REMARK  4 active torsions:
REMARK  status: ('A' for Active; 'I' for Inactive)
REMARK    1  A    between atoms: C_3  and  C_4 
REMARK    2  A    between atoms: C_14  and  N_15 
REMARK       I    between atoms: N_15  and  C_16 
REMARK    3  A    between atoms: C_16  and  C_17 
REMARK    4  A    between atoms: C_20  and  N_21 
ROOT
HETATM    1  N   UNL     1       6.602  33.571  63.984  1.00  0.00    -0.322 N 
HETATM    2  C   UNL     1       6.017  32.495  63.344  1.00  0.00     0.256 C 
HETATM    3  O   UNL     1       5.013  31.893  63.702  1.00  0.00    -0.267 OA
HETATM    4  H   UNL     1       7.526  33.850  63.674  1.00  0.00     0.169 HD
ENDROOT
BRANCH   1   5
HETATM    5  C   UNL     1       6.051  34.330  65.049  1.00  0.00     0.049 A 
HETATM    6  C   UNL     1       5.194  35.415  64.759  1.00  0.00     0.037 A 
HETATM    7  C   UNL     1       4.533  36.078  65.806  1.00  0.00     0.017 A 
HETATM    8  C   UNL     1       4.748  35.705  67.132  1.00  0.00     0.001 A 
HETATM    9  C   UNL     1       5.626  34.666  67.422  1.00  0.00     0.002 A 
HETATM   10  C   UNL     1       6.271  33.981  66.388  1.00  0.00     0.030 A 
BRANCH   6  11
HETATM   11  C   UNL     1       5.017  35.940  63.404  1.00  0.00     0.141 A 
HETATM   12  N   UNL     1       4.364  35.371  62.411  1.00  0.00    -0.228 NA
HETATM   13  C   UNL     1       4.448  36.245  61.355  1.00  0.00     0.086 A 
HETATM   14  C   UNL     1       5.159  37.385  61.710  1.00  0.00     0.062 A 
HETATM   15  C   UNL     1       3.938  36.134  60.053  1.00  0.00     0.034 A 
HETATM   16  N   UNL     1       5.482  37.180  63.025  1.00  0.00    -0.338 N 
HETATM   17  C   UNL     1       5.407  38.442  60.832  1.00  0.00     0.032 A 
HETATM   18  H   UNL     1       5.973  37.825  63.628  1.00  0.00     0.167 HD
HETATM   19  C   UNL     1       4.896  38.311  59.536  1.00  0.00     0.002 A 
HETATM   20  C   UNL     1       4.172  37.179  59.150  1.00  0.00     0.002 A 
ENDBRANCH   6  11
ENDBRANCH   1   5
BRANCH   2  21
HETATM   21  C   UNL     1       6.757  32.003  62.151  1.00  0.00     0.032 A 
HETATM   22  C   UNL     1       6.327  32.277  60.853  1.00  0.00     0.019 A 
HETATM   23  C   UNL     1       7.045  31.778  59.755  1.00  0.00     0.031 A 
HETATM   24  C   UNL     1       8.204  30.996  59.912  1.00  0.00     0.045 A 
HETATM   25  C   UNL     1       8.607  30.730  61.233  1.00  0.00     0.031 A 
HETATM   26  C   UNL     1       7.893  31.218  62.338  1.00  0.00     0.019 A 
BRANCH  24  27
HETATM   27  N   UNL     1       8.926  30.482  58.783  1.00  0.00    -0.252 N 
HETATM   28  C   UNL     1       8.636  29.296  58.139  1.00  0.00     0.231 C 
HETATM   29  O   UNL     1       7.701  28.524  58.306  1.00  0.00    -0.273 OA
HETATM   30  C   UNL     1       9.701  29.014  57.123  1.00  0.00     0.113 C 
HETATM   31  C   UNL     1      10.409  30.331  56.968  1.00  0.00     0.113 C 
HETATM   32  C   UNL     1      10.001  31.107  58.183  1.00  0.00     0.231 C 
HETATM   33  O   UNL     1      10.583  32.137  58.498  1.00  0.00    -0.273 OA
ENDBRANCH  24  27
ENDBRANCH   2  21
TORSDOF 4
ENDMDL
MODEL 2
REMARK VINA RESULT:     -10.1      0.968      1.552
REMARK  4 active torsions:
REMARK  status: ('A' for Active; 'I' for Inactive)
REMARK    1  A    between atoms: C_3  and  C_4 
REMARK    2  A    between atoms: C_14  and  N_15 
REMARK       I    between atoms: N_15  and  C_16 
REMARK    3  A    between atoms: C_16  and  C_17 
REMARK    4  A    between atoms: C_20  and  N_21 
ROOT
HETATM    1  N   UNL     1       6.442  33.484  63.955  1.00  0.00    -0.322 N 
HETATM    2  C   UNL     1       5.911  32.379  63.316  1.00  0.00     0.256 C 
HETATM    3  O   UNL     1       4.935  31.731  63.673  1.00  0.00    -0.267 OA
HETATM    4  H   UNL     1       7.352  33.805  63.646  1.00  0.00     0.169 HD
ENDROOT
BRANCH   1   5
HETATM    5  C   UNL     1       5.851  34.219  65.015  1.00  0.00     0.049 A 
HETATM    6  C   UNL     1       4.666  34.951  64.778  1.00  0.00     0.037 A 
HETATM    7  C   UNL     1       4.000  35.562  65.854  1.00  0.00     0.017 A 
HETATM    8  C   UNL     1       4.519  35.490  67.145  1.00  0.00     0.001 A 
HETATM    9  C   UNL     1       5.710  34.808  67.372  1.00  0.00     0.002 A 
HETATM   10  C   UNL     1       6.370  34.174  66.316  1.00  0.00     0.030 A 
BRANCH   6  11
HETATM   11  C   UNL     1       4.131  35.173  63.434  1.00  0.00     0.141 A 
HETATM   12  N   UNL     1       4.794  35.592  62.375  1.00  0.00    -0.228 NA
HETATM   13  C   UNL     1       3.883  35.618  61.346  1.00  0.00     0.086 A 
HETATM   14  C   UNL     1       2.634  35.193  61.780  1.00  0.00     0.062 A 
HETATM   15  C   UNL     1       4.051  35.995  60.006  1.00  0.00     0.034 A 
HETATM   16  N   UNL     1       2.825  34.887  63.101  1.00  0.00    -0.338 N 
HETATM   17  C   UNL     1       1.513  35.124  60.949  1.00  0.00     0.032 A 
HETATM   18  H   UNL     1       2.135  34.508  63.733  1.00  0.00     0.167 HD
HETATM   19  C   UNL     1       1.699  35.510  59.617  1.00  0.00     0.002 A 
HETATM   20  C   UNL     1       2.945  35.936  59.149  1.00  0.00     0.002 A 
ENDBRANCH   6  11
ENDBRANCH   1   5
BRANCH   2  21
HETATM   21  C   UNL     1       6.677  31.919  62.127  1.00  0.00     0.032 A 
HETATM   22  C   UNL     1       6.247  32.181  60.827  1.00  0.00     0.019 A 
HETATM   23  C   UNL     1       6.991  31.712  59.733  1.00  0.00     0.031 A 
HETATM   24  C   UNL     1       8.178  30.973  59.897  1.00  0.00     0.045 A 
HETATM   25  C   UNL     1       8.581  30.719  61.219  1.00  0.00     0.031 A 
HETATM   26  C   UNL     1       7.840  31.176  62.321  1.00  0.00     0.019 A 
BRANCH  24  27
HETATM   27  N   UNL     1       8.927  30.490  58.771  1.00  0.00    -0.252 N 
HETATM   28  C   UNL     1       8.660  29.316  58.096  1.00  0.00     0.231 C 
HETATM   29  O   UNL     1       7.728  28.534  58.226  1.00  0.00    -0.273 OA
HETATM   30  C   UNL     1       9.748  29.066  57.096  1.00  0.00     0.113 C 
HETATM   31  C   UNL     1      10.448  30.391  56.985  1.00  0.00     0.113 C 
HETATM   32  C   UNL     1      10.009  31.136  58.208  1.00  0.00     0.231 C 
HETATM   33  O   UNL     1      10.576  32.164  58.558  1.00  0.00    -0.273 OA
ENDBRANCH  24  27
ENDBRANCH   2  21
TORSDOF 4
ENDMDL
MODEL 3
REMARK VINA RESULT:      -9.7      8.466     12.752
REMARK  4 active torsions:
REMARK  status: ('A' for Active; 'I' for Inactive)
REMARK    1  A    between atoms: C_3  and  C_4 
REMARK    2  A    between atoms: C_14  and  N_15 
REMARK       I    between atoms: N_15  and  C_16 
REMARK    3  A    between atoms: C_16  and  C_17 
REMARK    4  A    between atoms: C_20  and  N_21 
ROOT
HETATM    1  N   UNL     1       6.718  24.713  52.646  1.00  0.00    -0.322 N 
HETATM    2  C   UNL     1       5.396  24.966  52.335  1.00  0.00     0.256 C 
HETATM    3  O   UNL     1       4.442  24.229  52.553  1.00  0.00    -0.267 OA
HETATM    4  H   UNL     1       7.416  25.329  52.245  1.00  0.00     0.169 HD
ENDROOT
BRANCH   1   5
HETATM    5  C   UNL     1       7.213  23.667  53.467  1.00  0.00     0.049 A 
HETATM    6  C   UNL     1       7.223  23.829  54.871  1.00  0.00     0.037 A 
HETATM    7  C   UNL     1       7.576  22.746  55.693  1.00  0.00     0.017 A 
HETATM    8  C   UNL     1       7.960  21.526  55.137  1.00  0.00     0.001 A 
HETATM    9  C   UNL     1       7.994  21.380  53.755  1.00  0.00     0.002 A 
HETATM   10  C   UNL     1       7.621  22.441  52.925  1.00  0.00     0.030 A 
BRANCH   6  11
HETATM   11  C   UNL     1       6.953  25.113  55.518  1.00  0.00     0.141 A 
HETATM   12  N   UNL     1       5.801  25.753  55.563  1.00  0.00    -0.228 NA
HETATM   13  C   UNL     1       6.031  26.891  56.297  1.00  0.00     0.086 A 
HETATM   14  C   UNL     1       7.351  26.946  56.726  1.00  0.00     0.062 A 
HETATM   15  C   UNL     1       5.154  27.929  56.644  1.00  0.00     0.034 A 
HETATM   16  N   UNL     1       7.907  25.792  56.244  1.00  0.00    -0.338 N 
HETATM   17  C   UNL     1       7.870  27.997  57.487  1.00  0.00     0.032 A 
HETATM   18  H   UNL     1       8.855  25.476  56.394  1.00  0.00     0.167 HD
HETATM   19  C   UNL     1       6.982  29.027  57.817  1.00  0.00     0.002 A 
HETATM   20  C   UNL     1       5.646  28.996  57.406  1.00  0.00     0.002 A 
ENDBRANCH   6  11
ENDBRANCH   1   5
BRANCH   2  21
HETATM   21  C   UNL     1       5.163  26.232  51.590  1.00  0.00     0.032 A 
HETATM   22  C   UNL     1       5.004  26.253  50.205  1.00  0.00     0.019 A 
HETATM   23  C   UNL     1       4.804  27.472  49.538  1.00  0.00     0.031 A 
HETATM   24  C   UNL     1       4.756  28.700  50.224  1.00  0.00     0.045 A 
HETATM   25  C   UNL     1       4.926  28.647  51.618  1.00  0.00     0.031 A 
HETATM   26  C   UNL     1       5.135  27.434  52.294  1.00  0.00     0.019 A 
BRANCH  24  27
HETATM   27  N   UNL     1       4.560  29.943  49.533  1.00  0.00    -0.252 N 
HETATM   28  C   UNL     1       3.381  30.327  48.926  1.00  0.00     0.231 C 
HETATM   29  O   UNL     1       2.285  29.782  48.933  1.00  0.00    -0.273 OA
HETATM   30  C   UNL     1       3.609  31.600  48.169  1.00  0.00     0.113 C 
HETATM   31  C   UNL     1       4.911  32.117  48.716  1.00  0.00     0.113 C 
HETATM   32  C   UNL     1       5.520  30.924  49.387  1.00  0.00     0.231 C 
HETATM   33  O   UNL     1       6.695  30.928  49.734  1.00  0.00    -0.273 OA
ENDBRANCH  24  27
ENDBRANCH   2  21
TORSDOF 4
ENDMDL
MODEL 4
REMARK VINA RESULT:      -9.6      3.802      6.302
REMARK  4 active torsions:
REMARK  status: ('A' for Active; 'I' for Inactive)
REMARK    1  A    between atoms: C_3  and  C_4 
REMARK    2  A    between atoms: C_14  and  N_15 
REMARK       I    between atoms: N_15  and  C_16 
REMARK    3  A    between atoms: C_16  and  C_17 
REMARK    4  A    between atoms: C_20  and  N_21 
ROOT
HETATM    1  N   UNL     1       7.762  30.139  59.105  1.00  0.00    -0.322 N 
HETATM    2  C   UNL     1       8.685  29.756  58.151  1.00  0.00     0.256 C 
HETATM    3  O   UNL     1       9.829  30.177  58.034  1.00  0.00    -0.267 OA
HETATM    4  H   UNL     1       6.802  29.841  58.968  1.00  0.00     0.169 HD
ENDROOT
BRANCH   1   5
HETATM    5  C   UNL     1       8.009  30.921  60.263  1.00  0.00     0.049 A 
HETATM    6  C   UNL     1       7.192  32.041  60.533  1.00  0.00     0.037 A 
HETATM    7  C   UNL     1       7.339  32.732  61.748  1.00  0.00     0.017 A 
HETATM    8  C   UNL     1       8.314  32.352  62.669  1.00  0.00     0.001 A 
HETATM    9  C   UNL     1       9.149  31.277  62.383  1.00  0.00     0.002 A 
HETATM   10  C   UNL     1       8.997  30.565  61.190  1.00  0.00     0.030 A 
BRANCH   6  11
HETATM   11  C   UNL     1       6.235  32.572  59.562  1.00  0.00     0.141 A 
HETATM   12  N   UNL     1       6.284  32.449  58.250  1.00  0.00    -0.228 NA
HETATM   13  C   UNL     1       5.164  33.084  57.770  1.00  0.00     0.086 A 
HETATM   14  C   UNL     1       4.401  33.597  58.811  1.00  0.00     0.062 A 
HETATM   15  C   UNL     1       4.728  33.261  56.449  1.00  0.00     0.034 A 
HETATM   16  N   UNL     1       5.086  33.233  59.939  1.00  0.00    -0.338 N 
HETATM   17  C   UNL     1       3.208  34.299  58.618  1.00  0.00     0.032 A 
HETATM   18  H   UNL     1       4.804  33.406  60.893  1.00  0.00     0.167 HD
HETATM   19  C   UNL     1       2.793  34.472  57.293  1.00  0.00     0.002 A 
HETATM   20  C   UNL     1       3.536  33.961  56.225  1.00  0.00     0.002 A 
ENDBRANCH   6  11
ENDBRANCH   1   5
BRANCH   2  21
HETATM   21  C   UNL     1       8.172  28.796  57.137  1.00  0.00     0.032 A 
HETATM   22  C   UNL     1       8.285  29.039  55.769  1.00  0.00     0.019 A 
HETATM   23  C   UNL     1       7.771  28.115  54.846  1.00  0.00     0.031 A 
HETATM   24  C   UNL     1       7.132  26.928  55.252  1.00  0.00     0.045 A 
HETATM   25  C   UNL     1       7.027  26.716  56.638  1.00  0.00     0.031 A 
HETATM   26  C   UNL     1       7.531  27.637  57.570  1.00  0.00     0.019 A 
BRANCH  24  27
HETATM   27  N   UNL     1       6.601  25.994  54.300  1.00  0.00    -0.252 N 
HETATM   28  C   UNL     1       5.402  26.147  53.635  1.00  0.00     0.231 C 
HETATM   29  O   UNL     1       4.628  27.095  53.626  1.00  0.00    -0.273 OA
HETATM   30  C   UNL     1       5.108  24.899  52.859  1.00  0.00     0.113 C 
HETATM   31  C   UNL     1       6.425  24.177  52.823  1.00  0.00     0.113 C 
HETATM   32  C   UNL     1       7.221  24.822  53.917  1.00  0.00     0.231 C 
HETATM   33  O   UNL     1       8.261  24.316  54.321  1.00  0.00    -0.273 OA
ENDBRANCH  24  27
ENDBRANCH   2  21
TORSDOF 4
ENDMDL
MODEL 5
REMARK VINA RESULT:      -9.5      6.978     11.289
REMARK  4 active torsions:
REMARK  status: ('A' for Active; 'I' for Inactive)
REMARK    1  A    between atoms: C_3  and  C_4 
REMARK    2  A    between atoms: C_14  and  N_15 
REMARK       I    between atoms: N_15  and  C_16 
REMARK    3  A    between atoms: C_16  and  C_17 
REMARK    4  A    between atoms: C_20  and  N_21 
ROOT
HETATM    1  N   UNL     1       4.703  27.450  52.919  1.00  0.00    -0.322 N 
HETATM    2  C   UNL     1       5.620  26.792  52.122  1.00  0.00     0.256 C 
HETATM    3  O   UNL     1       5.897  27.057  50.959  1.00  0.00    -0.267 OA
HETATM    4  H   UNL     1       4.449  27.009  53.796  1.00  0.00     0.169 HD
ENDROOT
BRANCH   1   5
HETATM    5  C   UNL     1       4.061  28.683  52.637  1.00  0.00     0.049 A 
HETATM    6  C   UNL     1       4.382  29.827  53.403  1.00  0.00     0.037 A 
HETATM    7  C   UNL     1       3.859  31.078  53.036  1.00  0.00     0.017 A 
HETATM    8  C   UNL     1       2.991  31.196  51.952  1.00  0.00     0.001 A 
HETATM    9  C   UNL     1       2.638  30.064  51.225  1.00  0.00     0.002 A 
HETATM   10  C   UNL     1       3.171  28.817  51.563  1.00  0.00     0.030 A 
BRANCH   6  11
HETATM   11  C   UNL     1       5.185  29.757  54.624  1.00  0.00     0.141 A 
HETATM   12  N   UNL     1       6.020  28.798  54.972  1.00  0.00    -0.228 NA
HETATM   13  C   UNL     1       6.557  29.184  56.177  1.00  0.00     0.086 A 
HETATM   14  C   UNL     1       6.050  30.416  56.572  1.00  0.00     0.062 A 
HETATM   15  C   UNL     1       7.489  28.532  56.996  1.00  0.00     0.034 A 
HETATM   16  N   UNL     1       5.205  30.772  55.556  1.00  0.00    -0.338 N 
HETATM   17  C   UNL     1       6.414  31.051  57.762  1.00  0.00     0.032 A 
HETATM   18  H   UNL     1       4.684  31.634  55.485  1.00  0.00     0.167 HD
HETATM   19  C   UNL     1       7.340  30.382  58.570  1.00  0.00     0.002 A 
HETATM   20  C   UNL     1       7.872  29.144  58.195  1.00  0.00     0.002 A 
ENDBRANCH   6  11
ENDBRANCH   1   5
BRANCH   2  21
HETATM   21  C   UNL     1       6.253  25.602  52.752  1.00  0.00     0.032 A 
HETATM   22  C   UNL     1       7.294  24.909  52.136  1.00  0.00     0.019 A 
HETATM   23  C   UNL     1       7.850  23.779  52.757  1.00  0.00     0.031 A 
HETATM   24  C   UNL     1       7.393  23.309  54.002  1.00  0.00     0.045 A 
HETATM   25  C   UNL     1       6.338  24.025  54.594  1.00  0.00     0.031 A 
HETATM   26  C   UNL     1       5.769  25.150  53.978  1.00  0.00     0.019 A 
BRANCH  24  27
HETATM   27  N   UNL     1       7.963  22.147  54.625  1.00  0.00    -0.252 N 
HETATM   28  C   UNL     1       8.536  22.131  55.880  1.00  0.00     0.231 C 
HETATM   29  O   UNL     1       8.589  23.013  56.727  1.00  0.00    -0.273 OA
HETATM   30  C   UNL     1       9.166  20.792  56.116  1.00  0.00     0.113 C 
HETATM   31  C   UNL     1       8.564  19.918  55.051  1.00  0.00     0.113 C 
HETATM   32  C   UNL     1       8.007  20.890  54.056  1.00  0.00     0.231 C 
HETATM   33  O   UNL     1       7.654  20.520  52.944  1.00  0.00    -0.273 OA
ENDBRANCH  24  27
ENDBRANCH   2  21
TORSDOF 4
ENDMDL
MODEL 6
REMARK VINA RESULT:      -9.4      2.821      4.590
REMARK  4 active torsions:
REMARK  status: ('A' for Active; 'I' for Inactive)
REMARK    1  A    between atoms: C_3  and  C_4 
REMARK    2  A    between atoms: C_14  and  N_15 
REMARK       I    between atoms: N_15  and  C_16 
REMARK    3  A    between atoms: C_16  and  C_17 
REMARK    4  A    between atoms: C_20  and  N_21 
ROOT
HETATM    1  N   UNL     1       7.198  31.458  60.557  1.00  0.00    -0.322 N 
HETATM    2  C   UNL     1       8.111  31.507  59.520  1.00  0.00     0.256 C 
HETATM    3  O   UNL     1       8.924  32.398  59.307  1.00  0.00    -0.267 OA
HETATM    4  H   UNL     1       6.472  30.753  60.502  1.00  0.00     0.169 HD
ENDROOT
BRANCH   1   5
HETATM    5  C   UNL     1       7.159  32.303  61.696  1.00  0.00     0.049 A 
HETATM    6  C   UNL     1       6.162  33.300  61.789  1.00  0.00     0.037 A 
HETATM    7  C   UNL     1       6.029  34.041  62.975  1.00  0.00     0.017 A 
HETATM    8  C   UNL     1       6.899  33.834  64.045  1.00  0.00     0.001 A 
HETATM    9  C   UNL     1       7.909  32.885  63.937  1.00  0.00     0.002 A 
HETATM   10  C   UNL     1       8.037  32.122  62.773  1.00  0.00     0.030 A 
BRANCH   6  11
HETATM   11  C   UNL     1       5.296  33.656  60.665  1.00  0.00     0.141 A 
HETATM   12  N   UNL     1       5.086  32.953  59.570  1.00  0.00    -0.228 NA
HETATM   13  C   UNL     1       4.184  33.674  58.826  1.00  0.00     0.086 A 
HETATM   14  C   UNL     1       3.820  34.842  59.484  1.00  0.00     0.062 A 
HETATM   15  C   UNL     1       3.625  33.392  57.571  1.00  0.00     0.034 A 
HETATM   16  N   UNL     1       4.516  34.792  60.662  1.00  0.00    -0.338 N 
HETATM   17  C   UNL     1       2.921  35.773  58.958  1.00  0.00     0.032 A 
HETATM   18  H   UNL     1       4.469  35.465  61.413  1.00  0.00     0.167 HD
HETATM   19  C   UNL     1       2.378  35.478  57.703  1.00  0.00     0.002 A 
HETATM   20  C   UNL     1       2.720  34.307  57.019  1.00  0.00     0.002 A 
ENDBRANCH   6  11
ENDBRANCH   1   5
BRANCH   2  21
HETATM   21  C   UNL     1       8.008  30.388  58.546  1.00  0.00     0.032 A 
HETATM   22  C   UNL     1       9.133  29.706  58.086  1.00  0.00     0.019 A 
HETATM   23  C   UNL     1       8.993  28.668  57.152  1.00  0.00     0.031 A 
HETATM   24  C   UNL     1       7.737  28.277  56.650  1.00  0.00     0.045 A 
HETATM   25  C   UNL     1       6.623  28.989  57.128  1.00  0.00     0.031 A 
HETATM   26  C   UNL     1       6.752  30.035  58.055  1.00  0.00     0.019 A 
BRANCH  24  27
HETATM   27  N   UNL     1       7.605  27.220  55.688  1.00  0.00    -0.252 N 
HETATM   28  C   UNL     1       7.575  27.402  54.321  1.00  0.00     0.231 C 
HETATM   29  O   UNL     1       7.750  28.420  53.663  1.00  0.00    -0.273 OA
HETATM   30  C   UNL     1       7.259  26.096  53.657  1.00  0.00     0.113 C 
HETATM   31  C   UNL     1       7.498  25.076  54.735  1.00  0.00     0.113 C 
HETATM   32  C   UNL     1       7.497  25.880  56.000  1.00  0.00     0.231 C 
HETATM   33  O   UNL     1       7.428  25.333  57.094  1.00  0.00    -0.273 OA
ENDBRANCH  24  27
ENDBRANCH   2  21
TORSDOF 4
ENDMDL
MODEL 7
REMARK VINA RESULT:      -9.4      5.111     11.557
REMARK  4 active torsions:
REMARK  status: ('A' for Active; 'I' for Inactive)
REMARK    1  A    between atoms: C_3  and  C_4 
REMARK    2  A    between atoms: C_14  and  N_15 
REMARK       I    between atoms: N_15  and  C_16 
REMARK    3  A    between atoms: C_16  and  C_17 
REMARK    4  A    between atoms: C_20  and  N_21 
ROOT
HETATM    1  N   UNL     1       6.043  28.596  53.732  1.00  0.00    -0.322 N 
HETATM    2  C   UNL     1       5.160  28.883  54.755  1.00  0.00     0.256 C 
HETATM    3  O   UNL     1       3.952  28.682  54.753  1.00  0.00    -0.267 OA
HETATM    4  H   UNL     1       6.978  28.982  53.803  1.00  0.00     0.169 HD
ENDROOT
BRANCH   1   5
HETATM    5  C   UNL     1       5.779  27.821  52.573  1.00  0.00     0.049 A 
HETATM    6  C   UNL     1       5.954  26.419  52.618  1.00  0.00     0.037 A 
HETATM    7  C   UNL     1       5.558  25.634  51.523  1.00  0.00     0.017 A 
HETATM    8  C   UNL     1       5.036  26.226  50.374  1.00  0.00     0.001 A 
HETATM    9  C   UNL     1       4.905  27.610  50.311  1.00  0.00     0.002 A 
HETATM   10  C   UNL     1       5.271  28.401  51.403  1.00  0.00     0.030 A 
BRANCH   6  11
HETATM   11  C   UNL     1       6.609  25.742  53.738  1.00  0.00     0.141 A 
HETATM   12  N   UNL     1       7.229  26.308  54.755  1.00  0.00    -0.228 NA
HETATM   13  C   UNL     1       7.654  25.276  55.557  1.00  0.00     0.086 A 
HETATM   14  C   UNL     1       7.275  24.049  55.029  1.00  0.00     0.062 A 
HETATM   15  C   UNL     1       8.372  25.312  56.761  1.00  0.00     0.034 A 
HETATM   16  N   UNL     1       6.587  24.373  53.890  1.00  0.00    -0.338 N 
HETATM   17  C   UNL     1       7.579  22.825  55.631  1.00  0.00     0.032 A 
HETATM   18  H   UNL     1       6.130  23.727  53.263  1.00  0.00     0.167 HD
HETATM   19  C   UNL     1       8.301  22.880  56.828  1.00  0.00     0.002 A 
HETATM   20  C   UNL     1       8.691  24.100  57.388  1.00  0.00     0.002 A 
ENDBRANCH   6  11
ENDBRANCH   1   5
BRANCH   2  21
HETATM   21  C   UNL     1       5.765  29.577  55.924  1.00  0.00     0.032 A 
HETATM   22  C   UNL     1       5.430  30.889  56.255  1.00  0.00     0.019 A 
HETATM   23  C   UNL     1       6.038  31.513  57.355  1.00  0.00     0.031 A 
HETATM   24  C   UNL     1       6.992  30.856  58.155  1.00  0.00     0.045 A 
HETATM   25  C   UNL     1       7.314  29.537  57.791  1.00  0.00     0.031 A 
HETATM   26  C   UNL     1       6.718  28.906  56.688  1.00  0.00     0.019 A 
BRANCH  24  27
HETATM   27  N   UNL     1       7.615  31.506  59.273  1.00  0.00    -0.252 N 
HETATM   28  C   UNL     1       8.973  31.715  59.403  1.00  0.00     0.231 C 
HETATM   29  O   UNL     1       9.876  31.505  58.604  1.00  0.00    -0.273 OA
HETATM   30  C   UNL     1       9.258  32.266  60.767  1.00  0.00     0.113 C 
HETATM   31  C   UNL     1       7.913  32.721  61.261  1.00  0.00     0.113 C 
HETATM   32  C   UNL     1       6.941  32.016  60.365  1.00  0.00     0.231 C 
HETATM   33  O   UNL     1       5.748  31.974  60.639  1.00  0.00    -0.273 OA
ENDBRANCH  24  27
ENDBRANCH   2  21
TORSDOF 4
ENDMDL
MODEL 8
REMARK VINA RESULT:      -9.3      7.751     12.508
REMARK  4 active torsions:
REMARK  status: ('A' for Active; 'I' for Inactive)
REMARK    1  A    between atoms: C_3  and  C_4 
REMARK    2  A    between atoms: C_14  and  N_15 
REMARK       I    between atoms: N_15  and  C_16 
REMARK    3  A    between atoms: C_16  and  C_17 
REMARK    4  A    between atoms: C_20  and  N_21 
ROOT
HETATM    1  N   UNL     1       6.067  28.724  54.493  1.00  0.00    -0.322 N 
HETATM    2  C   UNL     1       4.708  28.564  54.296  1.00  0.00     0.256 C 
HETATM    3  O   UNL     1       3.877  28.283  55.151  1.00  0.00    -0.267 OA
HETATM    4  H   UNL     1       6.652  28.776  53.667  1.00  0.00     0.169 HD
ENDROOT
BRANCH   1   5
HETATM    5  C   UNL     1       6.741  28.815  55.738  1.00  0.00     0.049 A 
HETATM    6  C   UNL     1       7.576  27.754  56.156  1.00  0.00     0.037 A 
HETATM    7  C   UNL     1       8.357  27.899  57.314  1.00  0.00     0.017 A 
HETATM    8  C   UNL     1       8.283  29.060  58.081  1.00  0.00     0.001 A 
HETATM    9  C   UNL     1       7.427  30.087  57.696  1.00  0.00     0.002 A 
HETATM   10  C   UNL     1       6.664  29.967  56.531  1.00  0.00     0.030 A 
BRANCH   6  11
HETATM   11  C   UNL     1       7.611  26.461  55.471  1.00  0.00     0.141 A 
HETATM   12  N   UNL     1       7.607  26.252  54.169  1.00  0.00    -0.228 NA
HETATM   13  C   UNL     1       7.676  24.889  54.007  1.00  0.00     0.086 A 
HETATM   14  C   UNL     1       7.736  24.246  55.237  1.00  0.00     0.062 A 
HETATM   15  C   UNL     1       7.693  24.124  52.832  1.00  0.00     0.034 A 
HETATM   16  N   UNL     1       7.724  25.267  56.149  1.00  0.00    -0.338 N 
HETATM   17  C   UNL     1       7.805  22.858  55.376  1.00  0.00     0.032 A 
HETATM   18  H   UNL     1       7.794  25.174  57.152  1.00  0.00     0.167 HD
HETATM   19  C   UNL     1       7.815  22.110  54.193  1.00  0.00     0.002 A 
HETATM   20  C   UNL     1       7.761  22.729  52.941  1.00  0.00     0.002 A 
ENDBRANCH   6  11
ENDBRANCH   1   5
BRANCH   2  21
HETATM   21  C   UNL     1       4.267  28.671  52.880  1.00  0.00     0.032 A 
HETATM   22  C   UNL     1       4.871  27.934  51.862  1.00  0.00     0.019 A 
HETATM   23  C   UNL     1       4.436  28.079  50.536  1.00  0.00     0.031 A 
HETATM   24  C   UNL     1       3.393  28.956  50.182  1.00  0.00     0.045 A 
HETATM   25  C   UNL     1       2.809  29.690  51.230  1.00  0.00     0.031 A 
HETATM   26  C   UNL     1       3.242  29.559  52.558  1.00  0.00     0.019 A 
BRANCH  24  27
HETATM   27  N   UNL     1       2.961  29.104  48.821  1.00  0.00    -0.252 N 
HETATM   28  C   UNL     1       3.538  29.958  47.903  1.00  0.00     0.231 C 
HETATM   29  O   UNL     1       4.541  30.651  48.003  1.00  0.00    -0.273 OA
HETATM   30  C   UNL     1       2.716  29.960  46.650  1.00  0.00     0.113 C 
HETATM   31  C   UNL     1       1.845  28.742  46.787  1.00  0.00     0.113 C 
HETATM   32  C   UNL     1       1.917  28.408  48.246  1.00  0.00     0.231 C 
HETATM   33  O   UNL     1       1.135  27.611  48.748  1.00  0.00    -0.273 OA
ENDBRANCH  24  27
ENDBRANCH   2  21
TORSDOF 4
ENDMDL
MODEL 9
REMARK VINA RESULT:      -9.3      7.659     12.391
REMARK  4 active torsions:
REMARK  status: ('A' for Active; 'I' for Inactive)
REMARK    1  A    between atoms: C_3  and  C_4 
REMARK    2  A    between atoms: C_14  and  N_15 
REMARK       I    between atoms: N_15  and  C_16 
REMARK    3  A    between atoms: C_16  and  C_17 
REMARK    4  A    between atoms: C_20  and  N_21 
ROOT
HETATM    1  N   UNL     1       6.412  24.863  53.679  1.00  0.00    -0.322 N 
HETATM    2  C   UNL     1       6.941  25.926  52.971  1.00  0.00     0.256 C 
HETATM    3  O   UNL     1       8.054  26.416  53.117  1.00  0.00    -0.267 OA
HETATM    4  H   UNL     1       5.420  24.684  53.575  1.00  0.00     0.169 HD
ENDROOT
BRANCH   1   5
HETATM    5  C   UNL     1       7.111  23.991  54.553  1.00  0.00     0.049 A 
HETATM    6  C   UNL     1       7.357  24.393  55.886  1.00  0.00     0.037 A 
HETATM    7  C   UNL     1       7.919  23.480  56.794  1.00  0.00     0.017 A 
HETATM    8  C   UNL     1       8.278  22.197  56.384  1.00  0.00     0.001 A 
HETATM    9  C   UNL     1       8.078  21.816  55.061  1.00  0.00     0.002 A 
HETATM   10  C   UNL     1       7.497  22.705  54.153  1.00  0.00     0.030 A 
BRANCH   6  11
HETATM   11  C   UNL     1       7.121  25.759  56.354  1.00  0.00     0.141 A 
HETATM   12  N   UNL     1       5.982  26.421  56.330  1.00  0.00    -0.228 NA
HETATM   13  C   UNL     1       6.245  27.645  56.896  1.00  0.00     0.086 A 
HETATM   14  C   UNL     1       7.575  27.733  57.289  1.00  0.00     0.062 A 
HETATM   15  C   UNL     1       5.394  28.738  57.111  1.00  0.00     0.034 A 
HETATM   16  N   UNL     1       8.102  26.513  56.962  1.00  0.00    -0.338 N 
HETATM   17  C   UNL     1       8.127  28.869  57.888  1.00  0.00     0.032 A 
HETATM   18  H   UNL     1       9.047  26.202  57.137  1.00  0.00     0.167 HD
HETATM   19  C   UNL     1       7.263  29.951  58.088  1.00  0.00     0.002 A 
HETATM   20  C   UNL     1       5.919  29.890  57.710  1.00  0.00     0.002 A 
ENDBRANCH   6  11
ENDBRANCH   1   5
BRANCH   2  21
HETATM   21  C   UNL     1       6.005  26.557  52.003  1.00  0.00     0.032 A 
HETATM   22  C   UNL     1       5.430  25.835  50.957  1.00  0.00     0.019 A 
HETATM   23  C   UNL     1       4.566  26.474  50.054  1.00  0.00     0.031 A 
HETATM   24  C   UNL     1       4.247  27.841  50.163  1.00  0.00     0.045 A 
HETATM   25  C   UNL     1       4.848  28.542  51.223  1.00  0.00     0.031 A 
HETATM   26  C   UNL     1       5.720  27.915  52.127  1.00  0.00     0.019 A 
BRANCH  24  27
HETATM   27  N   UNL     1       3.369  28.487  49.229  1.00  0.00    -0.252 N 
HETATM   28  C   UNL     1       2.062  28.839  49.495  1.00  0.00     0.231 C 
HETATM   29  O   UNL     1       1.434  28.781  50.544  1.00  0.00    -0.273 OA
HETATM   30  C   UNL     1       1.420  29.334  48.235  1.00  0.00     0.113 C 
HETATM   31  C   UNL     1       2.581  29.605  47.320  1.00  0.00     0.113 C 
HETATM   32  C   UNL     1       3.716  28.850  47.943  1.00  0.00     0.231 C 
HETATM   33  O   UNL     1       4.757  28.658  47.329  1.00  0.00    -0.273 OA
ENDBRANCH  24  27
ENDBRANCH   2  21
TORSDOF 4
ENDMDL
MODEL 10
REMARK VINA RESULT:      -9.3      5.171     11.857
REMARK  4 active torsions:
REMARK  status: ('A' for Active; 'I' for Inactive)
REMARK    1  A    between atoms: C_3  and  C_4 
REMARK    2  A    between atoms: C_14  and  N_15 
REMARK       I    between atoms: N_15  and  C_16 
REMARK    3  A    between atoms: C_16  and  C_17 
REMARK    4  A    between atoms: C_20  and  N_21 
ROOT
HETATM    1  N   UNL     1       6.392  28.192  54.180  1.00  0.00    -0.322 N 
HETATM    2  C   UNL     1       7.645  28.617  54.578  1.00  0.00     0.256 C 
HETATM    3  O   UNL     1       8.699  28.436  53.980  1.00  0.00    -0.267 OA
HETATM    4  H   UNL     1       5.643  28.256  54.861  1.00  0.00     0.169 HD
ENDROOT
BRANCH   1   5
HETATM    5  C   UNL     1       6.036  27.661  52.914  1.00  0.00     0.049 A 
HETATM    6  C   UNL     1       6.095  26.264  52.704  1.00  0.00     0.037 A 
HETATM    7  C   UNL     1       5.608  25.721  51.504  1.00  0.00     0.017 A 
HETATM    8  C   UNL     1       5.108  26.548  50.500  1.00  0.00     0.001 A 
HETATM    9  C   UNL     1       5.091  27.926  50.687  1.00  0.00     0.002 A 
HETATM   10  C   UNL     1       5.549  28.479  51.886  1.00  0.00     0.030 A 
BRANCH   6  11
HETATM   11  C   UNL     1       6.719  25.349  53.661  1.00  0.00     0.141 A 
HETATM   12  N   UNL     1       6.595  25.366  54.973  1.00  0.00    -0.228 NA
HETATM   13  C   UNL     1       7.337  24.306  55.435  1.00  0.00     0.086 A 
HETATM   14  C   UNL     1       7.919  23.612  54.382  1.00  0.00     0.062 A 
HETATM   15  C   UNL     1       7.560  23.870  56.749  1.00  0.00     0.034 A 
HETATM   16  N   UNL     1       7.487  24.275  53.265  1.00  0.00    -0.338 N 
HETATM   17  C   UNL     1       8.735  22.491  54.556  1.00  0.00     0.032 A 
HETATM   18  H   UNL     1       7.685  24.026  52.307  1.00  0.00     0.167 HD
HETATM   19  C   UNL     1       8.950  22.075  55.875  1.00  0.00     0.002 A 
HETATM   20  C   UNL     1       8.373  22.749  56.955  1.00  0.00     0.002 A 
ENDBRANCH   6  11
ENDBRANCH   1   5
BRANCH   2  21
HETATM   21  C   UNL     1       7.684  29.285  55.906  1.00  0.00     0.032 A 
HETATM   22  C   UNL     1       8.884  29.523  56.576  1.00  0.00     0.019 A 
HETATM   23  C   UNL     1       8.876  30.140  57.837  1.00  0.00     0.031 A 
HETATM   24  C   UNL     1       7.681  30.538  58.466  1.00  0.00     0.045 A 
HETATM   25  C   UNL     1       6.488  30.279  57.768  1.00  0.00     0.031 A 
HETATM   26  C   UNL     1       6.485  29.655  56.511  1.00  0.00     0.019 A 
BRANCH  24  27
HETATM   27  N   UNL     1       7.682  31.161  59.759  1.00  0.00    -0.252 N 
HETATM   28  C   UNL     1       6.872  32.218  60.123  1.00  0.00     0.231 C 
HETATM   29  O   UNL     1       5.962  32.754  59.504  1.00  0.00    -0.273 OA
HETATM   30  C   UNL     1       7.273  32.700  61.484  1.00  0.00     0.113 C 
HETATM   31  C   UNL     1       8.117  31.581  62.028  1.00  0.00     0.113 C 
HETATM   32  C   UNL     1       8.485  30.782  60.816  1.00  0.00     0.231 C 
HETATM   33  O   UNL     1       9.365  29.932  60.865  1.00  0.00    -0.273 OA
ENDBRANCH  24  27
ENDBRANCH   2  21
TORSDOF 4
ENDMDL
