MODEL 1
REMARK VINA RESULT:     -10.9      0.000      0.000
REMARK  7 active torsions:
REMARK  status: ('A' for Active; 'I' for Inactive)
REMARK    1  A    between atoms: C_3  and  C_4 
REMARK    2  A    between atoms: C_11  and  N_12 
REMARK       I    between atoms: N_12  and  C_13 
REMARK    3  A    between atoms: C_13  and  C_14 
REMARK    4  A    between atoms: C_21  and  C_22 
REMARK       I    between atoms: C_22  and  N_23 
REMARK    5  A    between atoms: N_23  and  C_24 
REMARK    6  A    between atoms: C_24  and  C_25 
REMARK    7  A    between atoms: C_25  and  C_26 
ROOT
HETATM    1  C   UNL     1       7.545  23.567  53.030  1.00  0.00     0.158 C 
HETATM    2  N   UNL     1       7.442  24.116  54.360  1.00  0.00    -0.335 N 
HETATM    3  C   UNL     1       7.629  23.366  55.502  1.00  0.00     0.111 A 
HETATM    4  N   UNL     1       7.788  24.137  56.554  1.00  0.00    -0.233 NA
HETATM    5  C   UNL     1       7.655  25.416  56.089  1.00  0.00     0.089 A 
HETATM    6  C   UNL     1       7.359  25.447  54.721  1.00  0.00     0.091 A 
HETATM    7  C   UNL     1       7.158  26.666  54.046  1.00  0.00     0.065 A 
HETATM    8  C   UNL     1       7.371  27.842  54.790  1.00  0.00     0.049 A 
HETATM    9  C   UNL     1       7.666  27.824  56.157  1.00  0.00     0.036 A 
HETATM   10  C   UNL     1       7.803  26.605  56.822  1.00  0.00     0.051 A 
ENDROOT
BRANCH   9  11
HETATM   11  C   UNL     1       7.835  29.132  56.849  1.00  0.00     0.251 C 
HETATM   12  N   UNL     1       8.924  29.272  57.685  1.00  0.00    -0.357 N 
HETATM   13  H   UNL     1       9.486  28.468  57.927  1.00  0.00     0.162 HD
HETATM   14  O   UNL     1       7.001  30.017  56.684  1.00  0.00    -0.268 OA
BRANCH  12  15
HETATM   15  C   UNL     1       9.129  30.498  58.439  1.00  0.00     0.127 C 
BRANCH  15  16
HETATM   16  C   UNL     1       8.657  30.374  59.891  1.00  0.00     0.060 C 
BRANCH  16  17
HETATM   17  C   UNL     1       7.657  31.424  60.254  1.00  0.00    -0.029 A 
HETATM   18  C   UNL     1       7.564  32.098  61.516  1.00  0.00    -0.002 A 
HETATM   19  C   UNL     1       6.503  33.000  61.432  1.00  0.00     0.042 A 
HETATM   20  C   UNL     1       8.287  32.017  62.723  1.00  0.00     0.014 A 
HETATM   21  C   UNL     1       6.131  33.831  62.496  1.00  0.00     0.030 A 
HETATM   22  N   UNL     1       5.971  32.879  60.169  1.00  0.00    -0.365 N 
HETATM   23  C   UNL     1       6.867  33.735  63.681  1.00  0.00     0.002 A 
HETATM   24  C   UNL     1       7.929  32.841  63.796  1.00  0.00     0.001 A 
HETATM   25  H   UNL     1       5.186  33.415  59.828  1.00  0.00     0.165 HD
HETATM   26  C   UNL     1       6.655  31.934  59.452  1.00  0.00     0.096 A 
ENDBRANCH  16  17
ENDBRANCH  15  16
ENDBRANCH  12  15
ENDBRANCH   9  11
BRANCH   7  27
HETATM   27  N   UNL     1       6.775  26.847  52.707  1.00  0.00    -0.323 N 
HETATM   28  C   UNL     1       5.474  26.909  52.232  1.00  0.00     0.251 C 
HETATM   29  O   UNL     1       4.455  26.663  52.868  1.00  0.00    -0.270 OA
HETATM   30  H   UNL     1       7.416  27.376  52.114  1.00  0.00     0.169 HD
BRANCH  28  31
HETATM   31  C   UNL     1       5.449  27.332  50.749  1.00  0.00     0.213 C 
HETATM   32  O   UNL     1       4.799  28.617  50.621  1.00  0.00    -0.376 OA
HETATM   33  C   UNL     1       3.527  28.395  50.004  1.00  0.00     0.168 C 
HETATM   34  C   UNL     1       3.736  27.220  49.083  1.00  0.00     0.029 C 
HETATM   35  C   UNL     1       4.688  26.348  49.869  1.00  0.00     0.044 C 
ENDBRANCH  28  31
ENDBRANCH   7  27
BRANCH   3  36
HETATM   36  C   UNL     1       7.723  21.845  55.561  1.00  0.00     0.056 C 
HETATM   37  C   UNL     1       9.041  21.296  54.932  1.00  0.00     0.012 C 
HETATM   38  C   UNL     1       9.057  20.245  56.056  1.00  0.00     0.002 C 
HETATM   39  C   UNL     1       8.265  21.262  56.899  1.00  0.00     0.012 C 
ENDBRANCH   3  36
TORSDOF 7
ENDMDL
MODEL 2
REMARK VINA RESULT:     -10.8      2.609      3.457
REMARK  7 active torsions:
REMARK  status: ('A' for Active; 'I' for Inactive)
REMARK    1  A    between atoms: C_3  and  C_4 
REMARK    2  A    between atoms: C_11  and  N_12 
REMARK       I    between atoms: N_12  and  C_13 
REMARK    3  A    between atoms: C_13  and  C_14 
REMARK    4  A    between atoms: C_21  and  C_22 
REMARK       I    between atoms: C_22  and  N_23 
REMARK    5  A    between atoms: N_23  and  C_24 
REMARK    6  A    between atoms: C_24  and  C_25 
REMARK    7  A    between atoms: C_25  and  C_26 
ROOT
HETATM    1  C   UNL     1       5.599  26.727  53.229  1.00  0.00     0.158 C 
HETATM    2  N   UNL     1       6.289  26.549  54.484  1.00  0.00    -0.335 N 
HETATM    3  C   UNL     1       6.911  25.372  54.844  1.00  0.00     0.111 A 
HETATM    4  N   UNL     1       7.714  25.555  55.867  1.00  0.00    -0.233 NA
HETATM    5  C   UNL     1       7.574  26.871  56.208  1.00  0.00     0.089 A 
HETATM    6  C   UNL     1       6.625  27.520  55.408  1.00  0.00     0.091 A 
HETATM    7  C   UNL     1       6.309  28.877  55.608  1.00  0.00     0.065 A 
HETATM    8  C   UNL     1       7.065  29.566  56.575  1.00  0.00     0.049 A 
HETATM    9  C   UNL     1       8.015  28.928  57.381  1.00  0.00     0.036 A 
HETATM   10  C   UNL     1       8.271  27.568  57.208  1.00  0.00     0.051 A 
ENDROOT
BRANCH   9  11
HETATM   11  C   UNL     1       8.730  29.751  58.397  1.00  0.00     0.251 C 
HETATM   12  N   UNL     1       8.074  30.001  59.585  1.00  0.00    -0.357 N 
HETATM   13  H   UNL     1       7.097  29.763  59.687  1.00  0.00     0.162 HD
HETATM   14  O   UNL     1       9.843  30.199  58.139  1.00  0.00    -0.268 OA
BRANCH  12  15
HETATM   15  C   UNL     1       8.681  30.841  60.604  1.00  0.00     0.127 C 
BRANCH  15  16
HETATM   16  C   UNL     1       8.264  32.309  60.473  1.00  0.00     0.060 C 
BRANCH  16  17
HETATM   17  C   UNL     1       6.981  32.600  61.183  1.00  0.00    -0.029 A 
HETATM   18  C   UNL     1       6.840  32.907  62.576  1.00  0.00    -0.002 A 
HETATM   19  C   UNL     1       5.483  33.115  62.824  1.00  0.00     0.042 A 
HETATM   20  C   UNL     1       7.747  33.023  63.648  1.00  0.00     0.014 A 
HETATM   21  C   UNL     1       4.987  33.439  64.092  1.00  0.00     0.030 A 
HETATM   22  N   UNL     1       4.824  32.940  61.629  1.00  0.00    -0.365 N 
HETATM   23  C   UNL     1       5.908  33.553  65.139  1.00  0.00     0.002 A 
HETATM   24  C   UNL     1       7.268  33.347  64.923  1.00  0.00     0.001 A 
HETATM   25  H   UNL     1       3.825  33.030  61.511  1.00  0.00     0.165 HD
HETATM   26  C   UNL     1       5.713  32.629  60.636  1.00  0.00     0.096 A 
ENDBRANCH  16  17
ENDBRANCH  15  16
ENDBRANCH  12  15
ENDBRANCH   9  11
BRANCH   7  27
HETATM   27  N   UNL     1       5.327  29.631  54.945  1.00  0.00    -0.323 N 
HETATM   28  C   UNL     1       4.050  29.900  55.415  1.00  0.00     0.251 C 
HETATM   29  O   UNL     1       3.517  29.401  56.400  1.00  0.00    -0.270 OA
HETATM   30  H   UNL     1       5.658  30.366  54.319  1.00  0.00     0.169 HD
BRANCH  28  31
HETATM   31  C   UNL     1       3.339  30.933  54.518  1.00  0.00     0.213 C 
HETATM   32  O   UNL     1       4.317  31.637  53.719  1.00  0.00    -0.376 OA
HETATM   33  C   UNL     1       4.410  32.971  54.230  1.00  0.00     0.168 C 
HETATM   34  C   UNL     1       3.027  33.295  54.735  1.00  0.00     0.029 C 
HETATM   35  C   UNL     1       2.569  31.977  55.317  1.00  0.00     0.044 C 
ENDBRANCH  28  31
ENDBRANCH   7  27
BRANCH   3  36
HETATM   36  C   UNL     1       6.769  24.037  54.122  1.00  0.00     0.056 C 
HETATM   37  C   UNL     1       7.808  23.857  52.971  1.00  0.00     0.012 C 
HETATM   38  C   UNL     1       7.905  22.378  53.382  1.00  0.00     0.002 C 
HETATM   39  C   UNL     1       7.495  22.835  54.795  1.00  0.00     0.012 C 
ENDBRANCH   3  36
TORSDOF 7
ENDMDL
MODEL 3
REMARK VINA RESULT:     -10.5      3.045      9.109
REMARK  7 active torsions:
REMARK  status: ('A' for Active; 'I' for Inactive)
REMARK    1  A    between atoms: C_3  and  C_4 
REMARK    2  A    between atoms: C_11  and  N_12 
REMARK       I    between atoms: N_12  and  C_13 
REMARK    3  A    between atoms: C_13  and  C_14 
REMARK    4  A    between atoms: C_21  and  C_22 
REMARK       I    between atoms: C_22  and  N_23 
REMARK    5  A    between atoms: N_23  and  C_24 
REMARK    6  A    between atoms: C_24  and  C_25 
REMARK    7  A    between atoms: C_25  and  C_26 
ROOT
HETATM    1  C   UNL     1       5.922  32.227  58.245  1.00  0.00     0.158 C 
HETATM    2  N   UNL     1       6.679  31.013  58.057  1.00  0.00    -0.335 N 
HETATM    3  C   UNL     1       7.594  30.544  58.977  1.00  0.00     0.111 A 
HETATM    4  N   UNL     1       7.914  29.294  58.731  1.00  0.00    -0.233 NA
HETATM    5  C   UNL     1       7.226  28.960  57.597  1.00  0.00     0.089 A 
HETATM    6  C   UNL     1       6.492  30.041  57.093  1.00  0.00     0.091 A 
HETATM    7  C   UNL     1       5.730  29.919  55.916  1.00  0.00     0.065 A 
HETATM    8  C   UNL     1       5.663  28.638  55.337  1.00  0.00     0.049 A 
HETATM    9  C   UNL     1       6.392  27.550  55.831  1.00  0.00     0.036 A 
HETATM   10  C   UNL     1       7.190  27.707  56.965  1.00  0.00     0.051 A 
ENDROOT
BRANCH   9  11
HETATM   11  C   UNL     1       6.272  26.250  55.114  1.00  0.00     0.251 C 
HETATM   12  N   UNL     1       6.822  26.168  53.852  1.00  0.00    -0.357 N 
HETATM   13  H   UNL     1       7.152  27.001  53.385  1.00  0.00     0.162 HD
HETATM   14  O   UNL     1       5.672  25.320  55.644  1.00  0.00    -0.268 OA
BRANCH  12  15
HETATM   15  C   UNL     1       6.698  24.951  53.066  1.00  0.00     0.127 C 
BRANCH  15  16
HETATM   16  C   UNL     1       8.038  24.230  52.894  1.00  0.00     0.060 C 
BRANCH  16  17
HETATM   17  C   UNL     1       8.008  22.840  53.443  1.00  0.00    -0.029 A 
HETATM   18  C   UNL     1       8.141  22.475  54.822  1.00  0.00    -0.002 A 
HETATM   19  C   UNL     1       8.053  21.086  54.900  1.00  0.00     0.042 A 
HETATM   20  C   UNL     1       8.332  23.206  56.012  1.00  0.00     0.014 A 
HETATM   21  C   UNL     1       8.141  20.388  56.111  1.00  0.00     0.030 A 
HETATM   22  N   UNL     1       7.875  20.622  53.617  1.00  0.00    -0.365 N 
HETATM   23  C   UNL     1       8.326  21.136  57.278  1.00  0.00     0.002 A 
HETATM   24  C   UNL     1       8.422  22.525  57.232  1.00  0.00     0.001 A 
HETATM   25  H   UNL     1       7.779  19.646  53.372  1.00  0.00     0.165 HD
HETATM   26  C   UNL     1       7.848  21.666  52.732  1.00  0.00     0.096 A 
ENDBRANCH  16  17
ENDBRANCH  15  16
ENDBRANCH  12  15
ENDBRANCH   9  11
BRANCH   7  27
HETATM   27  N   UNL     1       5.018  30.931  55.252  1.00  0.00    -0.323 N 
HETATM   28  C   UNL     1       3.720  31.332  55.532  1.00  0.00     0.251 C 
HETATM   29  O   UNL     1       2.933  30.773  56.288  1.00  0.00    -0.270 OA
HETATM   30  H   UNL     1       5.567  31.692  54.852  1.00  0.00     0.169 HD
BRANCH  28  31
HETATM   31  C   UNL     1       3.357  32.607  54.745  1.00  0.00     0.213 C 
HETATM   32  O   UNL     1       3.809  33.772  55.472  1.00  0.00    -0.376 OA
HETATM   33  C   UNL     1       2.650  34.431  55.991  1.00  0.00     0.168 C 
HETATM   34  C   UNL     1       1.564  34.174  54.977  1.00  0.00     0.029 C 
HETATM   35  C   UNL     1       1.856  32.760  54.531  1.00  0.00     0.044 C 
ENDBRANCH  28  31
ENDBRANCH   7  27
BRANCH   3  36
HETATM   36  C   UNL     1       8.123  31.319  60.179  1.00  0.00     0.056 C 
HETATM   37  C   UNL     1       9.102  30.480  61.057  1.00  0.00     0.012 C 
HETATM   38  C   UNL     1       9.921  31.768  61.252  1.00  0.00     0.002 C 
HETATM   39  C   UNL     1       9.354  32.229  59.896  1.00  0.00     0.012 C 
ENDBRANCH   3  36
TORSDOF 7
ENDMDL
MODEL 4
REMARK VINA RESULT:     -10.5      1.310      1.520
REMARK  7 active torsions:
REMARK  status: ('A' for Active; 'I' for Inactive)
REMARK    1  A    between atoms: C_3  and  C_4 
REMARK    2  A    between atoms: C_11  and  N_12 
REMARK       I    between atoms: N_12  and  C_13 
REMARK    3  A    between atoms: C_13  and  C_14 
REMARK    4  A    between atoms: C_21  and  C_22 
REMARK       I    between atoms: C_22  and  N_23 
REMARK    5  A    between atoms: N_23  and  C_24 
REMARK    6  A    between atoms: C_24  and  C_25 
REMARK    7  A    between atoms: C_25  and  C_26 
ROOT
HETATM    1  C   UNL     1       6.695  24.893  52.627  1.00  0.00     0.158 C 
HETATM    2  N   UNL     1       7.001  25.032  54.030  1.00  0.00    -0.335 N 
HETATM    3  C   UNL     1       7.390  23.976  54.827  1.00  0.00     0.111 A 
HETATM    4  N   UNL     1       7.901  24.399  55.960  1.00  0.00    -0.233 NA
HETATM    5  C   UNL     1       7.799  25.762  55.917  1.00  0.00     0.089 A 
HETATM    6  C   UNL     1       7.166  26.202  54.747  1.00  0.00     0.091 A 
HETATM    7  C   UNL     1       6.938  27.571  54.514  1.00  0.00     0.065 A 
HETATM    8  C   UNL     1       7.467  28.470  55.458  1.00  0.00     0.049 A 
HETATM    9  C   UNL     1       8.100  28.043  56.631  1.00  0.00     0.036 A 
HETATM   10  C   UNL     1       8.264  26.679  56.873  1.00  0.00     0.051 A 
ENDROOT
BRANCH   9  11
HETATM   11  C   UNL     1       8.589  29.085  57.576  1.00  0.00     0.251 C 
HETATM   12  N   UNL     1       7.834  29.320  58.707  1.00  0.00    -0.357 N 
HETATM   13  H   UNL     1       6.915  28.908  58.799  1.00  0.00     0.162 HD
HETATM   14  O   UNL     1       9.610  29.712  57.312  1.00  0.00    -0.268 OA
BRANCH  12  15
HETATM   15  C   UNL     1       8.213  30.359  59.650  1.00  0.00     0.127 C 
BRANCH  15  16
HETATM   16  C   UNL     1       7.565  31.707  59.323  1.00  0.00     0.060 C 
BRANCH  16  17
HETATM   17  C   UNL     1       6.570  32.124  60.357  1.00  0.00    -0.029 A 
HETATM   18  C   UNL     1       6.858  32.444  61.724  1.00  0.00    -0.002 A 
HETATM   19  C   UNL     1       5.654  32.785  62.339  1.00  0.00     0.042 A 
HETATM   20  C   UNL     1       8.039  32.470  62.493  1.00  0.00     0.014 A 
HETATM   21  C   UNL     1       5.570  33.158  63.686  1.00  0.00     0.030 A 
HETATM   22  N   UNL     1       4.670  32.676  61.383  1.00  0.00    -0.365 N 
HETATM   23  C   UNL     1       6.756  33.180  64.426  1.00  0.00     0.002 A 
HETATM   24  C   UNL     1       7.974  32.841  63.842  1.00  0.00     0.001 A 
HETATM   25  H   UNL     1       3.691  32.864  61.549  1.00  0.00     0.165 HD
HETATM   26  C   UNL     1       5.208  32.278  60.189  1.00  0.00     0.096 A 
ENDBRANCH  16  17
ENDBRANCH  15  16
ENDBRANCH  12  15
ENDBRANCH   9  11
BRANCH   7  27
HETATM   27  N   UNL     1       6.246  28.149  53.436  1.00  0.00    -0.323 N 
HETATM   28  C   UNL     1       4.869  28.266  53.320  1.00  0.00     0.251 C 
HETATM   29  O   UNL     1       4.031  27.751  54.052  1.00  0.00    -0.270 OA
HETATM   30  H   UNL     1       6.729  28.888  52.925  1.00  0.00     0.169 HD
BRANCH  28  31
HETATM   31  C   UNL     1       4.492  29.144  52.110  1.00  0.00     0.213 C 
HETATM   32  O   UNL     1       3.498  28.466  51.309  1.00  0.00    -0.376 OA
HETATM   33  C   UNL     1       4.136  28.046  50.098  1.00  0.00     0.168 C 
HETATM   34  C   UNL     1       5.181  29.095  49.820  1.00  0.00     0.029 C 
HETATM   35  C   UNL     1       5.680  29.442  51.204  1.00  0.00     0.044 C 
ENDBRANCH  28  31
ENDBRANCH   7  27
BRANCH   3  36
HETATM   36  C   UNL     1       7.323  22.502  54.441  1.00  0.00     0.056 C 
HETATM   37  C   UNL     1       8.606  22.010  53.702  1.00  0.00     0.012 C 
HETATM   38  C   UNL     1       8.458  20.686  54.470  1.00  0.00     0.002 C 
HETATM   39  C   UNL     1       7.736  21.500  55.559  1.00  0.00     0.012 C 
ENDBRANCH   3  36
TORSDOF 7
ENDMDL
MODEL 5
REMARK VINA RESULT:     -10.5      2.778      9.311
REMARK  7 active torsions:
REMARK  status: ('A' for Active; 'I' for Inactive)
REMARK    1  A    between atoms: C_3  and  C_4 
REMARK    2  A    between atoms: C_11  and  N_12 
REMARK       I    between atoms: N_12  and  C_13 
REMARK    3  A    between atoms: C_13  and  C_14 
REMARK    4  A    between atoms: C_21  and  C_22 
REMARK       I    between atoms: C_22  and  N_23 
REMARK    5  A    between atoms: N_23  and  C_24 
REMARK    6  A    between atoms: C_24  and  C_25 
REMARK    7  A    between atoms: C_25  and  C_26 
ROOT
HETATM    1  C   UNL     1       8.131  24.408  56.351  1.00  0.00     0.158 C 
HETATM    2  N   UNL     1       7.624  24.526  55.005  1.00  0.00    -0.335 N 
HETATM    3  C   UNL     1       7.293  23.439  54.224  1.00  0.00     0.111 A 
HETATM    4  N   UNL     1       6.580  23.803  53.183  1.00  0.00    -0.233 NA
HETATM    5  C   UNL     1       6.485  25.165  53.266  1.00  0.00     0.089 A 
HETATM    6  C   UNL     1       7.196  25.672  54.361  1.00  0.00     0.091 A 
HETATM    7  C   UNL     1       7.250  27.055  54.618  1.00  0.00     0.065 A 
HETATM    8  C   UNL     1       6.473  27.882  53.785  1.00  0.00     0.049 A 
HETATM    9  C   UNL     1       5.760  27.387  52.687  1.00  0.00     0.036 A 
HETATM   10  C   UNL     1       5.768  26.019  52.414  1.00  0.00     0.051 A 
ENDROOT
BRANCH   9  11
HETATM   11  C   UNL     1       5.003  28.362  51.853  1.00  0.00     0.251 C 
HETATM   12  N   UNL     1       5.735  29.261  51.106  1.00  0.00    -0.357 N 
HETATM   13  H   UNL     1       6.733  29.345  51.246  1.00  0.00     0.162 HD
HETATM   14  O   UNL     1       3.776  28.357  51.880  1.00  0.00    -0.268 OA
BRANCH  12  15
HETATM   15  C   UNL     1       5.071  30.280  50.310  1.00  0.00     0.127 C 
BRANCH  15  16
HETATM   16  C   UNL     1       5.328  30.107  48.811  1.00  0.00     0.060 C 
BRANCH  16  17
HETATM   17  C   UNL     1       4.171  29.477  48.105  1.00  0.00    -0.029 A 
HETATM   18  C   UNL     1       3.863  28.078  48.074  1.00  0.00    -0.002 A 
HETATM   19  C   UNL     1       2.705  27.919  47.314  1.00  0.00     0.042 A 
HETATM   20  C   UNL     1       4.471  26.931  48.624  1.00  0.00     0.014 A 
HETATM   21  C   UNL     1       2.118  26.670  47.079  1.00  0.00     0.030 A 
HETATM   22  N   UNL     1       2.323  29.174  46.896  1.00  0.00    -0.365 N 
HETATM   23  C   UNL     1       2.737  25.548  47.639  1.00  0.00     0.002 A 
HETATM   24  C   UNL     1       3.898  25.674  48.400  1.00  0.00     0.001 A 
HETATM   25  H   UNL     1       1.512  29.362  46.325  1.00  0.00     0.165 HD
HETATM   26  C   UNL     1       3.197  30.118  47.364  1.00  0.00     0.096 A 
ENDBRANCH  16  17
ENDBRANCH  15  16
ENDBRANCH  12  15
ENDBRANCH   9  11
BRANCH   7  27
HETATM   27  N   UNL     1       7.985  27.709  55.620  1.00  0.00    -0.323 N 
HETATM   28  C   UNL     1       7.524  28.040  56.885  1.00  0.00     0.251 C 
HETATM   29  O   UNL     1       6.367  27.961  57.281  1.00  0.00    -0.270 OA
HETATM   30  H   UNL     1       8.996  27.565  55.615  1.00  0.00     0.169 HD
BRANCH  28  31
HETATM   31  C   UNL     1       8.676  28.551  57.774  1.00  0.00     0.213 C 
HETATM   32  O   UNL     1       8.144  29.391  58.823  1.00  0.00    -0.376 OA
HETATM   33  C   UNL     1       8.518  30.740  58.523  1.00  0.00     0.168 C 
HETATM   34  C   UNL     1       9.852  30.633  57.829  1.00  0.00     0.029 C 
HETATM   35  C   UNL     1       9.695  29.379  57.001  1.00  0.00     0.044 C 
ENDBRANCH  28  31
ENDBRANCH   7  27
BRANCH   3  36
HETATM   36  C   UNL     1       7.627  21.985  54.540  1.00  0.00     0.056 C 
HETATM   37  C   UNL     1       7.611  21.072  53.274  1.00  0.00     0.012 C 
HETATM   38  C   UNL     1       8.819  20.334  53.877  1.00  0.00     0.002 C 
HETATM   39  C   UNL     1       9.145  21.649  54.609  1.00  0.00     0.012 C 
ENDBRANCH   3  36
TORSDOF 7
ENDMDL
MODEL 6
REMARK VINA RESULT:     -10.3      2.840      9.677
REMARK  7 active torsions:
REMARK  status: ('A' for Active; 'I' for Inactive)
REMARK    1  A    between atoms: C_3  and  C_4 
REMARK    2  A    between atoms: C_11  and  N_12 
REMARK       I    between atoms: N_12  and  C_13 
REMARK    3  A    between atoms: C_13  and  C_14 
REMARK    4  A    between atoms: C_21  and  C_22 
REMARK       I    between atoms: C_22  and  N_23 
REMARK    5  A    between atoms: N_23  and  C_24 
REMARK    6  A    between atoms: C_24  and  C_25 
REMARK    7  A    between atoms: C_25  and  C_26 
ROOT
HETATM    1  C   UNL     1       5.108  33.359  60.038  1.00  0.00     0.158 C 
HETATM    2  N   UNL     1       6.260  32.498  59.931  1.00  0.00    -0.335 N 
HETATM    3  C   UNL     1       7.162  32.312  60.958  1.00  0.00     0.111 A 
HETATM    4  N   UNL     1       7.929  31.269  60.733  1.00  0.00    -0.233 NA
HETATM    5  C   UNL     1       7.545  30.795  59.509  1.00  0.00     0.089 A 
HETATM    6  C   UNL     1       6.545  31.587  58.931  1.00  0.00     0.091 A 
HETATM    7  C   UNL     1       6.024  31.289  57.658  1.00  0.00     0.065 A 
HETATM    8  C   UNL     1       6.482  30.105  57.050  1.00  0.00     0.049 A 
HETATM    9  C   UNL     1       7.481  29.306  57.617  1.00  0.00     0.036 A 
HETATM   10  C   UNL     1       8.029  29.652  58.853  1.00  0.00     0.051 A 
ENDROOT
BRANCH   9  11
HETATM   11  C   UNL     1       7.913  28.094  56.865  1.00  0.00     0.251 C 
HETATM   12  N   UNL     1       7.302  27.850  55.652  1.00  0.00    -0.357 N 
HETATM   13  H   UNL     1       6.494  28.389  55.371  1.00  0.00     0.162 HD
HETATM   14  O   UNL     1       8.758  27.349  57.351  1.00  0.00    -0.268 OA
BRANCH  12  15
HETATM   15  C   UNL     1       7.628  26.660  54.884  1.00  0.00     0.127 C 
BRANCH  15  16
HETATM   16  C   UNL     1       6.876  25.422  55.381  1.00  0.00     0.060 C 
BRANCH  16  17
HETATM   17  C   UNL     1       7.222  24.196  54.599  1.00  0.00    -0.029 A 
HETATM   18  C   UNL     1       7.671  22.949  55.144  1.00  0.00    -0.002 A 
HETATM   19  C   UNL     1       7.876  22.074  54.077  1.00  0.00     0.042 A 
HETATM   20  C   UNL     1       7.925  22.488  56.452  1.00  0.00     0.014 A 
HETATM   21  C   UNL     1       8.317  20.757  54.252  1.00  0.00     0.030 A 
HETATM   22  N   UNL     1       7.564  22.762  52.927  1.00  0.00    -0.365 N 
HETATM   23  C   UNL     1       8.557  20.322  55.559  1.00  0.00     0.002 A 
HETATM   24  C   UNL     1       8.366  21.173  56.645  1.00  0.00     0.001 A 
HETATM   25  H   UNL     1       7.621  22.373  51.997  1.00  0.00     0.165 HD
HETATM   26  C   UNL     1       7.172  24.039  53.228  1.00  0.00     0.096 A 
ENDBRANCH  16  17
ENDBRANCH  15  16
ENDBRANCH  12  15
ENDBRANCH   9  11
BRANCH   7  27
HETATM   27  N   UNL     1       5.087  32.034  56.923  1.00  0.00    -0.323 N 
HETATM   28  C   UNL     1       3.708  31.923  57.011  1.00  0.00     0.251 C 
HETATM   29  O   UNL     1       3.085  31.060  57.618  1.00  0.00    -0.270 OA
HETATM   30  H   UNL     1       5.371  32.972  56.637  1.00  0.00     0.169 HD
BRANCH  28  31
HETATM   31  C   UNL     1       3.014  33.048  56.216  1.00  0.00     0.213 C 
HETATM   32  O   UNL     1       1.771  32.559  55.665  1.00  0.00    -0.376 OA
HETATM   33  C   UNL     1       1.949  32.429  54.251  1.00  0.00     0.168 C 
HETATM   34  C   UNL     1       2.913  33.526  53.875  1.00  0.00     0.029 C 
HETATM   35  C   UNL     1       3.858  33.556  55.053  1.00  0.00     0.044 C 
ENDBRANCH  28  31
ENDBRANCH   7  27
BRANCH   3  36
HETATM   36  C   UNL     1       7.235  33.141  62.236  1.00  0.00     0.056 C 
HETATM   37  C   UNL     1       6.183  32.703  63.302  1.00  0.00     0.012 C 
HETATM   38  C   UNL     1       7.256  32.970  64.371  1.00  0.00     0.002 C 
HETATM   39  C   UNL     1       8.296  32.672  63.275  1.00  0.00     0.012 C 
ENDBRANCH   3  36
TORSDOF 7
ENDMDL
MODEL 7
REMARK VINA RESULT:     -10.1      2.049      2.915
REMARK  7 active torsions:
REMARK  status: ('A' for Active; 'I' for Inactive)
REMARK    1  A    between atoms: C_3  and  C_4 
REMARK    2  A    between atoms: C_11  and  N_12 
REMARK       I    between atoms: N_12  and  C_13 
REMARK    3  A    between atoms: C_13  and  C_14 
REMARK    4  A    between atoms: C_21  and  C_22 
REMARK       I    between atoms: C_22  and  N_23 
REMARK    5  A    between atoms: N_23  and  C_24 
REMARK    6  A    between atoms: C_24  and  C_25 
REMARK    7  A    between atoms: C_25  and  C_26 
ROOT
HETATM    1  C   UNL     1       6.633  25.372  52.192  1.00  0.00     0.158 C 
HETATM    2  N   UNL     1       6.379  25.689  53.577  1.00  0.00    -0.335 N 
HETATM    3  C   UNL     1       7.104  25.152  54.620  1.00  0.00     0.111 A 
HETATM    4  N   UNL     1       6.895  25.816  55.733  1.00  0.00    -0.233 NA
HETATM    5  C   UNL     1       5.977  26.777  55.415  1.00  0.00     0.089 A 
HETATM    6  C   UNL     1       5.565  26.686  54.080  1.00  0.00     0.091 A 
HETATM    7  C   UNL     1       4.603  27.567  53.552  1.00  0.00     0.065 A 
HETATM    8  C   UNL     1       4.161  28.600  54.399  1.00  0.00     0.049 A 
HETATM    9  C   UNL     1       4.565  28.702  55.735  1.00  0.00     0.036 A 
HETATM   10  C   UNL     1       5.473  27.782  56.258  1.00  0.00     0.051 A 
ENDROOT
BRANCH   9  11
HETATM   11  C   UNL     1       4.002  29.817  56.548  1.00  0.00     0.251 C 
HETATM   12  N   UNL     1       4.420  29.919  57.859  1.00  0.00    -0.357 N 
HETATM   13  H   UNL     1       4.962  29.177  58.279  1.00  0.00     0.162 HD
HETATM   14  O   UNL     1       3.178  30.575  56.048  1.00  0.00    -0.268 OA
BRANCH  12  15
HETATM   15  C   UNL     1       3.876  30.945  58.733  1.00  0.00     0.127 C 
BRANCH  15  16
HETATM   16  C   UNL     1       4.802  32.159  58.852  1.00  0.00     0.060 C 
BRANCH  16  17
HETATM   17  C   UNL     1       5.477  32.230  60.184  1.00  0.00    -0.029 A 
HETATM   18  C   UNL     1       6.885  32.115  60.421  1.00  0.00    -0.002 A 
HETATM   19  C   UNL     1       7.091  32.242  61.795  1.00  0.00     0.042 A 
HETATM   20  C   UNL     1       8.004  31.912  59.588  1.00  0.00     0.014 A 
HETATM   21  C   UNL     1       8.362  32.181  62.379  1.00  0.00     0.030 A 
HETATM   22  N   UNL     1       5.855  32.426  62.372  1.00  0.00    -0.365 N 
HETATM   23  C   UNL     1       9.456  31.982  61.531  1.00  0.00     0.002 A 
HETATM   24  C   UNL     1       9.282  31.848  60.155  1.00  0.00     0.001 A 
HETATM   25  H   UNL     1       5.701  32.547  63.362  1.00  0.00     0.165 HD
HETATM   26  C   UNL     1       4.877  32.419  61.413  1.00  0.00     0.096 A 
ENDBRANCH  16  17
ENDBRANCH  15  16
ENDBRANCH  12  15
ENDBRANCH   9  11
BRANCH   7  27
HETATM   27  N   UNL     1       4.037  27.542  52.267  1.00  0.00    -0.323 N 
HETATM   28  C   UNL     1       4.558  28.147  51.134  1.00  0.00     0.251 C 
HETATM   29  O   UNL     1       5.504  28.926  51.095  1.00  0.00    -0.270 OA
HETATM   30  H   UNL     1       3.475  26.724  52.030  1.00  0.00     0.169 HD
BRANCH  28  31
HETATM   31  C   UNL     1       3.778  27.721  49.874  1.00  0.00     0.213 C 
HETATM   32  O   UNL     1       4.539  26.734  49.141  1.00  0.00    -0.376 OA
HETATM   33  C   UNL     1       5.025  27.363  47.951  1.00  0.00     0.168 C 
HETATM   34  C   UNL     1       3.968  28.371  47.579  1.00  0.00     0.029 C 
HETATM   35  C   UNL     1       3.510  28.884  48.925  1.00  0.00     0.044 C 
ENDBRANCH  28  31
ENDBRANCH   7  27
BRANCH   3  36
HETATM   36  C   UNL     1       8.089  23.992  54.512  1.00  0.00     0.056 C 
HETATM   37  C   UNL     1       8.668  23.559  55.895  1.00  0.00     0.012 C 
HETATM   38  C   UNL     1       8.594  22.106  55.393  1.00  0.00     0.002 C 
HETATM   39  C   UNL     1       7.447  22.574  54.477  1.00  0.00     0.012 C 
ENDBRANCH   3  36
TORSDOF 7
ENDMDL
MODEL 8
REMARK VINA RESULT:     -10.0      3.021      9.903
REMARK  7 active torsions:
REMARK  status: ('A' for Active; 'I' for Inactive)
REMARK    1  A    between atoms: C_3  and  C_4 
REMARK    2  A    between atoms: C_11  and  N_12 
REMARK       I    between atoms: N_12  and  C_13 
REMARK    3  A    between atoms: C_13  and  C_14 
REMARK    4  A    between atoms: C_21  and  C_22 
REMARK       I    between atoms: C_22  and  N_23 
REMARK    5  A    between atoms: N_23  and  C_24 
REMARK    6  A    between atoms: C_24  and  C_25 
REMARK    7  A    between atoms: C_25  and  C_26 
ROOT
HETATM    1  C   UNL     1       7.793  25.291  56.690  1.00  0.00     0.158 C 
HETATM    2  N   UNL     1       7.636  24.763  55.357  1.00  0.00    -0.335 N 
HETATM    3  C   UNL     1       7.705  23.417  55.064  1.00  0.00     0.111 A 
HETATM    4  N   UNL     1       7.231  23.168  53.865  1.00  0.00    -0.233 NA
HETATM    5  C   UNL     1       6.890  24.387  53.349  1.00  0.00     0.089 A 
HETATM    6  C   UNL     1       7.200  25.432  54.229  1.00  0.00     0.091 A 
HETATM    7  C   UNL     1       6.953  26.774  53.882  1.00  0.00     0.065 A 
HETATM    8  C   UNL     1       6.288  26.998  52.662  1.00  0.00     0.049 A 
HETATM    9  C   UNL     1       5.974  25.963  51.775  1.00  0.00     0.036 A 
HETATM   10  C   UNL     1       6.282  24.644  52.110  1.00  0.00     0.051 A 
ENDROOT
BRANCH   9  11
HETATM   11  C   UNL     1       5.302  26.324  50.495  1.00  0.00     0.251 C 
HETATM   12  N   UNL     1       5.648  27.527  49.915  1.00  0.00    -0.357 N 
HETATM   13  H   UNL     1       6.214  28.193  50.423  1.00  0.00     0.162 HD
HETATM   14  O   UNL     1       4.457  25.571  50.021  1.00  0.00    -0.268 OA
BRANCH  12  15
HETATM   15  C   UNL     1       4.997  27.977  48.695  1.00  0.00     0.127 C 
BRANCH  15  16
HETATM   16  C   UNL     1       3.548  28.412  48.935  1.00  0.00     0.060 C 
BRANCH  16  17
HETATM   17  C   UNL     1       2.603  27.808  47.947  1.00  0.00    -0.029 A 
HETATM   18  C   UNL     1       1.433  28.434  47.408  1.00  0.00    -0.002 A 
HETATM   19  C   UNL     1       0.843  27.532  46.523  1.00  0.00     0.042 A 
HETATM   20  C   UNL     1       0.822  29.690  47.597  1.00  0.00     0.014 A 
HETATM   21  C   UNL     1      -0.327  27.823  45.812  1.00  0.00     0.030 A 
HETATM   22  N   UNL     1       1.624  26.398  46.525  1.00  0.00    -0.365 N 
HETATM   23  C   UNL     1      -0.912  29.077  46.014  1.00  0.00     0.002 A 
HETATM   24  C   UNL     1      -0.349  29.999  46.894  1.00  0.00     0.001 A 
HETATM   25  H   UNL     1       1.433  25.575  45.973  1.00  0.00     0.165 HD
HETATM   26  C   UNL     1       2.684  26.552  47.378  1.00  0.00     0.096 A 
ENDBRANCH  16  17
ENDBRANCH  15  16
ENDBRANCH  12  15
ENDBRANCH   9  11
BRANCH   7  27
HETATM   27  N   UNL     1       7.285  27.921  54.621  1.00  0.00    -0.323 N 
HETATM   28  C   UNL     1       6.451  28.595  55.499  1.00  0.00     0.251 C 
HETATM   29  O   UNL     1       5.251  28.401  55.657  1.00  0.00    -0.270 OA
HETATM   30  H   UNL     1       8.267  28.034  54.876  1.00  0.00     0.169 HD
BRANCH  28  31
HETATM   31  C   UNL     1       7.230  29.671  56.282  1.00  0.00     0.213 C 
HETATM   32  O   UNL     1       8.651  29.465  56.110  1.00  0.00    -0.376 OA
HETATM   33  C   UNL     1       9.168  28.979  57.352  1.00  0.00     0.168 C 
HETATM   34  C   UNL     1       8.316  29.627  58.413  1.00  0.00     0.029 C 
HETATM   35  C   UNL     1       6.945  29.635  57.779  1.00  0.00     0.044 C 
ENDBRANCH  28  31
ENDBRANCH   7  27
BRANCH   3  36
HETATM   36  C   UNL     1       8.186  22.326  56.015  1.00  0.00     0.056 C 
HETATM   37  C   UNL     1       7.478  20.957  55.773  1.00  0.00     0.012 C 
HETATM   38  C   UNL     1       8.830  20.284  56.068  1.00  0.00     0.002 C 
HETATM   39  C   UNL     1       9.486  21.588  55.579  1.00  0.00     0.012 C 
ENDBRANCH   3  36
TORSDOF 7
ENDMDL
MODEL 9
REMARK VINA RESULT:      -9.7      2.951      6.322
REMARK  7 active torsions:
REMARK  status: ('A' for Active; 'I' for Inactive)
REMARK    1  A    between atoms: C_3  and  C_4 
REMARK    2  A    between atoms: C_11  and  N_12 
REMARK       I    between atoms: N_12  and  C_13 
REMARK    3  A    between atoms: C_13  and  C_14 
REMARK    4  A    between atoms: C_21  and  C_22 
REMARK       I    between atoms: C_22  and  N_23 
REMARK    5  A    between atoms: N_23  and  C_24 
REMARK    6  A    between atoms: C_24  and  C_25 
REMARK    7  A    between atoms: C_25  and  C_26 
ROOT
HETATM    1  C   UNL     1       7.773  24.380  56.148  1.00  0.00     0.158 C 
HETATM    2  N   UNL     1       7.474  24.552  54.747  1.00  0.00    -0.335 N 
HETATM    3  C   UNL     1       7.348  23.498  53.867  1.00  0.00     0.111 A 
HETATM    4  N   UNL     1       6.781  23.881  52.746  1.00  0.00    -0.233 NA
HETATM    5  C   UNL     1       6.576  25.226  52.885  1.00  0.00     0.089 A 
HETATM    6  C   UNL     1       7.070  25.707  54.104  1.00  0.00     0.091 A 
HETATM    7  C   UNL     1       6.983  27.071  54.438  1.00  0.00     0.065 A 
HETATM    8  C   UNL     1       6.288  27.899  53.537  1.00  0.00     0.049 A 
HETATM    9  C   UNL     1       5.792  27.431  52.315  1.00  0.00     0.036 A 
HETATM   10  C   UNL     1       5.941  26.086  51.975  1.00  0.00     0.051 A 
ENDROOT
BRANCH   9  11
HETATM   11  C   UNL     1       5.105  28.407  51.424  1.00  0.00     0.251 C 
HETATM   12  N   UNL     1       5.488  29.729  51.516  1.00  0.00    -0.357 N 
HETATM   13  H   UNL     1       6.097  30.031  52.264  1.00  0.00     0.162 HD
HETATM   14  O   UNL     1       4.215  28.019  50.673  1.00  0.00    -0.268 OA
BRANCH  12  15
HETATM   15  C   UNL     1       4.828  30.750  50.720  1.00  0.00     0.127 C 
BRANCH  15  16
HETATM   16  C   UNL     1       3.700  31.447  51.488  1.00  0.00     0.060 C 
BRANCH  16  17
HETATM   17  C   UNL     1       4.188  32.107  52.738  1.00  0.00    -0.029 A 
HETATM   18  C   UNL     1       4.123  31.558  54.060  1.00  0.00    -0.002 A 
HETATM   19  C   UNL     1       4.688  32.490  54.929  1.00  0.00     0.042 A 
HETATM   20  C   UNL     1       3.630  30.350  54.594  1.00  0.00     0.014 A 
HETATM   21  C   UNL     1       4.791  32.274  56.309  1.00  0.00     0.030 A 
HETATM   22  N   UNL     1       5.081  33.566  54.166  1.00  0.00    -0.365 N 
HETATM   23  C   UNL     1       4.299  31.066  56.814  1.00  0.00     0.002 A 
HETATM   24  C   UNL     1       3.725  30.117  55.971  1.00  0.00     0.001 A 
HETATM   25  H   UNL     1       5.523  34.395  54.535  1.00  0.00     0.165 HD
HETATM   26  C   UNL     1       4.784  33.347  52.848  1.00  0.00     0.096 A 
ENDBRANCH  16  17
ENDBRANCH  15  16
ENDBRANCH  12  15
ENDBRANCH   9  11
BRANCH   7  27
HETATM   27  N   UNL     1       7.505  27.706  55.577  1.00  0.00    -0.323 N 
HETATM   28  C   UNL     1       6.885  27.800  56.814  1.00  0.00     0.251 C 
HETATM   29  O   UNL     1       5.728  27.488  57.073  1.00  0.00    -0.270 OA
HETATM   30  H   UNL     1       8.522  27.727  55.665  1.00  0.00     0.169 HD
BRANCH  28  31
HETATM   31  C   UNL     1       7.850  28.374  57.871  1.00  0.00     0.213 C 
HETATM   32  O   UNL     1       7.298  29.592  58.422  1.00  0.00    -0.376 OA
HETATM   33  C   UNL     1       8.080  30.682  57.923  1.00  0.00     0.168 C 
HETATM   34  C   UNL     1       9.473  30.128  57.770  1.00  0.00     0.029 C 
HETATM   35  C   UNL     1       9.219  28.716  57.296  1.00  0.00     0.044 C 
ENDBRANCH  28  31
ENDBRANCH   7  27
BRANCH   3  36
HETATM   36  C   UNL     1       7.733  22.050  54.155  1.00  0.00     0.056 C 
HETATM   37  C   UNL     1       7.626  21.133  52.897  1.00  0.00     0.012 C 
HETATM   38  C   UNL     1       8.894  20.418  53.395  1.00  0.00     0.002 C 
HETATM   39  C   UNL     1       9.257  21.741  54.096  1.00  0.00     0.012 C 
ENDBRANCH   3  36
TORSDOF 7
ENDMDL
MODEL 10
REMARK VINA RESULT:      -9.7      3.471     10.781
REMARK  7 active torsions:
REMARK  status: ('A' for Active; 'I' for Inactive)
REMARK    1  A    between atoms: C_3  and  C_4 
REMARK    2  A    between atoms: C_11  and  N_12 
REMARK       I    between atoms: N_12  and  C_13 
REMARK    3  A    between atoms: C_13  and  C_14 
REMARK    4  A    between atoms: C_21  and  C_22 
REMARK       I    between atoms: C_22  and  N_23 
REMARK    5  A    between atoms: N_23  and  C_24 
REMARK    6  A    between atoms: C_24  and  C_25 
REMARK    7  A    between atoms: C_25  and  C_26 
ROOT
HETATM    1  C   UNL     1       4.847  34.110  57.695  1.00  0.00     0.158 C 
HETATM    2  N   UNL     1       4.107  33.021  57.106  1.00  0.00    -0.335 N 
HETATM    3  C   UNL     1       3.061  33.206  56.227  1.00  0.00     0.111 A 
HETATM    4  N   UNL     1       2.762  32.089  55.604  1.00  0.00    -0.233 NA
HETATM    5  C   UNL     1       3.603  31.146  56.127  1.00  0.00     0.089 A 
HETATM    6  C   UNL     1       4.419  31.674  57.135  1.00  0.00     0.091 A 
HETATM    7  C   UNL     1       5.343  30.866  57.823  1.00  0.00     0.065 A 
HETATM    8  C   UNL     1       5.475  29.538  57.377  1.00  0.00     0.049 A 
HETATM    9  C   UNL     1       4.665  28.998  56.371  1.00  0.00     0.036 A 
HETATM   10  C   UNL     1       3.712  29.800  55.742  1.00  0.00     0.051 A 
ENDROOT
BRANCH   9  11
HETATM   11  C   UNL     1       4.870  27.568  56.006  1.00  0.00     0.251 C 
HETATM   12  N   UNL     1       5.048  26.670  57.038  1.00  0.00    -0.357 N 
HETATM   13  H   UNL     1       5.186  27.001  57.983  1.00  0.00     0.162 HD
HETATM   14  O   UNL     1       4.904  27.244  54.823  1.00  0.00    -0.268 OA
BRANCH  12  15
HETATM   15  C   UNL     1       5.309  25.266  56.762  1.00  0.00     0.127 C 
BRANCH  15  16
HETATM   16  C   UNL     1       6.803  24.973  56.597  1.00  0.00     0.060 C 
BRANCH  16  17
HETATM   17  C   UNL     1       7.118  24.364  55.269  1.00  0.00    -0.029 A 
HETATM   18  C   UNL     1       7.437  22.988  55.028  1.00  0.00    -0.002 A 
HETATM   19  C   UNL     1       7.657  22.842  53.658  1.00  0.00     0.042 A 
HETATM   20  C   UNL     1       7.560  21.853  55.855  1.00  0.00     0.014 A 
HETATM   21  C   UNL     1       7.990  21.615  53.072  1.00  0.00     0.030 A 
HETATM   22  N   UNL     1       7.481  24.081  53.088  1.00  0.00    -0.365 N 
HETATM   23  C   UNL     1       8.102  20.503  53.913  1.00  0.00     0.002 A 
HETATM   24  C   UNL     1       7.892  20.619  55.286  1.00  0.00     0.001 A 
HETATM   25  H   UNL     1       7.578  24.274  52.101  1.00  0.00     0.165 HD
HETATM   26  C   UNL     1       7.158  25.004  54.046  1.00  0.00     0.096 A 
ENDBRANCH  16  17
ENDBRANCH  15  16
ENDBRANCH  12  15
ENDBRANCH   9  11
BRANCH   7  27
HETATM   27  N   UNL     1       6.160  31.235  58.904  1.00  0.00    -0.323 N 
HETATM   28  C   UNL     1       7.546  31.255  58.908  1.00  0.00     0.251 C 
HETATM   29  O   UNL     1       8.283  30.810  58.035  1.00  0.00    -0.270 OA
HETATM   30  H   UNL     1       5.773  31.914  59.561  1.00  0.00     0.169 HD
BRANCH  28  31
HETATM   31  C   UNL     1       8.083  31.918  60.193  1.00  0.00     0.213 C 
HETATM   32  O   UNL     1       9.402  31.405  60.489  1.00  0.00    -0.376 OA
HETATM   33  C   UNL     1       9.286  30.559  61.638  1.00  0.00     0.168 C 
HETATM   34  C   UNL     1       8.178  31.166  62.462  1.00  0.00     0.029 C 
HETATM   35  C   UNL     1       7.206  31.644  61.408  1.00  0.00     0.044 C 
ENDBRANCH  28  31
ENDBRANCH   7  27
BRANCH   3  36
HETATM   36  C   UNL     1       2.374  34.535  55.932  1.00  0.00     0.056 C 
HETATM   37  C   UNL     1       1.002  34.360  55.210  1.00  0.00     0.012 C 
HETATM   38  C   UNL     1       0.483  35.533  56.059  1.00  0.00     0.002 C 
HETATM   39  C   UNL     1       1.539  35.128  57.105  1.00  0.00     0.012 C 
ENDBRANCH   3  36
TORSDOF 7
ENDMDL
