MODEL 1
REMARK VINA RESULT:      -8.5      0.000      0.000
REMARK  8 active torsions:
REMARK  status: ('A' for Active; 'I' for Inactive)
REMARK    1  A    between atoms: N_2  and  C_5 
REMARK    2  A    between atoms: C_5  and  C_6 
REMARK    3  A    between atoms: C_6  and  S_7 
REMARK    4  A    between atoms: S_7  and  C_8 
REMARK    5  A    between atoms: C_10  and  C_25 
REMARK    6  A    between atoms: C_13  and  N_14 
REMARK       I    between atoms: N_14  and  C_15 
REMARK       I    between atoms: C_15  and  N_17 
REMARK    7  A    between atoms: N_17  and  C_18 
REMARK    8  A    between atoms: C_18  and  C_19 
ROOT
HETATM    1  C   UNL     1       6.517  24.975  54.888  1.00  0.00     0.028 A 
HETATM    2  C   UNL     1       7.041  23.700  55.135  1.00  0.00     0.033 A 
HETATM    3  C   UNL     1       7.698  22.985  54.124  1.00  0.00    -0.022 A 
HETATM    4  C   UNL     1       7.826  23.576  52.861  1.00  0.00     0.014 A 
HETATM    5  C   UNL     1       7.289  24.844  52.602  1.00  0.00     0.032 A 
HETATM    6  C   UNL     1       6.613  25.542  53.604  1.00  0.00     0.053 A 
ENDROOT
BRANCH   6   7
HETATM    7  N   UNL     1       5.981  26.781  53.357  1.00  0.00    -0.308 N 
HETATM    8  C   UNL     1       6.612  27.979  53.182  1.00  0.00     0.321 C 
HETATM    9  O   UNL     1       7.766  28.207  53.530  1.00  0.00    -0.247 OA
HETATM   10  N   UNL     1       5.855  28.986  52.675  1.00  0.00    -0.339 N 
HETATM   11  H   UNL     1       6.412  29.803  52.445  1.00  0.00     0.164 HD
HETATM   12  H   UNL     1       4.972  26.780  53.418  1.00  0.00     0.170 HD
BRANCH  10  13
HETATM   13  C   UNL     1       4.580  28.870  51.995  1.00  0.00     0.162 C 
BRANCH  13  14
HETATM   14  C   UNL     1       4.746  28.408  50.574  1.00  0.00    -0.040 A 
HETATM   15  C   UNL     1       5.214  29.293  49.593  1.00  0.00     0.009 A 
HETATM   16  C   UNL     1       5.377  28.868  48.274  1.00  0.00     0.001 A 
HETATM   17  C   UNL     1       5.075  27.554  47.920  1.00  0.00     0.000 A 
HETATM   18  C   UNL     1       4.614  26.662  48.886  1.00  0.00     0.001 A 
HETATM   19  C   UNL     1       4.455  27.084  50.207  1.00  0.00     0.009 A 
ENDBRANCH  13  14
ENDBRANCH  10  13
ENDBRANCH   6   7
BRANCH   1  20
HETATM   20  S   UNL     1       5.878  25.952  56.256  1.00  0.00    -0.126 SA
BRANCH  20  21
HETATM   21  C   UNL     1       7.446  26.269  57.165  1.00  0.00     0.107 C 
BRANCH  21  22
HETATM   22  C   UNL     1       7.601  27.711  57.678  1.00  0.00     0.244 C 
BRANCH  22  23
HETATM   23  N   UNL     1       7.830  28.707  56.557  1.00  0.00    -0.078 N 
HETATM   24  C   UNL     1       6.808  29.805  56.507  1.00  0.00     0.269 C 
HETATM   25  H   UNL     1       7.759  28.172  55.679  1.00  0.00     0.279 HD
HETATM   26  C   UNL     1       9.233  29.260  56.571  1.00  0.00     0.269 C 
ENDBRANCH  22  23
ENDBRANCH  21  22
ENDBRANCH  20  21
ENDBRANCH   1  20
BRANCH   3  27
HETATM   27  C   UNL     1       8.237  21.662  54.401  1.00  0.00     0.010 A 
HETATM   28  C   UNL     1       8.550  20.591  53.529  1.00  0.00     0.152 A 
HETATM   29  N   UNL     1       9.001  19.513  54.173  1.00  0.00    -0.187 NA
HETATM   30  N   UNL     1       9.013  19.894  55.459  1.00  0.00    -0.289 N 
HETATM   31  H   UNL     1       9.343  19.232  56.154  1.00  0.00     0.188 HD
HETATM   32  C   UNL     1       8.549  21.166  55.649  1.00  0.00     0.123 A 
ENDBRANCH   3  27
TORSDOF 8
ENDMDL
MODEL 2
REMARK VINA RESULT:      -8.4      2.897      7.148
REMARK  8 active torsions:
REMARK  status: ('A' for Active; 'I' for Inactive)
REMARK    1  A    between atoms: N_2  and  C_5 
REMARK    2  A    between atoms: C_5  and  C_6 
REMARK    3  A    between atoms: C_6  and  S_7 
REMARK    4  A    between atoms: S_7  and  C_8 
REMARK    5  A    between atoms: C_10  and  C_25 
REMARK    6  A    between atoms: C_13  and  N_14 
REMARK       I    between atoms: N_14  and  C_15 
REMARK       I    between atoms: C_15  and  N_17 
REMARK    7  A    between atoms: N_17  and  C_18 
REMARK    8  A    between atoms: C_18  and  C_19 
ROOT
HETATM    1  C   UNL     1       7.455  26.372  54.999  1.00  0.00     0.028 A 
HETATM    2  C   UNL     1       7.536  25.085  54.452  1.00  0.00     0.033 A 
HETATM    3  C   UNL     1       7.682  23.962  55.277  1.00  0.00    -0.022 A 
HETATM    4  C   UNL     1       7.739  24.153  56.664  1.00  0.00     0.014 A 
HETATM    5  C   UNL     1       7.677  25.438  57.216  1.00  0.00     0.032 A 
HETATM    6  C   UNL     1       7.556  26.557  56.389  1.00  0.00     0.053 A 
ENDROOT
BRANCH   6   7
HETATM    7  N   UNL     1       7.581  27.873  56.903  1.00  0.00    -0.308 N 
HETATM    8  C   UNL     1       6.551  28.501  57.540  1.00  0.00     0.321 C 
HETATM    9  O   UNL     1       5.379  28.144  57.471  1.00  0.00    -0.247 OA
HETATM   10  N   UNL     1       6.864  29.643  58.204  1.00  0.00    -0.339 N 
HETATM   11  H   UNL     1       6.088  29.985  58.763  1.00  0.00     0.164 HD
HETATM   12  H   UNL     1       8.404  28.416  56.681  1.00  0.00     0.170 HD
BRANCH  10  13
HETATM   13  C   UNL     1       8.184  30.096  58.599  1.00  0.00     0.162 C 
BRANCH  13  14
HETATM   14  C   UNL     1       8.144  30.877  59.883  1.00  0.00    -0.040 A 
HETATM   15  C   UNL     1       7.268  31.962  60.024  1.00  0.00     0.009 A 
HETATM   16  C   UNL     1       7.222  32.686  61.216  1.00  0.00     0.001 A 
HETATM   17  C   UNL     1       8.049  32.334  62.281  1.00  0.00     0.000 A 
HETATM   18  C   UNL     1       8.921  31.255  62.157  1.00  0.00     0.001 A 
HETATM   19  C   UNL     1       8.965  30.525  60.967  1.00  0.00     0.009 A 
ENDBRANCH  13  14
ENDBRANCH  10  13
ENDBRANCH   6   7
BRANCH   1  20
HETATM   20  S   UNL     1       7.049  27.764  53.935  1.00  0.00    -0.126 SA
BRANCH  20  21
HETATM   21  C   UNL     1       5.213  27.670  53.995  1.00  0.00     0.107 C 
BRANCH  21  22
HETATM   22  C   UNL     1       4.544  27.437  52.628  1.00  0.00     0.244 C 
BRANCH  22  23
HETATM   23  N   UNL     1       5.219  26.338  51.830  1.00  0.00    -0.078 N 
HETATM   24  C   UNL     1       4.825  24.954  52.257  1.00  0.00     0.269 C 
HETATM   25  H   UNL     1       6.230  26.442  51.996  1.00  0.00     0.279 HD
HETATM   26  C   UNL     1       5.040  26.527  50.344  1.00  0.00     0.269 C 
ENDBRANCH  22  23
ENDBRANCH  21  22
ENDBRANCH  20  21
ENDBRANCH   1  20
BRANCH   3  27
HETATM   27  C   UNL     1       7.762  22.633  54.690  1.00  0.00     0.010 A 
HETATM   28  C   UNL     1       7.839  22.224  53.336  1.00  0.00     0.152 A 
HETATM   29  N   UNL     1       7.867  20.898  53.196  1.00  0.00    -0.187 NA
HETATM   30  N   UNL     1       7.841  20.445  54.459  1.00  0.00    -0.289 N 
HETATM   31  H   UNL     1       7.873  19.442  54.611  1.00  0.00     0.188 HD
HETATM   32  C   UNL     1       7.761  21.444  55.389  1.00  0.00     0.123 A 
ENDBRANCH   3  27
TORSDOF 8
ENDMDL
MODEL 3
REMARK VINA RESULT:      -8.2      2.499      6.992
REMARK  8 active torsions:
REMARK  status: ('A' for Active; 'I' for Inactive)
REMARK    1  A    between atoms: N_2  and  C_5 
REMARK    2  A    between atoms: C_5  and  C_6 
REMARK    3  A    between atoms: C_6  and  S_7 
REMARK    4  A    between atoms: S_7  and  C_8 
REMARK    5  A    between atoms: C_10  and  C_25 
REMARK    6  A    between atoms: C_13  and  N_14 
REMARK       I    between atoms: N_14  and  C_15 
REMARK       I    between atoms: C_15  and  N_17 
REMARK    7  A    between atoms: N_17  and  C_18 
REMARK    8  A    between atoms: C_18  and  C_19 
ROOT
HETATM    1  C   UNL     1       6.607  27.051  53.548  1.00  0.00     0.028 A 
HETATM    2  C   UNL     1       6.036  27.460  52.336  1.00  0.00     0.033 A 
HETATM    3  C   UNL     1       5.272  26.572  51.566  1.00  0.00    -0.022 A 
HETATM    4  C   UNL     1       5.086  25.266  52.039  1.00  0.00     0.014 A 
HETATM    5  C   UNL     1       5.669  24.846  53.241  1.00  0.00     0.032 A 
HETATM    6  C   UNL     1       6.450  25.726  53.992  1.00  0.00     0.053 A 
ENDROOT
BRANCH   6   7
HETATM    7  N   UNL     1       7.127  25.314  55.162  1.00  0.00    -0.308 N 
HETATM    8  C   UNL     1       6.539  24.858  56.307  1.00  0.00     0.321 C 
HETATM    9  O   UNL     1       5.362  25.045  56.597  1.00  0.00    -0.247 OA
HETATM   10  N   UNL     1       7.360  24.247  57.199  1.00  0.00    -0.339 N 
HETATM   11  H   UNL     1       6.843  23.817  57.959  1.00  0.00     0.164 HD
HETATM   12  H   UNL     1       8.125  25.471  55.171  1.00  0.00     0.170 HD
BRANCH  10  13
HETATM   13  C   UNL     1       8.691  23.727  56.955  1.00  0.00     0.162 C 
BRANCH  13  14
HETATM   14  C   UNL     1       8.656  22.477  56.121  1.00  0.00    -0.040 A 
HETATM   15  C   UNL     1       8.335  21.244  56.708  1.00  0.00     0.009 A 
HETATM   16  C   UNL     1       8.295  20.082  55.938  1.00  0.00     0.001 A 
HETATM   17  C   UNL     1       8.574  20.136  54.574  1.00  0.00     0.000 A 
HETATM   18  C   UNL     1       8.889  21.355  53.976  1.00  0.00     0.001 A 
HETATM   19  C   UNL     1       8.925  22.520  54.744  1.00  0.00     0.009 A 
ENDBRANCH  13  14
ENDBRANCH  10  13
ENDBRANCH   6   7
BRANCH   1  20
HETATM   20  S   UNL     1       7.392  28.269  54.614  1.00  0.00    -0.126 SA
BRANCH  20  21
HETATM   21  C   UNL     1       5.917  28.861  55.541  1.00  0.00     0.107 C 
BRANCH  21  22
HETATM   22  C   UNL     1       5.887  28.440  57.020  1.00  0.00     0.244 C 
BRANCH  22  23
HETATM   23  N   UNL     1       6.355  29.544  57.949  1.00  0.00    -0.078 N 
HETATM   24  C   UNL     1       7.816  29.469  58.286  1.00  0.00     0.269 C 
HETATM   25  H   UNL     1       5.824  29.426  58.825  1.00  0.00     0.279 HD
HETATM   26  C   UNL     1       5.978  30.911  57.437  1.00  0.00     0.269 C 
ENDBRANCH  22  23
ENDBRANCH  21  22
ENDBRANCH  20  21
ENDBRANCH   1  20
BRANCH   3  27
HETATM   27  C   UNL     1       4.686  27.016  50.311  1.00  0.00     0.010 A 
HETATM   28  C   UNL     1       4.249  26.278  49.183  1.00  0.00     0.152 A 
HETATM   29  N   UNL     1       3.792  27.056  48.201  1.00  0.00    -0.187 NA
HETATM   30  N   UNL     1       3.899  28.296  48.702  1.00  0.00    -0.289 N 
HETATM   31  H   UNL     1       3.588  29.075  48.130  1.00  0.00     0.188 HD
HETATM   32  C   UNL     1       4.444  28.326  49.955  1.00  0.00     0.123 A 
ENDBRANCH   3  27
TORSDOF 8
ENDMDL
MODEL 4
REMARK VINA RESULT:      -7.9      2.927      7.300
REMARK  8 active torsions:
REMARK  status: ('A' for Active; 'I' for Inactive)
REMARK    1  A    between atoms: N_2  and  C_5 
REMARK    2  A    between atoms: C_5  and  C_6 
REMARK    3  A    between atoms: C_6  and  S_7 
REMARK    4  A    between atoms: S_7  and  C_8 
REMARK    5  A    between atoms: C_10  and  C_25 
REMARK    6  A    between atoms: C_13  and  N_14 
REMARK       I    between atoms: N_14  and  C_15 
REMARK       I    between atoms: C_15  and  N_17 
REMARK    7  A    between atoms: N_17  and  C_18 
REMARK    8  A    between atoms: C_18  and  C_19 
ROOT
HETATM    1  C   UNL     1       5.568  28.123  55.504  1.00  0.00     0.028 A 
HETATM    2  C   UNL     1       4.820  29.016  54.726  1.00  0.00     0.033 A 
HETATM    3  C   UNL     1       4.273  28.614  53.499  1.00  0.00    -0.022 A 
HETATM    4  C   UNL     1       4.487  27.298  53.070  1.00  0.00     0.014 A 
HETATM    5  C   UNL     1       5.249  26.407  53.835  1.00  0.00     0.032 A 
HETATM    6  C   UNL     1       5.813  26.817  55.044  1.00  0.00     0.053 A 
ENDROOT
BRANCH   6   7
HETATM    7  N   UNL     1       6.661  25.975  55.798  1.00  0.00    -0.308 N 
HETATM    8  C   UNL     1       6.258  25.060  56.727  1.00  0.00     0.321 C 
HETATM    9  O   UNL     1       5.155  25.064  57.264  1.00  0.00    -0.247 OA
HETATM   10  N   UNL     1       7.194  24.160  57.126  1.00  0.00    -0.339 N 
HETATM   11  H   UNL     1       6.796  23.431  57.710  1.00  0.00     0.164 HD
HETATM   12  H   UNL     1       7.652  26.151  55.703  1.00  0.00     0.170 HD
BRANCH  10  13
HETATM   13  C   UNL     1       8.443  23.839  56.464  1.00  0.00     0.162 C 
BRANCH  13  14
HETATM   14  C   UNL     1       8.247  22.836  55.361  1.00  0.00    -0.040 A 
HETATM   15  C   UNL     1       8.119  21.472  55.661  1.00  0.00     0.009 A 
HETATM   16  C   UNL     1       7.931  20.538  54.642  1.00  0.00     0.001 A 
HETATM   17  C   UNL     1       7.867  20.953  53.314  1.00  0.00     0.000 A 
HETATM   18  C   UNL     1       7.988  22.306  53.002  1.00  0.00     0.001 A 
HETATM   19  C   UNL     1       8.171  23.244  54.020  1.00  0.00     0.009 A 
ENDBRANCH  13  14
ENDBRANCH  10  13
ENDBRANCH   6   7
BRANCH   1  20
HETATM   20  S   UNL     1       6.067  28.598  57.166  1.00  0.00    -0.126 SA
BRANCH  20  21
HETATM   21  C   UNL     1       7.844  28.964  56.859  1.00  0.00     0.107 C 
BRANCH  21  22
HETATM   22  C   UNL     1       8.596  29.526  58.079  1.00  0.00     0.244 C 
BRANCH  22  23
HETATM   23  N   UNL     1       9.997  29.993  57.734  1.00  0.00    -0.078 N 
HETATM   24  C   UNL     1      10.348  29.827  56.284  1.00  0.00     0.269 C 
HETATM   25  H   UNL     1      10.639  29.404  58.283  1.00  0.00     0.279 HD
HETATM   26  C   UNL     1      10.253  31.403  58.205  1.00  0.00     0.269 C 
ENDBRANCH  22  23
ENDBRANCH  21  22
ENDBRANCH  20  21
ENDBRANCH   1  20
BRANCH   3  27
HETATM   27  C   UNL     1       3.497  29.555  52.706  1.00  0.00     0.010 A 
HETATM   28  C   UNL     1       2.851  29.397  51.456  1.00  0.00     0.152 A 
HETATM   29  N   UNL     1       2.259  30.515  51.033  1.00  0.00    -0.187 NA
HETATM   30  N   UNL     1       2.491  31.391  52.023  1.00  0.00    -0.289 N 
HETATM   31  H   UNL     1       2.114  32.329  51.934  1.00  0.00     0.188 HD
HETATM   32  C   UNL     1       3.242  30.869  53.039  1.00  0.00     0.123 A 
ENDBRANCH   3  27
TORSDOF 8
ENDMDL
MODEL 5
REMARK VINA RESULT:      -7.7      1.876      2.653
REMARK  8 active torsions:
REMARK  status: ('A' for Active; 'I' for Inactive)
REMARK    1  A    between atoms: N_2  and  C_5 
REMARK    2  A    between atoms: C_5  and  C_6 
REMARK    3  A    between atoms: C_6  and  S_7 
REMARK    4  A    between atoms: S_7  and  C_8 
REMARK    5  A    between atoms: C_10  and  C_25 
REMARK    6  A    between atoms: C_13  and  N_14 
REMARK       I    between atoms: N_14  and  C_15 
REMARK       I    between atoms: C_15  and  N_17 
REMARK    7  A    between atoms: N_17  and  C_18 
REMARK    8  A    between atoms: C_18  and  C_19 
ROOT
HETATM    1  C   UNL     1       6.392  25.493  53.770  1.00  0.00     0.028 A 
HETATM    2  C   UNL     1       6.694  24.411  54.608  1.00  0.00     0.033 A 
HETATM    3  C   UNL     1       7.526  23.372  54.169  1.00  0.00    -0.022 A 
HETATM    4  C   UNL     1       8.055  23.441  52.874  1.00  0.00     0.014 A 
HETATM    5  C   UNL     1       7.743  24.510  52.024  1.00  0.00     0.032 A 
HETATM    6  C   UNL     1       6.894  25.530  52.457  1.00  0.00     0.053 A 
ENDROOT
BRANCH   6   7
HETATM    7  N   UNL     1       6.484  26.576  51.600  1.00  0.00    -0.308 N 
HETATM    8  C   UNL     1       5.355  26.584  50.832  1.00  0.00     0.321 C 
HETATM    9  O   UNL     1       4.719  25.579  50.533  1.00  0.00    -0.247 OA
HETATM   10  N   UNL     1       4.996  27.784  50.307  1.00  0.00    -0.339 N 
HETATM   11  H   UNL     1       4.084  27.748  49.864  1.00  0.00     0.164 HD
HETATM   12  H   UNL     1       7.145  27.331  51.479  1.00  0.00     0.170 HD
BRANCH  10  13
HETATM   13  C   UNL     1       5.456  29.096  50.718  1.00  0.00     0.162 C 
BRANCH  13  14
HETATM   14  C   UNL     1       5.330  30.103  49.609  1.00  0.00    -0.040 A 
HETATM   15  C   UNL     1       4.626  29.783  48.439  1.00  0.00     0.009 A 
HETATM   16  C   UNL     1       4.501  30.715  47.410  1.00  0.00     0.001 A 
HETATM   17  C   UNL     1       5.075  31.978  47.536  1.00  0.00     0.000 A 
HETATM   18  C   UNL     1       5.773  32.313  48.694  1.00  0.00     0.001 A 
HETATM   19  C   UNL     1       5.896  31.382  49.728  1.00  0.00     0.009 A 
ENDBRANCH  13  14
ENDBRANCH  10  13
ENDBRANCH   6   7
BRANCH   1  20
HETATM   20  S   UNL     1       5.507  26.910  54.435  1.00  0.00    -0.126 SA
BRANCH  20  21
HETATM   21  C   UNL     1       5.544  26.483  56.224  1.00  0.00     0.107 C 
BRANCH  21  22
HETATM   22  C   UNL     1       6.072  27.606  57.134  1.00  0.00     0.244 C 
BRANCH  22  23
HETATM   23  N   UNL     1       7.445  27.299  57.701  1.00  0.00    -0.078 N 
HETATM   24  C   UNL     1       7.766  25.833  57.743  1.00  0.00     0.269 C 
HETATM   25  H   UNL     1       7.439  27.647  58.671  1.00  0.00     0.279 HD
HETATM   26  C   UNL     1       8.532  28.081  57.007  1.00  0.00     0.269 C 
ENDBRANCH  22  23
ENDBRANCH  21  22
ENDBRANCH  20  21
ENDBRANCH   1  20
BRANCH   3  27
HETATM   27  C   UNL     1       7.829  22.259  55.055  1.00  0.00     0.010 A 
HETATM   28  C   UNL     1       8.230  22.242  56.413  1.00  0.00     0.152 A 
HETATM   29  N   UNL     1       8.447  21.009  56.874  1.00  0.00    -0.187 NA
HETATM   30  N   UNL     1       8.155  20.223  55.827  1.00  0.00    -0.289 N 
HETATM   31  H   UNL     1       8.230  19.218  55.944  1.00  0.00     0.188 HD
HETATM   32  C   UNL     1       7.797  20.924  54.709  1.00  0.00     0.123 A 
ENDBRANCH   3  27
TORSDOF 8
ENDMDL
MODEL 6
REMARK VINA RESULT:      -7.7      3.448      7.569
REMARK  8 active torsions:
REMARK  status: ('A' for Active; 'I' for Inactive)
REMARK    1  A    between atoms: N_2  and  C_5 
REMARK    2  A    between atoms: C_5  and  C_6 
REMARK    3  A    between atoms: C_6  and  S_7 
REMARK    4  A    between atoms: S_7  and  C_8 
REMARK    5  A    between atoms: C_10  and  C_25 
REMARK    6  A    between atoms: C_13  and  N_14 
REMARK       I    between atoms: N_14  and  C_15 
REMARK       I    between atoms: C_15  and  N_17 
REMARK    7  A    between atoms: N_17  and  C_18 
REMARK    8  A    between atoms: C_18  and  C_19 
ROOT
HETATM    1  C   UNL     1       6.043  29.159  56.728  1.00  0.00     0.028 A 
HETATM    2  C   UNL     1       6.560  30.040  57.686  1.00  0.00     0.033 A 
HETATM    3  C   UNL     1       7.898  29.954  58.094  1.00  0.00    -0.022 A 
HETATM    4  C   UNL     1       8.711  28.969  57.517  1.00  0.00     0.014 A 
HETATM    5  C   UNL     1       8.195  28.074  56.572  1.00  0.00     0.032 A 
HETATM    6  C   UNL     1       6.856  28.147  56.187  1.00  0.00     0.053 A 
ENDROOT
BRANCH   6   7
HETATM    7  N   UNL     1       6.278  27.205  55.306  1.00  0.00    -0.308 N 
HETATM    8  C   UNL     1       6.516  27.115  53.965  1.00  0.00     0.321 C 
HETATM    9  O   UNL     1       7.000  28.018  53.290  1.00  0.00    -0.247 OA
HETATM   10  N   UNL     1       6.093  25.978  53.356  1.00  0.00    -0.339 N 
HETATM   11  H   UNL     1       6.418  25.915  52.397  1.00  0.00     0.164 HD
HETATM   12  H   UNL     1       5.552  26.623  55.699  1.00  0.00     0.170 HD
BRANCH  10  13
HETATM   13  C   UNL     1       5.726  24.726  53.990  1.00  0.00     0.162 C 
BRANCH  13  14
HETATM   14  C   UNL     1       6.921  23.836  54.196  1.00  0.00    -0.040 A 
HETATM   15  C   UNL     1       7.559  23.787  55.444  1.00  0.00     0.009 A 
HETATM   16  C   UNL     1       8.663  22.957  55.642  1.00  0.00     0.001 A 
HETATM   17  C   UNL     1       9.142  22.168  54.599  1.00  0.00     0.000 A 
HETATM   18  C   UNL     1       8.515  22.203  53.356  1.00  0.00     0.001 A 
HETATM   19  C   UNL     1       7.406  23.028  53.156  1.00  0.00     0.009 A 
ENDBRANCH  13  14
ENDBRANCH  10  13
ENDBRANCH   6   7
BRANCH   1  20
HETATM   20  S   UNL     1       4.392  29.434  56.069  1.00  0.00    -0.126 SA
BRANCH  20  21
HETATM   21  C   UNL     1       3.714  30.523  57.387  1.00  0.00     0.107 C 
BRANCH  21  22
HETATM   22  C   UNL     1       3.552  31.996  56.972  1.00  0.00     0.244 C 
BRANCH  22  23
HETATM   23  N   UNL     1       3.671  32.948  58.147  1.00  0.00    -0.078 N 
HETATM   24  C   UNL     1       4.075  32.277  59.428  1.00  0.00     0.269 C 
HETATM   25  H   UNL     1       2.733  33.351  58.286  1.00  0.00     0.279 HD
HETATM   26  C   UNL     1       4.565  34.123  57.835  1.00  0.00     0.269 C 
ENDBRANCH  22  23
ENDBRANCH  21  22
ENDBRANCH  20  21
ENDBRANCH   1  20
BRANCH   3  27
HETATM   27  C   UNL     1       8.417  30.880  59.089  1.00  0.00     0.010 A 
HETATM   28  C   UNL     1       9.610  31.643  59.107  1.00  0.00     0.152 A 
HETATM   29  N   UNL     1       9.749  32.360  60.224  1.00  0.00    -0.187 NA
HETATM   30  N   UNL     1       8.632  32.090  60.916  1.00  0.00    -0.289 N 
HETATM   31  H   UNL     1       8.500  32.545  61.813  1.00  0.00     0.188 HD
HETATM   32  C   UNL     1       7.811  31.196  60.286  1.00  0.00     0.123 A 
ENDBRANCH   3  27
TORSDOF 8
ENDMDL
MODEL 7
REMARK VINA RESULT:      -7.5      2.911      8.200
REMARK  8 active torsions:
REMARK  status: ('A' for Active; 'I' for Inactive)
REMARK    1  A    between atoms: N_2  and  C_5 
REMARK    2  A    between atoms: C_5  and  C_6 
REMARK    3  A    between atoms: C_6  and  S_7 
REMARK    4  A    between atoms: S_7  and  C_8 
REMARK    5  A    between atoms: C_10  and  C_25 
REMARK    6  A    between atoms: C_13  and  N_14 
REMARK       I    between atoms: N_14  and  C_15 
REMARK       I    between atoms: C_15  and  N_17 
REMARK    7  A    between atoms: N_17  and  C_18 
REMARK    8  A    between atoms: C_18  and  C_19 
ROOT
HETATM    1  C   UNL     1       5.214  27.908  50.793  1.00  0.00     0.028 A 
HETATM    2  C   UNL     1       4.622  28.694  49.795  1.00  0.00     0.033 A 
HETATM    3  C   UNL     1       4.009  28.101  48.683  1.00  0.00    -0.022 A 
HETATM    4  C   UNL     1       3.995  26.703  48.593  1.00  0.00     0.014 A 
HETATM    5  C   UNL     1       4.600  25.912  49.578  1.00  0.00     0.032 A 
HETATM    6  C   UNL     1       5.232  26.507  50.672  1.00  0.00     0.053 A 
ENDROOT
BRANCH   6   7
HETATM    7  N   UNL     1       5.931  25.748  51.637  1.00  0.00    -0.308 N 
HETATM    8  C   UNL     1       5.370  25.086  52.691  1.00  0.00     0.321 C 
HETATM    9  O   UNL     1       4.248  25.316  53.131  1.00  0.00    -0.247 OA
HETATM   10  N   UNL     1       6.167  24.189  53.327  1.00  0.00    -0.339 N 
HETATM   11  H   UNL     1       5.653  23.639  54.008  1.00  0.00     0.164 HD
HETATM   12  H   UNL     1       6.939  25.793  51.587  1.00  0.00     0.170 HD
BRANCH  10  13
HETATM   13  C   UNL     1       7.403  23.610  52.838  1.00  0.00     0.162 C 
BRANCH  13  14
HETATM   14  C   UNL     1       7.796  22.390  53.625  1.00  0.00    -0.040 A 
HETATM   15  C   UNL     1       8.332  21.271  52.974  1.00  0.00     0.009 A 
HETATM   16  C   UNL     1       8.705  20.139  53.700  1.00  0.00     0.001 A 
HETATM   17  C   UNL     1       8.548  20.113  55.084  1.00  0.00     0.000 A 
HETATM   18  C   UNL     1       8.021  21.220  55.745  1.00  0.00     0.001 A 
HETATM   19  C   UNL     1       7.652  22.355  55.021  1.00  0.00     0.009 A 
ENDBRANCH  13  14
ENDBRANCH  10  13
ENDBRANCH   6   7
BRANCH   1  20
HETATM   20  S   UNL     1       5.795  28.687  52.307  1.00  0.00    -0.126 SA
BRANCH  20  21
HETATM   21  C   UNL     1       4.185  28.926  53.165  1.00  0.00     0.107 C 
BRANCH  21  22
HETATM   22  C   UNL     1       4.200  28.551  54.657  1.00  0.00     0.244 C 
BRANCH  22  23
HETATM   23  N   UNL     1       4.143  29.766  55.564  1.00  0.00    -0.078 N 
HETATM   24  C   UNL     1       5.495  30.300  55.942  1.00  0.00     0.269 C 
HETATM   25  H   UNL     1       3.674  29.458  56.428  1.00  0.00     0.279 HD
HETATM   26  C   UNL     1       3.260  30.851  54.999  1.00  0.00     0.269 C 
ENDBRANCH  22  23
ENDBRANCH  21  22
ENDBRANCH  20  21
ENDBRANCH   1  20
BRANCH   3  27
HETATM   27  C   UNL     1       3.399  28.934  47.659  1.00  0.00     0.010 A 
HETATM   28  C   UNL     1       3.893  30.075  46.980  1.00  0.00     0.152 A 
HETATM   29  N   UNL     1       3.012  30.588  46.120  1.00  0.00    -0.187 NA
HETATM   30  N   UNL     1       1.959  29.762  46.214  1.00  0.00    -0.289 N 
HETATM   31  H   UNL     1       1.151  29.943  45.627  1.00  0.00     0.188 HD
HETATM   32  C   UNL     1       2.135  28.766  47.134  1.00  0.00     0.123 A 
ENDBRANCH   3  27
TORSDOF 8
ENDMDL
MODEL 8
REMARK VINA RESULT:      -7.5      3.041      7.487
REMARK  8 active torsions:
REMARK  status: ('A' for Active; 'I' for Inactive)
REMARK    1  A    between atoms: N_2  and  C_5 
REMARK    2  A    between atoms: C_5  and  C_6 
REMARK    3  A    between atoms: C_6  and  S_7 
REMARK    4  A    between atoms: S_7  and  C_8 
REMARK    5  A    between atoms: C_10  and  C_25 
REMARK    6  A    between atoms: C_13  and  N_14 
REMARK       I    between atoms: N_14  and  C_15 
REMARK       I    between atoms: C_15  and  N_17 
REMARK    7  A    between atoms: N_17  and  C_18 
REMARK    8  A    between atoms: C_18  and  C_19 
ROOT
HETATM    1  C   UNL     1       6.054  28.103  55.454  1.00  0.00     0.028 A 
HETATM    2  C   UNL     1       5.277  28.998  54.706  1.00  0.00     0.033 A 
HETATM    3  C   UNL     1       4.539  28.557  53.600  1.00  0.00    -0.022 A 
HETATM    4  C   UNL     1       4.589  27.199  53.260  1.00  0.00     0.014 A 
HETATM    5  C   UNL     1       5.378  26.303  53.992  1.00  0.00     0.032 A 
HETATM    6  C   UNL     1       6.132  26.750  55.078  1.00  0.00     0.053 A 
ENDROOT
BRANCH   6   7
HETATM    7  N   UNL     1       7.008  25.895  55.784  1.00  0.00    -0.308 N 
HETATM    8  C   UNL     1       6.646  25.004  56.753  1.00  0.00     0.321 C 
HETATM    9  O   UNL     1       5.584  25.047  57.366  1.00  0.00    -0.247 OA
HETATM   10  N   UNL     1       7.583  24.084  57.100  1.00  0.00    -0.339 N 
HETATM   11  H   UNL     1       7.208  23.375  57.722  1.00  0.00     0.164 HD
HETATM   12  H   UNL     1       7.994  26.041  55.617  1.00  0.00     0.170 HD
BRANCH  10  13
HETATM   13  C   UNL     1       8.773  23.719  56.358  1.00  0.00     0.162 C 
BRANCH  13  14
HETATM   14  C   UNL     1       8.486  22.661  55.329  1.00  0.00    -0.040 A 
HETATM   15  C   UNL     1       8.467  21.307  55.694  1.00  0.00     0.009 A 
HETATM   16  C   UNL     1       8.195  20.321  54.745  1.00  0.00     0.001 A 
HETATM   17  C   UNL     1       7.936  20.675  53.423  1.00  0.00     0.000 A 
HETATM   18  C   UNL     1       7.946  22.017  53.047  1.00  0.00     0.001 A 
HETATM   19  C   UNL     1       8.213  23.006  53.996  1.00  0.00     0.009 A 
ENDBRANCH  13  14
ENDBRANCH  10  13
ENDBRANCH   6   7
BRANCH   1  20
HETATM   20  S   UNL     1       6.810  28.655  56.990  1.00  0.00    -0.126 SA
BRANCH  20  21
HETATM   21  C   UNL     1       5.541  29.868  57.538  1.00  0.00     0.107 C 
BRANCH  21  22
HETATM   22  C   UNL     1       6.085  31.286  57.789  1.00  0.00     0.244 C 
BRANCH  22  23
HETATM   23  N   UNL     1       5.145  32.129  58.629  1.00  0.00    -0.078 N 
HETATM   24  C   UNL     1       3.779  31.529  58.793  1.00  0.00     0.269 C 
HETATM   25  H   UNL     1       5.037  33.023  58.128  1.00  0.00     0.279 HD
HETATM   26  C   UNL     1       5.751  32.492  59.962  1.00  0.00     0.269 C 
ENDBRANCH  22  23
ENDBRANCH  21  22
ENDBRANCH  20  21
ENDBRANCH   1  20
BRANCH   3  27
HETATM   27  C   UNL     1       3.736  29.501  52.838  1.00  0.00     0.010 A 
HETATM   28  C   UNL     1       3.580  30.902  52.975  1.00  0.00     0.152 A 
HETATM   29  N   UNL     1       2.720  31.416  52.093  1.00  0.00    -0.187 NA
HETATM   30  N   UNL     1       2.344  30.356  51.362  1.00  0.00    -0.289 N 
HETATM   31  H   UNL     1       1.690  30.505  50.599  1.00  0.00     0.188 HD
HETATM   32  C   UNL     1       2.911  29.184  51.779  1.00  0.00     0.123 A 
ENDBRANCH   3  27
TORSDOF 8
ENDMDL
MODEL 9
REMARK VINA RESULT:      -7.4      2.916      7.692
REMARK  8 active torsions:
REMARK  status: ('A' for Active; 'I' for Inactive)
REMARK    1  A    between atoms: N_2  and  C_5 
REMARK    2  A    between atoms: C_5  and  C_6 
REMARK    3  A    between atoms: C_6  and  S_7 
REMARK    4  A    between atoms: S_7  and  C_8 
REMARK    5  A    between atoms: C_10  and  C_25 
REMARK    6  A    between atoms: C_13  and  N_14 
REMARK       I    between atoms: N_14  and  C_15 
REMARK       I    between atoms: C_15  and  N_17 
REMARK    7  A    between atoms: N_17  and  C_18 
REMARK    8  A    between atoms: C_18  and  C_19 
ROOT
HETATM    1  C   UNL     1       5.359  27.530  55.425  1.00  0.00     0.028 A 
HETATM    2  C   UNL     1       4.770  28.786  55.620  1.00  0.00     0.033 A 
HETATM    3  C   UNL     1       3.955  29.358  54.633  1.00  0.00    -0.022 A 
HETATM    4  C   UNL     1       3.737  28.643  53.448  1.00  0.00     0.014 A 
HETATM    5  C   UNL     1       4.338  27.395  53.240  1.00  0.00     0.032 A 
HETATM    6  C   UNL     1       5.169  26.840  54.215  1.00  0.00     0.053 A 
ENDROOT
BRANCH   6   7
HETATM    7  N   UNL     1       5.863  25.628  54.004  1.00  0.00    -0.308 N 
HETATM    8  C   UNL     1       5.732  24.810  52.918  1.00  0.00     0.321 C 
HETATM    9  O   UNL     1       4.779  24.840  52.145  1.00  0.00    -0.247 OA
HETATM   10  N   UNL     1       6.684  23.854  52.769  1.00  0.00    -0.339 N 
HETATM   11  H   UNL     1       6.605  23.373  51.879  1.00  0.00     0.164 HD
HETATM   12  H   UNL     1       6.424  25.302  54.778  1.00  0.00     0.170 HD
BRANCH  10  13
HETATM   13  C   UNL     1       7.983  23.800  53.412  1.00  0.00     0.162 C 
BRANCH  13  14
HETATM   14  C   UNL     1       8.168  22.524  54.186  1.00  0.00    -0.040 A 
HETATM   15  C   UNL     1       8.450  21.326  53.516  1.00  0.00     0.009 A 
HETATM   16  C   UNL     1       8.630  20.140  54.229  1.00  0.00     0.001 A 
HETATM   17  C   UNL     1       8.530  20.138  55.619  1.00  0.00     0.000 A 
HETATM   18  C   UNL     1       8.255  21.322  56.299  1.00  0.00     0.001 A 
HETATM   19  C   UNL     1       8.081  22.511  55.587  1.00  0.00     0.009 A 
ENDBRANCH  13  14
ENDBRANCH  10  13
ENDBRANCH   6   7
BRANCH   1  20
HETATM   20  S   UNL     1       6.214  26.730  56.790  1.00  0.00    -0.126 SA
BRANCH  20  21
HETATM   21  C   UNL     1       7.094  28.185  57.494  1.00  0.00     0.107 C 
BRANCH  21  22
HETATM   22  C   UNL     1       8.605  28.212  57.206  1.00  0.00     0.244 C 
BRANCH  22  23
HETATM   23  N   UNL     1       9.161  29.622  57.149  1.00  0.00    -0.078 N 
HETATM   24  C   UNL     1       9.192  30.313  58.482  1.00  0.00     0.269 C 
HETATM   25  H   UNL     1       8.529  30.155  56.534  1.00  0.00     0.279 HD
HETATM   26  C   UNL     1      10.508  29.671  56.471  1.00  0.00     0.269 C 
ENDBRANCH  22  23
ENDBRANCH  21  22
ENDBRANCH  20  21
ENDBRANCH   1  20
BRANCH   3  27
HETATM   27  C   UNL     1       3.351  30.662  54.855  1.00  0.00     0.010 A 
HETATM   28  C   UNL     1       2.837  31.254  56.035  1.00  0.00     0.152 A 
HETATM   29  N   UNL     1       2.329  32.470  55.826  1.00  0.00    -0.187 NA
HETATM   30  N   UNL     1       2.543  32.683  54.519  1.00  0.00    -0.289 N 
HETATM   31  H   UNL     1       2.251  33.570  54.122  1.00  0.00     0.188 HD
HETATM   32  C   UNL     1       3.136  31.624  53.890  1.00  0.00     0.123 A 
ENDBRANCH   3  27
TORSDOF 8
ENDMDL
MODEL 10
REMARK VINA RESULT:      -7.4      2.915      8.373
REMARK  8 active torsions:
REMARK  status: ('A' for Active; 'I' for Inactive)
REMARK    1  A    between atoms: N_2  and  C_5 
REMARK    2  A    between atoms: C_5  and  C_6 
REMARK    3  A    between atoms: C_6  and  S_7 
REMARK    4  A    between atoms: S_7  and  C_8 
REMARK    5  A    between atoms: C_10  and  C_25 
REMARK    6  A    between atoms: C_13  and  N_14 
REMARK       I    between atoms: N_14  and  C_15 
REMARK       I    between atoms: C_15  and  N_17 
REMARK    7  A    between atoms: N_17  and  C_18 
REMARK    8  A    between atoms: C_18  and  C_19 
ROOT
HETATM    1  C   UNL     1       5.608  28.361  54.813  1.00  0.00     0.028 A 
HETATM    2  C   UNL     1       4.834  29.529  54.790  1.00  0.00     0.033 A 
HETATM    3  C   UNL     1       4.357  30.098  55.979  1.00  0.00    -0.022 A 
HETATM    4  C   UNL     1       4.676  29.476  57.193  1.00  0.00     0.014 A 
HETATM    5  C   UNL     1       5.434  28.299  57.221  1.00  0.00     0.032 A 
HETATM    6  C   UNL     1       5.886  27.722  56.034  1.00  0.00     0.053 A 
ENDROOT
BRANCH   6   7
HETATM    7  N   UNL     1       6.575  26.488  56.016  1.00  0.00    -0.308 N 
HETATM    8  C   UNL     1       7.791  26.244  56.587  1.00  0.00     0.321 C 
HETATM    9  O   UNL     1       8.590  27.119  56.906  1.00  0.00    -0.247 OA
HETATM   10  N   UNL     1       8.145  24.939  56.708  1.00  0.00    -0.339 N 
HETATM   11  H   UNL     1       8.991  24.822  57.257  1.00  0.00     0.164 HD
HETATM   12  H   UNL     1       6.167  25.764  55.442  1.00  0.00     0.170 HD
BRANCH  10  13
HETATM   13  C   UNL     1       7.277  23.781  56.618  1.00  0.00     0.162 C 
BRANCH  13  14
HETATM   14  C   UNL     1       7.548  22.976  55.377  1.00  0.00    -0.040 A 
HETATM   15  C   UNL     1       7.740  21.590  55.461  1.00  0.00     0.009 A 
HETATM   16  C   UNL     1       7.985  20.838  54.312  1.00  0.00     0.001 A 
HETATM   17  C   UNL     1       8.042  21.460  53.067  1.00  0.00     0.000 A 
HETATM   18  C   UNL     1       7.848  22.836  52.967  1.00  0.00     0.001 A 
HETATM   19  C   UNL     1       7.597  23.590  54.115  1.00  0.00     0.009 A 
ENDBRANCH  13  14
ENDBRANCH  10  13
ENDBRANCH   6   7
BRANCH   1  20
HETATM   20  S   UNL     1       6.385  27.783  53.297  1.00  0.00    -0.126 SA
BRANCH  20  21
HETATM   21  C   UNL     1       4.972  26.862  52.561  1.00  0.00     0.107 C 
BRANCH  21  22
HETATM   22  C   UNL     1       5.165  26.479  51.084  1.00  0.00     0.244 C 
BRANCH  22  23
HETATM   23  N   UNL     1       4.030  26.965  50.203  1.00  0.00    -0.078 N 
HETATM   24  C   UNL     1       3.935  28.461  50.113  1.00  0.00     0.269 C 
HETATM   25  H   UNL     1       3.162  26.621  50.638  1.00  0.00     0.279 HD
HETATM   26  C   UNL     1       4.065  26.332  48.835  1.00  0.00     0.269 C 
ENDBRANCH  22  23
ENDBRANCH  21  22
ENDBRANCH  20  21
ENDBRANCH   1  20
BRANCH   3  27
HETATM   27  C   UNL     1       3.557  31.311  55.935  1.00  0.00     0.010 A 
HETATM   28  C   UNL     1       3.462  32.390  56.849  1.00  0.00     0.152 A 
HETATM   29  N   UNL     1       2.582  33.317  56.467  1.00  0.00    -0.187 NA
HETATM   30  N   UNL     1       2.129  32.859  55.290  1.00  0.00    -0.289 N 
HETATM   31  H   UNL     1       1.446  33.417  54.787  1.00  0.00     0.188 HD
HETATM   32  C   UNL     1       2.669  31.654  54.936  1.00  0.00     0.123 A 
ENDBRANCH   3  27
TORSDOF 8
ENDMDL
