MODEL 1
REMARK VINA RESULT:     -10.6      0.000      0.000
REMARK  5 active torsions:
REMARK  status: ('A' for Active; 'I' for Inactive)
REMARK    1  A    between atoms: C_5  and  C_6 
REMARK    2  A    between atoms: C_10  and  C_11 
REMARK       I    between atoms: C_11  and  N_12 
REMARK    3  A    between atoms: N_12  and  N_13 
REMARK       I    between atoms: N_13  and  C_14 
REMARK       I    between atoms: C_14  and  N_15 
REMARK    4  A    between atoms: N_15  and  C_16 
REMARK    5  A    between atoms: C_16  and  C_17 
ROOT
HETATM    1  C   UNL     1       6.952  28.252  55.830  1.00  0.00     0.288 C 
HETATM    2  N   UNL     1       6.010  27.275  56.107  1.00  0.00    -0.261 N 
HETATM    3  O   UNL     1       7.269  28.544  54.678  1.00  0.00    -0.264 OA
HETATM    4  H   UNL     1       5.540  27.267  57.007  1.00  0.00     0.190 HD
ENDROOT
BRANCH   2   5
HETATM    5  N   UNL     1       5.262  26.801  55.020  1.00  0.00    -0.249 N 
HETATM    6  C   UNL     1       5.685  25.817  54.169  1.00  0.00     0.334 C 
HETATM    7  N   UNL     1       6.965  25.370  54.404  1.00  0.00    -0.341 N 
HETATM    8  O   UNL     1       4.955  25.385  53.285  1.00  0.00    -0.246 OA
HETATM    9  H   UNL     1       7.560  26.112  54.742  1.00  0.00     0.164 HD
HETATM   10  H   UNL     1       4.352  27.226  54.849  1.00  0.00     0.192 HD
BRANCH   7  11
HETATM   11  C   UNL     1       7.551  24.441  53.456  1.00  0.00     0.129 C 
BRANCH  11  12
HETATM   12  C   UNL     1       7.440  22.962  53.850  1.00  0.00     0.004 C 
HETATM   13  C   UNL     1       8.033  22.684  55.241  1.00  0.00     0.010 C 
HETATM   14  C   UNL     1       7.815  21.219  55.649  1.00  0.00    -0.018 C 
HETATM   15  C   UNL     1       8.423  20.942  57.023  1.00  0.00     0.010 C 
HETATM   16  C   UNL     1       8.396  20.266  54.596  1.00  0.00     0.004 C 
HETATM   17  C   UNL     1       7.845  20.557  53.201  1.00  0.00     0.001 C 
HETATM   18  C   UNL     1       8.049  22.017  52.805  1.00  0.00     0.006 C 
ENDBRANCH  11  12
ENDBRANCH   7  11
ENDBRANCH   2   5
BRANCH   1  19
HETATM   19  C   UNL     1       7.509  28.930  56.968  1.00  0.00     0.121 A 
HETATM   20  N   UNL     1       8.858  28.957  57.184  1.00  0.00    -0.272 N 
HETATM   21  N   UNL     1       9.224  29.613  58.292  1.00  0.00    -0.174 NA
HETATM   22  H   UNL     1       9.577  28.534  56.603  1.00  0.00     0.189 HD
HETATM   23  C   UNL     1       8.074  30.044  58.831  1.00  0.00     0.089 A 
HETATM   24  C   UNL     1       6.971  29.635  58.027  1.00  0.00     0.071 A 
BRANCH  23  25
HETATM   25  C   UNL     1       8.055  30.808  60.083  1.00  0.00    -0.006 A 
HETATM   26  C   UNL     1       7.137  31.847  60.289  1.00  0.00     0.014 A 
HETATM   27  C   UNL     1       7.119  32.557  61.496  1.00  0.00     0.007 A 
HETATM   28  C   UNL     1       8.025  32.249  62.516  1.00  0.00    -0.062 A 
HETATM   29  C   UNL     1       7.990  32.981  63.824  1.00  0.00     0.048 C 
HETATM   30  C   UNL     1       8.941  31.212  62.318  1.00  0.00     0.007 A 
HETATM   31  C   UNL     1       8.958  30.504  61.112  1.00  0.00     0.014 A 
ENDBRANCH  23  25
ENDBRANCH   1  19
TORSDOF 5
ENDMDL
MODEL 2
REMARK VINA RESULT:     -10.6      2.169      9.720
REMARK  5 active torsions:
REMARK  status: ('A' for Active; 'I' for Inactive)
REMARK    1  A    between atoms: C_5  and  C_6 
REMARK    2  A    between atoms: C_10  and  C_11 
REMARK       I    between atoms: C_11  and  N_12 
REMARK    3  A    between atoms: N_12  and  N_13 
REMARK       I    between atoms: N_13  and  C_14 
REMARK       I    between atoms: C_14  and  N_15 
REMARK    4  A    between atoms: N_15  and  C_16 
REMARK    5  A    between atoms: C_16  and  C_17 
ROOT
HETATM    1  C   UNL     1       4.423  28.267  55.816  1.00  0.00     0.288 C 
HETATM    2  N   UNL     1       4.278  28.725  57.116  1.00  0.00    -0.261 N 
HETATM    3  O   UNL     1       3.783  28.745  54.881  1.00  0.00    -0.264 OA
HETATM    4  H   UNL     1       5.011  28.553  57.797  1.00  0.00     0.190 HD
ENDROOT
BRANCH   2   5
HETATM    5  N   UNL     1       3.550  29.912  57.283  1.00  0.00    -0.249 N 
HETATM    6  C   UNL     1       4.058  31.049  57.849  1.00  0.00     0.334 C 
HETATM    7  N   UNL     1       5.338  30.922  58.338  1.00  0.00    -0.341 N 
HETATM    8  O   UNL     1       3.402  32.083  57.893  1.00  0.00    -0.246 OA
HETATM    9  H   UNL     1       5.506  29.994  58.698  1.00  0.00     0.164 HD
HETATM   10  H   UNL     1       2.580  29.921  56.972  1.00  0.00     0.192 HD
BRANCH   7  11
HETATM   11  C   UNL     1       5.896  32.028  59.092  1.00  0.00     0.129 C 
BRANCH  11  12
HETATM   12  C   UNL     1       7.024  31.646  60.059  1.00  0.00     0.004 C 
HETATM   13  C   UNL     1       6.963  32.445  61.371  1.00  0.00     0.010 C 
HETATM   14  C   UNL     1       8.040  31.968  62.357  1.00  0.00    -0.018 C 
HETATM   15  C   UNL     1       7.989  32.777  63.651  1.00  0.00     0.010 C 
HETATM   16  C   UNL     1       9.435  32.045  61.722  1.00  0.00     0.004 C 
HETATM   17  C   UNL     1       9.499  31.288  60.397  1.00  0.00     0.001 C 
HETATM   18  C   UNL     1       8.417  31.754  59.425  1.00  0.00     0.006 C 
ENDBRANCH  11  12
ENDBRANCH   7  11
ENDBRANCH   2   5
BRANCH   1  19
HETATM   19  C   UNL     1       5.393  27.225  55.621  1.00  0.00     0.121 A 
HETATM   20  N   UNL     1       6.657  27.332  56.127  1.00  0.00    -0.272 N 
HETATM   21  N   UNL     1       7.450  26.289  55.852  1.00  0.00    -0.174 NA
HETATM   22  H   UNL     1       7.033  28.106  56.669  1.00  0.00     0.189 HD
HETATM   23  C   UNL     1       6.681  25.453  55.138  1.00  0.00     0.089 A 
HETATM   24  C   UNL     1       5.378  26.006  54.972  1.00  0.00     0.071 A 
BRANCH  23  25
HETATM   25  C   UNL     1       7.202  24.179  54.630  1.00  0.00    -0.006 A 
HETATM   26  C   UNL     1       7.385  23.076  55.476  1.00  0.00     0.014 A 
HETATM   27  C   UNL     1       7.868  21.862  54.973  1.00  0.00     0.007 A 
HETATM   28  C   UNL     1       8.187  21.730  53.618  1.00  0.00    -0.062 A 
HETATM   29  C   UNL     1       8.672  20.422  53.065  1.00  0.00     0.048 C 
HETATM   30  C   UNL     1       8.005  22.825  52.769  1.00  0.00     0.007 A 
HETATM   31  C   UNL     1       7.523  24.038  53.272  1.00  0.00     0.014 A 
ENDBRANCH  23  25
ENDBRANCH   1  19
TORSDOF 5
ENDMDL
MODEL 3
REMARK VINA RESULT:     -10.5      2.384      4.497
REMARK  5 active torsions:
REMARK  status: ('A' for Active; 'I' for Inactive)
REMARK    1  A    between atoms: C_5  and  C_6 
REMARK    2  A    between atoms: C_10  and  C_11 
REMARK       I    between atoms: C_11  and  N_12 
REMARK    3  A    between atoms: N_12  and  N_13 
REMARK       I    between atoms: N_13  and  C_14 
REMARK       I    between atoms: C_14  and  N_15 
REMARK    4  A    between atoms: N_15  and  C_16 
REMARK    5  A    between atoms: C_16  and  C_17 
ROOT
HETATM    1  C   UNL     1       9.569  31.259  59.051  1.00  0.00     0.288 C 
HETATM    2  N   UNL     1       9.411  30.037  58.417  1.00  0.00    -0.261 N 
HETATM    3  O   UNL     1      10.179  32.191  58.529  1.00  0.00    -0.264 OA
HETATM    4  H   UNL     1       8.665  29.412  58.704  1.00  0.00     0.190 HD
ENDROOT
BRANCH   2   5
HETATM    5  N   UNL     1       9.769  29.985  57.062  1.00  0.00    -0.249 N 
HETATM    6  C   UNL     1       9.051  29.321  56.105  1.00  0.00     0.334 C 
HETATM    7  N   UNL     1       7.973  28.615  56.585  1.00  0.00    -0.341 N 
HETATM    8  O   UNL     1       9.367  29.379  54.922  1.00  0.00    -0.246 OA
HETATM    9  H   UNL     1       8.154  28.244  57.507  1.00  0.00     0.164 HD
HETATM   10  H   UNL     1      10.622  30.463  56.779  1.00  0.00     0.192 HD
BRANCH   7  11
HETATM   11  C   UNL     1       7.250  27.758  55.665  1.00  0.00     0.129 C 
BRANCH  11  12
HETATM   12  C   UNL     1       7.706  26.293  55.656  1.00  0.00     0.004 C 
HETATM   13  C   UNL     1       7.335  25.576  54.347  1.00  0.00     0.010 C 
HETATM   14  C   UNL     1       7.893  24.145  54.327  1.00  0.00    -0.018 C 
HETATM   15  C   UNL     1       7.506  23.429  53.035  1.00  0.00     0.010 C 
HETATM   16  C   UNL     1       7.414  23.353  55.551  1.00  0.00     0.004 C 
HETATM   17  C   UNL     1       7.740  24.074  56.858  1.00  0.00     0.001 C 
HETATM   18  C   UNL     1       7.197  25.501  56.868  1.00  0.00     0.006 C 
ENDBRANCH  11  12
ENDBRANCH   7  11
ENDBRANCH   2   5
BRANCH   1  19
HETATM   19  C   UNL     1       8.945  31.385  60.339  1.00  0.00     0.121 A 
HETATM   20  N   UNL     1       8.954  30.351  61.233  1.00  0.00    -0.272 N 
HETATM   21  N   UNL     1       8.321  30.614  62.383  1.00  0.00    -0.174 NA
HETATM   22  H   UNL     1       9.378  29.437  61.102  1.00  0.00     0.189 HD
HETATM   23  C   UNL     1       7.878  31.873  62.251  1.00  0.00     0.089 A 
HETATM   24  C   UNL     1       8.252  32.394  60.978  1.00  0.00     0.071 A 
BRANCH  23  25
HETATM   25  C   UNL     1       7.112  32.531  63.316  1.00  0.00    -0.006 A 
HETATM   26  C   UNL     1       5.711  32.508  63.326  1.00  0.00     0.014 A 
HETATM   27  C   UNL     1       4.993  33.126  64.357  1.00  0.00     0.007 A 
HETATM   28  C   UNL     1       5.662  33.788  65.392  1.00  0.00    -0.062 A 
HETATM   29  C   UNL     1       4.902  34.423  66.518  1.00  0.00     0.048 C 
HETATM   30  C   UNL     1       7.060  33.811  65.389  1.00  0.00     0.007 A 
HETATM   31  C   UNL     1       7.775  33.194  64.358  1.00  0.00     0.014 A 
ENDBRANCH  23  25
ENDBRANCH   1  19
TORSDOF 5
ENDMDL
MODEL 4
REMARK VINA RESULT:     -10.5      1.651      2.942
REMARK  5 active torsions:
REMARK  status: ('A' for Active; 'I' for Inactive)
REMARK    1  A    between atoms: C_5  and  C_6 
REMARK    2  A    between atoms: C_10  and  C_11 
REMARK       I    between atoms: C_11  and  N_12 
REMARK    3  A    between atoms: N_12  and  N_13 
REMARK       I    between atoms: N_13  and  C_14 
REMARK       I    between atoms: C_14  and  N_15 
REMARK    4  A    between atoms: N_15  and  C_16 
REMARK    5  A    between atoms: C_16  and  C_17 
ROOT
HETATM    1  C   UNL     1       9.153  29.659  57.101  1.00  0.00     0.288 C 
HETATM    2  N   UNL     1       8.084  29.612  56.220  1.00  0.00    -0.261 N 
HETATM    3  O   UNL     1      10.171  28.990  56.927  1.00  0.00    -0.264 OA
HETATM    4  H   UNL     1       7.414  30.374  56.199  1.00  0.00     0.190 HD
ENDROOT
BRANCH   2   5
HETATM    5  N   UNL     1       8.306  28.954  55.002  1.00  0.00    -0.249 N 
HETATM    6  C   UNL     1       7.684  27.793  54.635  1.00  0.00     0.334 C 
HETATM    7  N   UNL     1       6.870  27.249  55.601  1.00  0.00    -0.341 N 
HETATM    8  O   UNL     1       7.855  27.307  53.523  1.00  0.00    -0.246 OA
HETATM    9  H   UNL     1       7.230  27.422  56.529  1.00  0.00     0.164 HD
HETATM   10  H   UNL     1       8.980  29.365  54.358  1.00  0.00     0.192 HD
BRANCH   7  11
HETATM   11  C   UNL     1       6.295  25.940  55.355  1.00  0.00     0.129 C 
BRANCH  11  12
HETATM   12  C   UNL     1       7.299  24.780  55.384  1.00  0.00     0.004 C 
HETATM   13  C   UNL     1       7.046  23.762  54.260  1.00  0.00     0.010 C 
HETATM   14  C   UNL     1       8.126  22.670  54.252  1.00  0.00    -0.018 C 
HETATM   15  C   UNL     1       7.861  21.650  53.147  1.00  0.00     0.010 C 
HETATM   16  C   UNL     1       8.215  21.979  55.619  1.00  0.00     0.004 C 
HETATM   17  C   UNL     1       8.427  22.982  56.751  1.00  0.00     0.001 C 
HETATM   18  C   UNL     1       7.360  24.075  56.746  1.00  0.00     0.006 C 
ENDBRANCH  11  12
ENDBRANCH   7  11
ENDBRANCH   2   5
BRANCH   1  19
HETATM   19  C   UNL     1       9.017  30.564  58.208  1.00  0.00     0.121 A 
HETATM   20  N   UNL     1       9.877  31.612  58.375  1.00  0.00    -0.272 N 
HETATM   21  N   UNL     1       9.632  32.358  59.460  1.00  0.00    -0.174 NA
HETATM   22  H   UNL     1      10.658  31.862  57.773  1.00  0.00     0.189 HD
HETATM   23  C   UNL     1       8.564  31.786  60.035  1.00  0.00     0.089 A 
HETATM   24  C   UNL     1       8.146  30.653  59.277  1.00  0.00     0.071 A 
BRANCH  23  25
HETATM   25  C   UNL     1       7.988  32.314  61.277  1.00  0.00    -0.006 A 
HETATM   26  C   UNL     1       8.584  32.063  62.521  1.00  0.00     0.014 A 
HETATM   27  C   UNL     1       8.032  32.587  63.696  1.00  0.00     0.007 A 
HETATM   28  C   UNL     1       6.869  33.362  63.652  1.00  0.00    -0.062 A 
HETATM   29  C   UNL     1       6.291  33.955  64.902  1.00  0.00     0.048 C 
HETATM   30  C   UNL     1       6.272  33.618  62.414  1.00  0.00     0.007 A 
HETATM   31  C   UNL     1       6.823  33.093  61.241  1.00  0.00     0.014 A 
ENDBRANCH  23  25
ENDBRANCH   1  19
TORSDOF 5
ENDMDL
MODEL 5
REMARK VINA RESULT:     -10.3      1.865     10.439
REMARK  5 active torsions:
REMARK  status: ('A' for Active; 'I' for Inactive)
REMARK    1  A    between atoms: C_5  and  C_6 
REMARK    2  A    between atoms: C_10  and  C_11 
REMARK       I    between atoms: C_11  and  N_12 
REMARK    3  A    between atoms: N_12  and  N_13 
REMARK       I    between atoms: N_13  and  C_14 
REMARK       I    between atoms: C_14  and  N_15 
REMARK    4  A    between atoms: N_15  and  C_16 
REMARK    5  A    between atoms: C_16  and  C_17 
ROOT
HETATM    1  C   UNL     1       7.020  29.233  56.905  1.00  0.00     0.288 C 
HETATM    2  N   UNL     1       7.936  29.496  57.911  1.00  0.00    -0.261 N 
HETATM    3  O   UNL     1       6.392  30.130  56.345  1.00  0.00    -0.264 OA
HETATM    4  H   UNL     1       8.652  28.811  58.133  1.00  0.00     0.190 HD
ENDROOT
BRANCH   2   5
HETATM    5  N   UNL     1       8.291  30.839  58.098  1.00  0.00    -0.249 N 
HETATM    6  C   UNL     1       8.664  31.373  59.301  1.00  0.00     0.334 C 
HETATM    7  N   UNL     1       8.582  30.503  60.364  1.00  0.00    -0.341 N 
HETATM    8  O   UNL     1       9.044  32.535  59.389  1.00  0.00    -0.246 OA
HETATM    9  H   UNL     1       7.816  29.855  60.252  1.00  0.00     0.164 HD
HETATM   10  H   UNL     1       8.258  31.455  57.287  1.00  0.00     0.192 HD
BRANCH   7  11
HETATM   11  C   UNL     1       8.808  31.027  61.697  1.00  0.00     0.129 C 
BRANCH  11  12
HETATM   12  C   UNL     1       7.753  32.030  62.183  1.00  0.00     0.004 C 
HETATM   13  C   UNL     1       7.958  32.424  63.654  1.00  0.00     0.010 C 
HETATM   14  C   UNL     1       6.951  33.504  64.080  1.00  0.00    -0.018 C 
HETATM   15  C   UNL     1       7.145  33.879  65.548  1.00  0.00     0.010 C 
HETATM   16  C   UNL     1       5.510  33.040  63.824  1.00  0.00     0.004 C 
HETATM   17  C   UNL     1       5.302  32.607  62.374  1.00  0.00     0.001 C 
HETATM   18  C   UNL     1       6.315  31.545  61.949  1.00  0.00     0.006 C 
ENDBRANCH  11  12
ENDBRANCH   7  11
ENDBRANCH   2   5
BRANCH   1  19
HETATM   19  C   UNL     1       6.875  27.854  56.531  1.00  0.00     0.121 A 
HETATM   20  N   UNL     1       5.910  27.066  57.094  1.00  0.00    -0.272 N 
HETATM   21  N   UNL     1       5.908  25.801  56.656  1.00  0.00    -0.174 NA
HETATM   22  H   UNL     1       5.226  27.346  57.792  1.00  0.00     0.189 HD
HETATM   23  C   UNL     1       6.907  25.746  55.762  1.00  0.00     0.089 A 
HETATM   24  C   UNL     1       7.540  27.019  55.655  1.00  0.00     0.071 A 
BRANCH  23  25
HETATM   25  C   UNL     1       7.237  24.503  55.058  1.00  0.00    -0.006 A 
HETATM   26  C   UNL     1       7.384  23.291  55.747  1.00  0.00     0.014 A 
HETATM   27  C   UNL     1       7.683  22.109  55.060  1.00  0.00     0.007 A 
HETATM   28  C   UNL     1       7.851  22.116  53.671  1.00  0.00    -0.062 A 
HETATM   29  C   UNL     1       8.137  20.848  52.923  1.00  0.00     0.048 C 
HETATM   30  C   UNL     1       7.702  23.321  52.977  1.00  0.00     0.007 A 
HETATM   31  C   UNL     1       7.405  24.501  53.666  1.00  0.00     0.014 A 
ENDBRANCH  23  25
ENDBRANCH   1  19
TORSDOF 5
ENDMDL
MODEL 6
REMARK VINA RESULT:     -10.2      1.254      2.033
REMARK  5 active torsions:
REMARK  status: ('A' for Active; 'I' for Inactive)
REMARK    1  A    between atoms: C_5  and  C_6 
REMARK    2  A    between atoms: C_10  and  C_11 
REMARK       I    between atoms: C_11  and  N_12 
REMARK    3  A    between atoms: N_12  and  N_13 
REMARK       I    between atoms: N_13  and  C_14 
REMARK       I    between atoms: C_14  and  N_15 
REMARK    4  A    between atoms: N_15  and  C_16 
REMARK    5  A    between atoms: C_16  and  C_17 
ROOT
HETATM    1  C   UNL     1       7.937  28.920  55.011  1.00  0.00     0.288 C 
HETATM    2  N   UNL     1       6.576  28.845  54.759  1.00  0.00    -0.261 N 
HETATM    3  O   UNL     1       8.775  28.631  54.159  1.00  0.00    -0.264 OA
HETATM    4  H   UNL     1       5.926  29.371  55.335  1.00  0.00     0.190 HD
ENDROOT
BRANCH   2   5
HETATM    5  N   UNL     1       6.198  28.656  53.422  1.00  0.00    -0.249 N 
HETATM    6  C   UNL     1       6.097  27.432  52.820  1.00  0.00     0.334 C 
HETATM    7  N   UNL     1       6.486  26.373  53.608  1.00  0.00    -0.341 N 
HETATM    8  O   UNL     1       5.682  27.321  51.672  1.00  0.00    -0.246 OA
HETATM    9  H   UNL     1       7.239  26.631  54.230  1.00  0.00     0.164 HD
HETATM   10  H   UNL     1       5.998  29.485  52.864  1.00  0.00     0.192 HD
BRANCH   7  11
HETATM   11  C   UNL     1       6.559  25.058  53.001  1.00  0.00     0.129 C 
BRANCH  11  12
HETATM   12  C   UNL     1       7.420  24.043  53.764  1.00  0.00     0.004 C 
HETATM   13  C   UNL     1       7.551  22.708  53.013  1.00  0.00     0.010 C 
HETATM   14  C   UNL     1       8.500  21.752  53.751  1.00  0.00    -0.018 C 
HETATM   15  C   UNL     1       8.613  20.420  53.012  1.00  0.00     0.010 C 
HETATM   16  C   UNL     1       8.039  21.533  55.199  1.00  0.00     0.004 C 
HETATM   17  C   UNL     1       7.866  22.854  55.946  1.00  0.00     0.001 C 
HETATM   18  C   UNL     1       6.935  23.808  55.202  1.00  0.00     0.006 C 
ENDBRANCH  11  12
ENDBRANCH   7  11
ENDBRANCH   2   5
BRANCH   1  19
HETATM   19  C   UNL     1       8.309  29.391  56.317  1.00  0.00     0.121 A 
HETATM   20  N   UNL     1       9.586  29.250  56.781  1.00  0.00    -0.272 N 
HETATM   21  N   UNL     1       9.777  29.724  58.018  1.00  0.00    -0.174 NA
HETATM   22  H   UNL     1      10.370  28.829  56.290  1.00  0.00     0.189 HD
HETATM   23  C   UNL     1       8.581  30.205  58.390  1.00  0.00     0.089 A 
HETATM   24  C   UNL     1       7.630  30.014  57.345  1.00  0.00     0.071 A 
BRANCH  23  25
HETATM   25  C   UNL     1       8.374  30.808  59.711  1.00  0.00    -0.006 A 
HETATM   26  C   UNL     1       9.246  30.545  60.777  1.00  0.00     0.014 A 
HETATM   27  C   UNL     1       9.045  31.140  62.028  1.00  0.00     0.007 A 
HETATM   28  C   UNL     1       7.964  32.001  62.241  1.00  0.00    -0.062 A 
HETATM   29  C   UNL     1       7.762  32.670  63.568  1.00  0.00     0.048 C 
HETATM   30  C   UNL     1       7.093  32.270  61.181  1.00  0.00     0.007 A 
HETATM   31  C   UNL     1       7.294  31.673  59.932  1.00  0.00     0.014 A 
ENDBRANCH  23  25
ENDBRANCH   1  19
TORSDOF 5
ENDMDL
MODEL 7
REMARK VINA RESULT:      -9.7      1.829      2.374
REMARK  5 active torsions:
REMARK  status: ('A' for Active; 'I' for Inactive)
REMARK    1  A    between atoms: C_5  and  C_6 
REMARK    2  A    between atoms: C_10  and  C_11 
REMARK       I    between atoms: C_11  and  N_12 
REMARK    3  A    between atoms: N_12  and  N_13 
REMARK       I    between atoms: N_13  and  C_14 
REMARK       I    between atoms: C_14  and  N_15 
REMARK    4  A    between atoms: N_15  and  C_16 
REMARK    5  A    between atoms: C_16  and  C_17 
ROOT
HETATM    1  C   UNL     1       5.032  29.578  55.316  1.00  0.00     0.288 C 
HETATM    2  N   UNL     1       5.161  28.220  55.559  1.00  0.00    -0.261 N 
HETATM    3  O   UNL     1       4.611  30.012  54.245  1.00  0.00    -0.264 OA
HETATM    4  H   UNL     1       5.201  27.880  56.515  1.00  0.00     0.190 HD
ENDROOT
BRANCH   2   5
HETATM    5  N   UNL     1       4.568  27.359  54.625  1.00  0.00    -0.249 N 
HETATM    6  C   UNL     1       5.260  26.439  53.885  1.00  0.00     0.334 C 
HETATM    7  N   UNL     1       6.624  26.474  54.057  1.00  0.00    -0.341 N 
HETATM    8  O   UNL     1       4.678  25.655  53.143  1.00  0.00    -0.246 OA
HETATM    9  H   UNL     1       6.951  27.414  54.230  1.00  0.00     0.164 HD
HETATM   10  H   UNL     1       3.562  27.433  54.483  1.00  0.00     0.192 HD
BRANCH   7  11
HETATM   11  C   UNL     1       7.445  25.642  53.198  1.00  0.00     0.129 C 
BRANCH  11  12
HETATM   12  C   UNL     1       7.994  24.373  53.863  1.00  0.00     0.004 C 
HETATM   13  C   UNL     1       7.673  23.106  53.054  1.00  0.00     0.010 C 
HETATM   14  C   UNL     1       8.322  21.867  53.690  1.00  0.00    -0.018 C 
HETATM   15  C   UNL     1       7.985  20.608  52.895  1.00  0.00     0.010 C 
HETATM   16  C   UNL     1       7.891  21.716  55.155  1.00  0.00     0.004 C 
HETATM   17  C   UNL     1       8.167  22.983  55.963  1.00  0.00     0.001 C 
HETATM   18  C   UNL     1       7.534  24.214  55.319  1.00  0.00     0.006 C 
ENDBRANCH  11  12
ENDBRANCH   7  11
ENDBRANCH   2   5
BRANCH   1  19
HETATM   19  C   UNL     1       5.385  30.448  56.403  1.00  0.00     0.121 A 
HETATM   20  N   UNL     1       5.259  31.804  56.293  1.00  0.00    -0.272 N 
HETATM   21  N   UNL     1       5.641  32.482  57.382  1.00  0.00    -0.174 NA
HETATM   22  H   UNL     1       4.919  32.321  55.487  1.00  0.00     0.189 HD
HETATM   23  C   UNL     1       6.032  31.540  58.253  1.00  0.00     0.089 A 
HETATM   24  C   UNL     1       5.885  30.245  57.675  1.00  0.00     0.071 A 
BRANCH  23  25
HETATM   25  C   UNL     1       6.539  31.890  59.584  1.00  0.00    -0.006 A 
HETATM   26  C   UNL     1       5.693  32.414  60.573  1.00  0.00     0.014 A 
HETATM   27  C   UNL     1       6.189  32.729  61.844  1.00  0.00     0.007 A 
HETATM   28  C   UNL     1       7.540  32.537  62.149  1.00  0.00    -0.062 A 
HETATM   29  C   UNL     1       8.071  32.839  63.518  1.00  0.00     0.048 C 
HETATM   30  C   UNL     1       8.387  32.012  61.168  1.00  0.00     0.007 A 
HETATM   31  C   UNL     1       7.892  31.699  59.899  1.00  0.00     0.014 A 
ENDBRANCH  23  25
ENDBRANCH   1  19
TORSDOF 5
ENDMDL
MODEL 8
REMARK VINA RESULT:      -9.6      5.463      9.130
REMARK  5 active torsions:
REMARK  status: ('A' for Active; 'I' for Inactive)
REMARK    1  A    between atoms: C_5  and  C_6 
REMARK    2  A    between atoms: C_10  and  C_11 
REMARK       I    between atoms: C_11  and  N_12 
REMARK    3  A    between atoms: N_12  and  N_13 
REMARK       I    between atoms: N_13  and  C_14 
REMARK       I    between atoms: C_14  and  N_15 
REMARK    4  A    between atoms: N_15  and  C_16 
REMARK    5  A    between atoms: C_16  and  C_17 
ROOT
HETATM    1  C   UNL     1       5.145  28.448  53.455  1.00  0.00     0.288 C 
HETATM    2  N   UNL     1       5.915  28.971  52.428  1.00  0.00    -0.261 N 
HETATM    3  O   UNL     1       4.178  29.052  53.918  1.00  0.00    -0.264 OA
HETATM    4  H   UNL     1       6.486  28.353  51.861  1.00  0.00     0.190 HD
ENDROOT
BRANCH   2   5
HETATM    5  N   UNL     1       5.405  30.105  51.779  1.00  0.00    -0.249 N 
HETATM    6  C   UNL     1       5.116  30.158  50.443  1.00  0.00     0.334 C 
HETATM    7  N   UNL     1       5.449  29.023  49.740  1.00  0.00    -0.341 N 
HETATM    8  O   UNL     1       4.594  31.149  49.947  1.00  0.00    -0.246 OA
HETATM    9  H   UNL     1       6.277  28.585  50.117  1.00  0.00     0.164 HD
HETATM   10  H   UNL     1       5.251  30.942  52.339  1.00  0.00     0.192 HD
BRANCH   7  11
HETATM   11  C   UNL     1       5.322  29.051  48.295  1.00  0.00     0.129 C 
BRANCH  11  12
HETATM   12  C   UNL     1       4.378  27.992  47.711  1.00  0.00     0.004 C 
HETATM   13  C   UNL     1       2.913  28.458  47.707  1.00  0.00     0.010 C 
HETATM   14  C   UNL     1       2.008  27.421  47.024  1.00  0.00    -0.018 C 
HETATM   15  C   UNL     1       0.550  27.877  47.039  1.00  0.00     0.010 C 
HETATM   16  C   UNL     1       2.153  26.045  47.688  1.00  0.00     0.004 C 
HETATM   17  C   UNL     1       3.610  25.588  47.736  1.00  0.00     0.001 C 
HETATM   18  C   UNL     1       4.509  26.628  48.401  1.00  0.00     0.006 C 
ENDBRANCH  11  12
ENDBRANCH   7  11
ENDBRANCH   2   5
BRANCH   1  19
HETATM   19  C   UNL     1       5.522  27.143  53.922  1.00  0.00     0.121 A 
HETATM   20  N   UNL     1       5.141  26.696  55.156  1.00  0.00    -0.272 N 
HETATM   21  N   UNL     1       5.580  25.468  55.455  1.00  0.00    -0.174 NA
HETATM   22  H   UNL     1       4.581  27.199  55.840  1.00  0.00     0.189 HD
HETATM   23  C   UNL     1       6.275  25.079  54.376  1.00  0.00     0.089 A 
HETATM   24  C   UNL     1       6.261  26.106  53.387  1.00  0.00     0.071 A 
BRANCH  23  25
HETATM   25  C   UNL     1       6.934  23.770  54.320  1.00  0.00    -0.006 A 
HETATM   26  C   UNL     1       7.342  23.210  53.101  1.00  0.00     0.014 A 
HETATM   27  C   UNL     1       7.985  21.967  53.065  1.00  0.00     0.007 A 
HETATM   28  C   UNL     1       8.223  21.254  54.244  1.00  0.00    -0.062 A 
HETATM   29  C   UNL     1       8.942  19.938  54.217  1.00  0.00     0.048 C 
HETATM   30  C   UNL     1       7.821  21.809  55.463  1.00  0.00     0.007 A 
HETATM   31  C   UNL     1       7.179  23.050  55.498  1.00  0.00     0.014 A 
ENDBRANCH  23  25
ENDBRANCH   1  19
TORSDOF 5
ENDMDL
MODEL 9
REMARK VINA RESULT:      -9.5      2.185      3.699
REMARK  5 active torsions:
REMARK  status: ('A' for Active; 'I' for Inactive)
REMARK    1  A    between atoms: C_5  and  C_6 
REMARK    2  A    between atoms: C_10  and  C_11 
REMARK       I    between atoms: C_11  and  N_12 
REMARK    3  A    between atoms: N_12  and  N_13 
REMARK       I    between atoms: N_13  and  C_14 
REMARK       I    between atoms: C_14  and  N_15 
REMARK    4  A    between atoms: N_15  and  C_16 
REMARK    5  A    between atoms: C_16  and  C_17 
ROOT
HETATM    1  C   UNL     1       6.040  31.398  57.621  1.00  0.00     0.288 C 
HETATM    2  N   UNL     1       6.693  30.376  56.950  1.00  0.00    -0.261 N 
HETATM    3  O   UNL     1       5.174  32.084  57.080  1.00  0.00    -0.264 OA
HETATM    4  H   UNL     1       7.154  29.640  57.476  1.00  0.00     0.190 HD
ENDROOT
BRANCH   2   5
HETATM    5  N   UNL     1       6.159  30.002  55.708  1.00  0.00    -0.249 N 
HETATM    6  C   UNL     1       5.740  28.736  55.404  1.00  0.00     0.334 C 
HETATM    7  N   UNL     1       5.963  27.806  56.394  1.00  0.00    -0.341 N 
HETATM    8  O   UNL     1       5.204  28.486  54.331  1.00  0.00    -0.246 OA
HETATM    9  H   UNL     1       6.809  28.008  56.907  1.00  0.00     0.164 HD
HETATM   10  H   UNL     1       6.090  30.718  54.987  1.00  0.00     0.192 HD
BRANCH   7  11
HETATM   11  C   UNL     1       5.693  26.412  56.098  1.00  0.00     0.129 C 
BRANCH  11  12
HETATM   12  C   UNL     1       6.936  25.567  55.790  1.00  0.00     0.004 C 
HETATM   13  C   UNL     1       6.696  24.576  54.639  1.00  0.00     0.010 C 
HETATM   14  C   UNL     1       7.986  23.818  54.287  1.00  0.00    -0.018 C 
HETATM   15  C   UNL     1       7.739  22.821  53.157  1.00  0.00     0.010 C 
HETATM   16  C   UNL     1       8.558  23.109  55.523  1.00  0.00     0.004 C 
HETATM   17  C   UNL     1       8.764  24.075  56.688  1.00  0.00     0.001 C 
HETATM   18  C   UNL     1       7.484  24.838  57.024  1.00  0.00     0.006 C 
ENDBRANCH  11  12
ENDBRANCH   7  11
ENDBRANCH   2   5
BRANCH   1  19
HETATM   19  C   UNL     1       6.410  31.584  58.996  1.00  0.00     0.121 A 
HETATM   20  N   UNL     1       7.486  30.935  59.533  1.00  0.00    -0.272 N 
HETATM   21  N   UNL     1       7.696  31.198  60.829  1.00  0.00    -0.174 NA
HETATM   22  H   UNL     1       8.111  30.292  59.054  1.00  0.00     0.189 HD
HETATM   23  C   UNL     1       6.725  32.060  61.166  1.00  0.00     0.089 A 
HETATM   24  C   UNL     1       5.894  32.329  60.039  1.00  0.00     0.071 A 
BRANCH  23  25
HETATM   25  C   UNL     1       6.606  32.584  62.531  1.00  0.00    -0.006 A 
HETATM   26  C   UNL     1       7.739  32.824  63.321  1.00  0.00     0.014 A 
HETATM   27  C   UNL     1       7.611  33.340  64.616  1.00  0.00     0.007 A 
HETATM   28  C   UNL     1       6.348  33.615  65.151  1.00  0.00    -0.062 A 
HETATM   29  C   UNL     1       6.204  34.200  66.524  1.00  0.00     0.048 C 
HETATM   30  C   UNL     1       5.215  33.380  64.367  1.00  0.00     0.007 A 
HETATM   31  C   UNL     1       5.344  32.864  63.073  1.00  0.00     0.014 A 
ENDBRANCH  23  25
ENDBRANCH   1  19
TORSDOF 5
ENDMDL
MODEL 10
REMARK VINA RESULT:      -9.5      2.188      3.057
REMARK  5 active torsions:
REMARK  status: ('A' for Active; 'I' for Inactive)
REMARK    1  A    between atoms: C_5  and  C_6 
REMARK    2  A    between atoms: C_10  and  C_11 
REMARK       I    between atoms: C_11  and  N_12 
REMARK    3  A    between atoms: N_12  and  N_13 
REMARK       I    between atoms: N_13  and  C_14 
REMARK       I    between atoms: C_14  and  N_15 
REMARK    4  A    between atoms: N_15  and  C_16 
REMARK    5  A    between atoms: C_16  and  C_17 
ROOT
HETATM    1  C   UNL     1       4.678  28.808  53.983  1.00  0.00     0.288 C 
HETATM    2  N   UNL     1       5.667  28.743  53.014  1.00  0.00    -0.261 N 
HETATM    3  O   UNL     1       3.521  28.453  53.759  1.00  0.00    -0.264 OA
HETATM    4  H   UNL     1       6.643  28.735  53.290  1.00  0.00     0.190 HD
ENDROOT
BRANCH   2   5
HETATM    5  N   UNL     1       5.351  28.036  51.846  1.00  0.00    -0.249 N 
HETATM    6  C   UNL     1       5.864  26.806  51.532  1.00  0.00     0.334 C 
HETATM    7  N   UNL     1       6.803  26.335  52.420  1.00  0.00    -0.341 N 
HETATM    8  O   UNL     1       5.489  26.198  50.537  1.00  0.00    -0.246 OA
HETATM    9  H   UNL     1       7.351  27.087  52.813  1.00  0.00     0.164 HD
HETATM   10  H   UNL     1       4.708  28.471  51.187  1.00  0.00     0.192 HD
BRANCH   7  11
HETATM   11  C   UNL     1       7.511  25.115  52.084  1.00  0.00     0.129 C 
BRANCH  11  12
HETATM   12  C   UNL     1       7.862  24.222  53.282  1.00  0.00     0.004 C 
HETATM   13  C   UNL     1       7.982  22.741  52.890  1.00  0.00     0.010 C 
HETATM   14  C   UNL     1       8.433  21.889  54.087  1.00  0.00    -0.018 C 
HETATM   15  C   UNL     1       8.532  20.416  53.699  1.00  0.00     0.010 C 
HETATM   16  C   UNL     1       7.485  22.075  55.279  1.00  0.00     0.004 C 
HETATM   17  C   UNL     1       7.324  23.547  55.655  1.00  0.00     0.001 C 
HETATM   18  C   UNL     1       6.891  24.392  54.459  1.00  0.00     0.006 C 
ENDBRANCH  11  12
ENDBRANCH   7  11
ENDBRANCH   2   5
BRANCH   1  19
HETATM   19  C   UNL     1       5.093  29.281  55.275  1.00  0.00     0.121 A 
HETATM   20  N   UNL     1       4.186  29.493  56.275  1.00  0.00    -0.272 N 
HETATM   21  N   UNL     1       4.721  29.946  57.415  1.00  0.00    -0.174 NA
HETATM   22  H   UNL     1       3.181  29.346  56.227  1.00  0.00     0.189 HD
HETATM   23  C   UNL     1       6.036  30.035  57.165  1.00  0.00     0.089 A 
HETATM   24  C   UNL     1       6.310  29.624  55.828  1.00  0.00     0.071 A 
BRANCH  23  25
HETATM   25  C   UNL     1       6.977  30.514  58.183  1.00  0.00    -0.006 A 
HETATM   26  C   UNL     1       8.210  29.880  58.391  1.00  0.00     0.014 A 
HETATM   27  C   UNL     1       9.106  30.359  59.355  1.00  0.00     0.007 A 
HETATM   28  C   UNL     1       8.783  31.473  60.136  1.00  0.00    -0.062 A 
HETATM   29  C   UNL     1       9.752  32.013  61.146  1.00  0.00     0.048 C 
HETATM   30  C   UNL     1       7.556  32.111  59.931  1.00  0.00     0.007 A 
HETATM   31  C   UNL     1       6.662  31.632  58.968  1.00  0.00     0.014 A 
ENDBRANCH  23  25
ENDBRANCH   1  19
TORSDOF 5
ENDMDL
