MODEL 1
REMARK VINA RESULT:     -10.0      0.000      0.000
REMARK  4 active torsions:
REMARK  status: ('A' for Active; 'I' for Inactive)
REMARK    1  A    between atoms: C_3  and  C_4 
REMARK       I    between atoms: C_4  and  N_5 
REMARK    2  A    between atoms: N_5  and  N_6 
REMARK    3  A    between atoms: C_21  and  C_22 
REMARK    4  A    between atoms: C_25  and  O_26 
ROOT
HETATM    1  C   UNL     1       6.648  27.537  53.810  1.00  0.00     0.290 C 
HETATM    2  N   UNL     1       6.047  26.688  54.728  1.00  0.00    -0.241 N 
HETATM    3  O   UNL     1       7.683  28.160  54.026  1.00  0.00    -0.264 OA
HETATM    4  H   UNL     1       5.197  26.210  54.487  1.00  0.00     0.192 HD
ENDROOT
BRANCH   1   5
HETATM    5  C   UNL     1       5.922  27.719  52.573  1.00  0.00     0.127 A 
HETATM    6  C   UNL     1       5.166  26.907  51.733  1.00  0.00     0.003 A 
HETATM    7  C   UNL     1       4.925  25.443  51.827  1.00  0.00     0.053 C 
HETATM    8  C   UNL     1       4.702  27.786  50.694  1.00  0.00     0.095 A 
HETATM    9  N   UNL     1       5.198  29.020  50.855  1.00  0.00    -0.173 NA
HETATM   10  N   UNL     1       5.949  28.940  51.956  1.00  0.00    -0.272 N 
HETATM   11  H   UNL     1       6.457  29.762  52.269  1.00  0.00     0.189 HD
BRANCH   8  12
HETATM   12  C   UNL     1       3.835  27.486  49.552  1.00  0.00    -0.005 A 
HETATM   13  C   UNL     1       2.620  28.164  49.398  1.00  0.00     0.016 A 
HETATM   14  C   UNL     1       1.791  27.896  48.305  1.00  0.00     0.037 A 
HETATM   15  C   UNL     1       2.160  26.947  47.350  1.00  0.00     0.068 A 
HETATM   16  C   UNL     1       3.356  26.247  47.511  1.00  0.00     0.037 A 
HETATM   17  C   UNL     1       4.187  26.514  48.608  1.00  0.00     0.016 A 
BRANCH  15  18
HETATM   18  O   UNL     1       1.268  26.788  46.326  1.00  0.00    -0.356 OA
HETATM   19  C   UNL     1       0.096  27.592  46.367  1.00  0.00     0.210 C 
ENDBRANCH  15  18
ENDBRANCH   8  12
ENDBRANCH   1   5
BRANCH   2  20
HETATM   20  N   UNL     1       6.703  26.338  55.868  1.00  0.00    -0.165 NA
HETATM   21  C   UNL     1       7.466  25.293  55.880  1.00  0.00     0.157 A 
HETATM   22  C   UNL     1       8.360  24.985  57.102  1.00  0.00     0.277 A 
HETATM   23  C   UNL     1       7.733  24.217  54.914  1.00  0.00     0.027 A 
HETATM   24  O   UNL     1       8.414  25.607  58.139  1.00  0.00    -0.266 OA
HETATM   25  N   UNL     1       9.088  23.872  56.750  1.00  0.00    -0.321 N 
HETATM   26  C   UNL     1       8.725  23.417  55.488  1.00  0.00     0.048 A 
HETATM   27  H   UNL     1       9.757  23.444  57.371  1.00  0.00     0.169 HD
HETATM   28  C   UNL     1       9.228  22.298  54.856  1.00  0.00     0.030 A 
HETATM   29  C   UNL     1       8.694  21.969  53.608  1.00  0.00     0.002 A 
HETATM   30  C   UNL     1       7.670  22.747  53.037  1.00  0.00     0.001 A 
HETATM   31  C   UNL     1       7.171  23.878  53.695  1.00  0.00     0.016 A 
ENDBRANCH   2  20
TORSDOF 4
ENDMDL
MODEL 2
REMARK VINA RESULT:      -9.6      2.252      8.522
REMARK  4 active torsions:
REMARK  status: ('A' for Active; 'I' for Inactive)
REMARK    1  A    between atoms: C_3  and  C_4 
REMARK       I    between atoms: C_4  and  N_5 
REMARK    2  A    between atoms: N_5  and  N_6 
REMARK    3  A    between atoms: C_21  and  C_22 
REMARK    4  A    between atoms: C_25  and  O_26 
ROOT
HETATM    1  C   UNL     1       5.289  28.542  51.939  1.00  0.00     0.290 C 
HETATM    2  N   UNL     1       5.662  28.789  50.627  1.00  0.00    -0.241 N 
HETATM    3  O   UNL     1       4.480  29.223  52.563  1.00  0.00    -0.264 OA
HETATM    4  H   UNL     1       6.333  28.193  50.175  1.00  0.00     0.192 HD
ENDROOT
BRANCH   1   5
HETATM    5  C   UNL     1       5.986  27.451  52.583  1.00  0.00     0.127 A 
HETATM    6  C   UNL     1       5.866  26.064  52.601  1.00  0.00     0.003 A 
HETATM    7  C   UNL     1       4.826  25.215  51.964  1.00  0.00     0.053 C 
HETATM    8  C   UNL     1       6.948  25.614  53.435  1.00  0.00     0.095 A 
HETATM    9  N   UNL     1       7.628  26.653  53.938  1.00  0.00    -0.173 NA
HETATM   10  N   UNL     1       7.010  27.730  53.447  1.00  0.00    -0.272 N 
HETATM   11  H   UNL     1       7.337  28.653  53.716  1.00  0.00     0.189 HD
BRANCH   8  12
HETATM   12  C   UNL     1       7.333  24.245  53.784  1.00  0.00    -0.005 A 
HETATM   13  C   UNL     1       7.234  23.806  55.109  1.00  0.00     0.016 A 
HETATM   14  C   UNL     1       7.586  22.497  55.451  1.00  0.00     0.037 A 
HETATM   15  C   UNL     1       8.043  21.606  54.478  1.00  0.00     0.068 A 
HETATM   16  C   UNL     1       8.170  22.044  53.160  1.00  0.00     0.037 A 
HETATM   17  C   UNL     1       7.820  23.358  52.816  1.00  0.00     0.016 A 
BRANCH  15  18
HETATM   18  O   UNL     1       8.342  20.355  54.942  1.00  0.00    -0.356 OA
HETATM   19  C   UNL     1       9.005  20.278  56.197  1.00  0.00     0.210 C 
ENDBRANCH  15  18
ENDBRANCH   8  12
ENDBRANCH   1   5
BRANCH   2  20
HETATM   20  N   UNL     1       4.981  29.701  49.882  1.00  0.00    -0.165 NA
HETATM   21  C   UNL     1       4.106  29.304  49.014  1.00  0.00     0.157 A 
HETATM   22  C   UNL     1       3.194  30.321  48.293  1.00  0.00     0.277 A 
HETATM   23  C   UNL     1       3.715  27.985  48.495  1.00  0.00     0.027 A 
HETATM   24  O   UNL     1       3.217  31.526  48.406  1.00  0.00    -0.266 OA
HETATM   25  N   UNL     1       2.345  29.564  47.520  1.00  0.00    -0.321 N 
HETATM   26  C   UNL     1       2.645  28.212  47.625  1.00  0.00     0.048 A 
HETATM   27  H   UNL     1       1.636  29.976  46.931  1.00  0.00     0.169 HD
HETATM   28  C   UNL     1       2.016  27.188  46.945  1.00  0.00     0.030 A 
HETATM   29  C   UNL     1       2.501  25.893  47.142  1.00  0.00     0.002 A 
HETATM   30  C   UNL     1       3.600  25.658  47.988  1.00  0.00     0.001 A 
HETATM   31  C   UNL     1       4.226  26.710  48.667  1.00  0.00     0.016 A 
ENDBRANCH   2  20
TORSDOF 4
ENDMDL
MODEL 3
REMARK VINA RESULT:      -9.5      7.748     12.204
REMARK  4 active torsions:
REMARK  status: ('A' for Active; 'I' for Inactive)
REMARK    1  A    between atoms: C_3  and  C_4 
REMARK       I    between atoms: C_4  and  N_5 
REMARK    2  A    between atoms: N_5  and  N_6 
REMARK    3  A    between atoms: C_21  and  C_22 
REMARK    4  A    between atoms: C_25  and  O_26 
ROOT
HETATM    1  C   UNL     1       8.413  30.126  58.898  1.00  0.00     0.290 C 
HETATM    2  N   UNL     1       7.601  29.058  58.549  1.00  0.00    -0.241 N 
HETATM    3  O   UNL     1       9.320  30.559  58.193  1.00  0.00    -0.264 OA
HETATM    4  H   UNL     1       6.877  28.752  59.176  1.00  0.00     0.192 HD
ENDROOT
BRANCH   1   5
HETATM    5  C   UNL     1       8.182  30.669  60.218  1.00  0.00     0.127 A 
HETATM    6  C   UNL     1       7.349  31.642  60.764  1.00  0.00     0.003 A 
HETATM    7  C   UNL     1       6.414  32.561  60.063  1.00  0.00     0.053 C 
HETATM    8  C   UNL     1       7.630  31.617  62.173  1.00  0.00     0.095 A 
HETATM    9  N   UNL     1       8.608  30.744  62.450  1.00  0.00    -0.173 NA
HETATM   10  N   UNL     1       8.943  30.226  61.266  1.00  0.00    -0.272 N 
HETATM   11  H   UNL     1       9.696  29.546  61.218  1.00  0.00     0.189 HD
BRANCH   8  12
HETATM   12  C   UNL     1       7.023  32.405  63.248  1.00  0.00    -0.005 A 
HETATM   13  C   UNL     1       5.631  32.454  63.380  1.00  0.00     0.016 A 
HETATM   14  C   UNL     1       5.041  33.193  64.410  1.00  0.00     0.037 A 
HETATM   15  C   UNL     1       5.831  33.895  65.323  1.00  0.00     0.068 A 
HETATM   16  C   UNL     1       7.218  33.873  65.182  1.00  0.00     0.037 A 
HETATM   17  C   UNL     1       7.810  33.135  64.147  1.00  0.00     0.016 A 
BRANCH  15  18
HETATM   18  O   UNL     1       5.132  34.566  66.288  1.00  0.00    -0.356 OA
HETATM   19  C   UNL     1       5.489  34.301  67.639  1.00  0.00     0.210 C 
ENDBRANCH  15  18
ENDBRANCH   8  12
ENDBRANCH   1   5
BRANCH   2  20
HETATM   20  N   UNL     1       7.637  28.555  57.285  1.00  0.00    -0.165 NA
HETATM   21  C   UNL     1       6.732  28.899  56.425  1.00  0.00     0.157 A 
HETATM   22  C   UNL     1       6.860  28.488  54.941  1.00  0.00     0.277 A 
HETATM   23  C   UNL     1       5.487  29.676  56.515  1.00  0.00     0.027 A 
HETATM   24  O   UNL     1       7.728  27.804  54.448  1.00  0.00    -0.266 OA
HETATM   25  N   UNL     1       5.793  29.081  54.307  1.00  0.00    -0.321 N 
HETATM   26  C   UNL     1       4.990  29.763  55.212  1.00  0.00     0.048 A 
HETATM   27  H   UNL     1       5.624  28.975  53.318  1.00  0.00     0.169 HD
HETATM   28  C   UNL     1       3.818  30.428  54.912  1.00  0.00     0.030 A 
HETATM   29  C   UNL     1       3.118  31.008  55.973  1.00  0.00     0.002 A 
HETATM   30  C   UNL     1       3.591  30.895  57.294  1.00  0.00     0.001 A 
HETATM   31  C   UNL     1       4.782  30.214  57.577  1.00  0.00     0.016 A 
ENDBRANCH   2  20
TORSDOF 4
ENDMDL
MODEL 4
REMARK VINA RESULT:      -9.5      5.280      9.583
REMARK  4 active torsions:
REMARK  status: ('A' for Active; 'I' for Inactive)
REMARK    1  A    between atoms: C_3  and  C_4 
REMARK       I    between atoms: C_4  and  N_5 
REMARK    2  A    between atoms: N_5  and  N_6 
REMARK    3  A    between atoms: C_21  and  C_22 
REMARK    4  A    between atoms: C_25  and  O_26 
ROOT
HETATM    1  C   UNL     1       8.480  28.735  55.405  1.00  0.00     0.290 C 
HETATM    2  N   UNL     1       7.515  27.741  55.462  1.00  0.00    -0.241 N 
HETATM    3  O   UNL     1       9.145  28.991  54.405  1.00  0.00    -0.264 OA
HETATM    4  H   UNL     1       7.008  27.583  56.314  1.00  0.00     0.192 HD
ENDROOT
BRANCH   1   5
HETATM    5  C   UNL     1       8.727  29.426  56.651  1.00  0.00     0.127 A 
HETATM    6  C   UNL     1       7.944  29.912  57.693  1.00  0.00     0.003 A 
HETATM    7  C   UNL     1       6.461  29.941  57.804  1.00  0.00     0.053 C 
HETATM    8  C   UNL     1       8.884  30.449  58.639  1.00  0.00     0.095 A 
HETATM    9  N   UNL     1      10.136  30.358  58.172  1.00  0.00    -0.173 NA
HETATM   10  N   UNL     1      10.008  29.782  56.975  1.00  0.00    -0.272 N 
HETATM   11  H   UNL     1      10.837  29.630  56.408  1.00  0.00     0.189 HD
BRANCH   8  12
HETATM   12  C   UNL     1       8.629  31.063  59.944  1.00  0.00    -0.005 A 
HETATM   13  C   UNL     1       9.049  30.421  61.115  1.00  0.00     0.016 A 
HETATM   14  C   UNL     1       8.823  31.004  62.364  1.00  0.00     0.037 A 
HETATM   15  C   UNL     1       8.174  32.236  62.467  1.00  0.00     0.068 A 
HETATM   16  C   UNL     1       7.729  32.870  61.307  1.00  0.00     0.037 A 
HETATM   17  C   UNL     1       7.952  32.284  60.053  1.00  0.00     0.016 A 
BRANCH  15  18
HETATM   18  O   UNL     1       8.027  32.702  63.744  1.00  0.00    -0.356 OA
HETATM   19  C   UNL     1       6.703  33.000  64.169  1.00  0.00     0.210 C 
ENDBRANCH  15  18
ENDBRANCH   8  12
ENDBRANCH   1   5
BRANCH   2  20
HETATM   20  N   UNL     1       7.105  27.119  54.323  1.00  0.00    -0.165 NA
HETATM   21  C   UNL     1       7.098  25.826  54.259  1.00  0.00     0.157 A 
HETATM   22  C   UNL     1       6.465  25.101  53.051  1.00  0.00     0.277 A 
HETATM   23  C   UNL     1       7.584  24.761  55.150  1.00  0.00     0.027 A 
HETATM   24  O   UNL     1       5.980  25.613  52.067  1.00  0.00    -0.266 OA
HETATM   25  N   UNL     1       6.554  23.760  53.344  1.00  0.00    -0.321 N 
HETATM   26  C   UNL     1       7.207  23.555  54.552  1.00  0.00     0.048 A 
HETATM   27  H   UNL     1       6.217  23.045  52.716  1.00  0.00     0.169 HD
HETATM   28  C   UNL     1       7.502  22.329  55.115  1.00  0.00     0.030 A 
HETATM   29  C   UNL     1       8.218  22.327  56.314  1.00  0.00     0.002 A 
HETATM   30  C   UNL     1       8.633  23.535  56.905  1.00  0.00     0.001 A 
HETATM   31  C   UNL     1       8.326  24.768  56.317  1.00  0.00     0.016 A 
ENDBRANCH   2  20
TORSDOF 4
ENDMDL
MODEL 5
REMARK VINA RESULT:      -9.3      9.534     13.593
REMARK  4 active torsions:
REMARK  status: ('A' for Active; 'I' for Inactive)
REMARK    1  A    between atoms: C_3  and  C_4 
REMARK       I    between atoms: C_4  and  N_5 
REMARK    2  A    between atoms: N_5  and  N_6 
REMARK    3  A    between atoms: C_21  and  C_22 
REMARK    4  A    between atoms: C_25  and  O_26 
ROOT
HETATM    1  C   UNL     1       4.653  32.741  59.996  1.00  0.00     0.290 C 
HETATM    2  N   UNL     1       4.924  31.524  59.387  1.00  0.00    -0.241 N 
HETATM    3  O   UNL     1       4.338  33.759  59.386  1.00  0.00    -0.264 OA
HETATM    4  H   UNL     1       5.178  30.729  59.946  1.00  0.00     0.192 HD
ENDROOT
BRANCH   1   5
HETATM    5  C   UNL     1       4.846  32.768  61.429  1.00  0.00     0.127 A 
HETATM    6  C   UNL     1       5.173  33.738  62.371  1.00  0.00     0.003 A 
HETATM    7  C   UNL     1       5.538  35.162  62.149  1.00  0.00     0.053 C 
HETATM    8  C   UNL     1       5.143  33.049  63.633  1.00  0.00     0.095 A 
HETATM    9  N   UNL     1       4.886  31.746  63.458  1.00  0.00    -0.173 NA
HETATM   10  N   UNL     1       4.754  31.602  62.137  1.00  0.00    -0.272 N 
HETATM   11  H   UNL     1       4.578  30.677  61.756  1.00  0.00     0.189 HD
BRANCH   8  12
HETATM   12  C   UNL     1       5.374  33.579  64.978  1.00  0.00    -0.005 A 
HETATM   13  C   UNL     1       4.291  33.987  65.766  1.00  0.00     0.016 A 
HETATM   14  C   UNL     1       4.500  34.481  67.056  1.00  0.00     0.037 A 
HETATM   15  C   UNL     1       5.789  34.578  67.581  1.00  0.00     0.068 A 
HETATM   16  C   UNL     1       6.876  34.199  66.792  1.00  0.00     0.037 A 
HETATM   17  C   UNL     1       6.668  33.706  65.496  1.00  0.00     0.016 A 
BRANCH  15  18
HETATM   18  O   UNL     1       5.854  35.066  68.857  1.00  0.00    -0.356 OA
HETATM   19  C   UNL     1       7.147  35.155  69.444  1.00  0.00     0.210 C 
ENDBRANCH  15  18
ENDBRANCH   8  12
ENDBRANCH   1   5
BRANCH   2  20
HETATM   20  N   UNL     1       4.649  31.343  58.067  1.00  0.00    -0.165 NA
HETATM   21  C   UNL     1       5.511  30.754  57.301  1.00  0.00     0.157 A 
HETATM   22  C   UNL     1       5.145  30.374  55.849  1.00  0.00     0.277 A 
HETATM   23  C   UNL     1       6.896  30.297  57.493  1.00  0.00     0.027 A 
HETATM   24  O   UNL     1       4.105  30.608  55.277  1.00  0.00    -0.266 OA
HETATM   25  N   UNL     1       6.242  29.702  55.362  1.00  0.00    -0.321 N 
HETATM   26  C   UNL     1       7.261  29.660  56.303  1.00  0.00     0.048 A 
HETATM   27  H   UNL     1       6.280  29.339  54.421  1.00  0.00     0.169 HD
HETATM   28  C   UNL     1       8.511  29.102  56.120  1.00  0.00     0.030 A 
HETATM   29  C   UNL     1       9.425  29.210  57.170  1.00  0.00     0.002 A 
HETATM   30  C   UNL     1       9.079  29.881  58.358  1.00  0.00     0.001 A 
HETATM   31  C   UNL     1       7.807  30.443  58.524  1.00  0.00     0.016 A 
ENDBRANCH   2  20
TORSDOF 4
ENDMDL
MODEL 6
REMARK VINA RESULT:      -9.1      7.001     10.084
REMARK  4 active torsions:
REMARK  status: ('A' for Active; 'I' for Inactive)
REMARK    1  A    between atoms: C_3  and  C_4 
REMARK       I    between atoms: C_4  and  N_5 
REMARK    2  A    between atoms: N_5  and  N_6 
REMARK    3  A    between atoms: C_21  and  C_22 
REMARK    4  A    between atoms: C_25  and  O_26 
ROOT
HETATM    1  C   UNL     1       5.765  31.602  58.448  1.00  0.00     0.290 C 
HETATM    2  N   UNL     1       4.911  31.586  59.541  1.00  0.00    -0.241 N 
HETATM    3  O   UNL     1       5.950  32.584  57.736  1.00  0.00    -0.264 OA
HETATM    4  H   UNL     1       4.804  30.745  60.081  1.00  0.00     0.192 HD
ENDROOT
BRANCH   1   5
HETATM    5  C   UNL     1       6.385  30.334  58.133  1.00  0.00     0.127 A 
HETATM    6  C   UNL     1       6.052  29.227  57.358  1.00  0.00     0.003 A 
HETATM    7  C   UNL     1       4.793  28.961  56.614  1.00  0.00     0.053 C 
HETATM    8  C   UNL     1       7.181  28.345  57.474  1.00  0.00     0.095 A 
HETATM    9  N   UNL     1       8.097  28.849  58.313  1.00  0.00    -0.173 NA
HETATM   10  N   UNL     1       7.579  30.011  58.718  1.00  0.00    -0.272 N 
HETATM   11  H   UNL     1       8.092  30.573  59.391  1.00  0.00     0.189 HD
BRANCH   8  12
HETATM   12  C   UNL     1       7.401  27.042  56.843  1.00  0.00    -0.005 A 
HETATM   13  C   UNL     1       7.306  26.912  55.452  1.00  0.00     0.016 A 
HETATM   14  C   UNL     1       7.527  25.677  54.838  1.00  0.00     0.037 A 
HETATM   15  C   UNL     1       7.847  24.551  55.600  1.00  0.00     0.068 A 
HETATM   16  C   UNL     1       7.917  24.666  56.989  1.00  0.00     0.037 A 
HETATM   17  C   UNL     1       7.692  25.905  57.606  1.00  0.00     0.016 A 
BRANCH  15  18
HETATM   18  O   UNL     1       8.051  23.409  54.877  1.00  0.00    -0.356 OA
HETATM   19  C   UNL     1       7.741  23.464  53.490  1.00  0.00     0.210 C 
ENDBRANCH  15  18
ENDBRANCH   8  12
ENDBRANCH   1   5
BRANCH   2  20
HETATM   20  N   UNL     1       4.378  32.746  60.010  1.00  0.00    -0.165 NA
HETATM   21  C   UNL     1       4.914  33.339  61.029  1.00  0.00     0.157 A 
HETATM   22  C   UNL     1       4.440  34.745  61.460  1.00  0.00     0.277 A 
HETATM   23  C   UNL     1       5.983  32.975  61.971  1.00  0.00     0.027 A 
HETATM   24  O   UNL     1       3.545  35.393  60.968  1.00  0.00    -0.266 OA
HETATM   25  N   UNL     1       5.265  35.103  62.502  1.00  0.00    -0.321 N 
HETATM   26  C   UNL     1       6.154  34.081  62.808  1.00  0.00     0.048 A 
HETATM   27  H   UNL     1       5.175  35.984  62.986  1.00  0.00     0.169 HD
HETATM   28  C   UNL     1       7.084  34.096  63.829  1.00  0.00     0.030 A 
HETATM   29  C   UNL     1       7.853  32.945  64.016  1.00  0.00     0.002 A 
HETATM   30  C   UNL     1       7.664  31.814  63.201  1.00  0.00     0.001 A 
HETATM   31  C   UNL     1       6.713  31.817  62.173  1.00  0.00     0.016 A 
ENDBRANCH   2  20
TORSDOF 4
ENDMDL
MODEL 7
REMARK VINA RESULT:      -8.9      2.145      2.353
REMARK  4 active torsions:
REMARK  status: ('A' for Active; 'I' for Inactive)
REMARK    1  A    between atoms: C_3  and  C_4 
REMARK       I    between atoms: C_4  and  N_5 
REMARK    2  A    between atoms: N_5  and  N_6 
REMARK    3  A    between atoms: C_21  and  C_22 
REMARK    4  A    between atoms: C_25  and  O_26 
ROOT
HETATM    1  C   UNL     1       5.362  26.265  53.398  1.00  0.00     0.290 C 
HETATM    2  N   UNL     1       6.680  26.510  53.753  1.00  0.00    -0.241 N 
HETATM    3  O   UNL     1       4.552  25.690  54.120  1.00  0.00    -0.264 OA
HETATM    4  H   UNL     1       7.293  26.984  53.113  1.00  0.00     0.192 HD
ENDROOT
BRANCH   1   5
HETATM    5  C   UNL     1       5.002  26.665  52.056  1.00  0.00     0.127 A 
HETATM    6  C   UNL     1       4.594  27.846  51.444  1.00  0.00     0.003 A 
HETATM    7  C   UNL     1       4.298  29.161  52.070  1.00  0.00     0.053 C 
HETATM    8  C   UNL     1       4.454  27.509  50.053  1.00  0.00     0.095 A 
HETATM    9  N   UNL     1       4.693  26.206  49.851  1.00  0.00    -0.173 NA
HETATM   10  N   UNL     1       4.976  25.724  51.063  1.00  0.00    -0.272 N 
HETATM   11  H   UNL     1       5.170  24.732  51.168  1.00  0.00     0.189 HD
BRANCH   8  12
HETATM   12  C   UNL     1       4.081  28.370  48.930  1.00  0.00    -0.005 A 
HETATM   13  C   UNL     1       2.786  28.309  48.400  1.00  0.00     0.016 A 
HETATM   14  C   UNL     1       2.415  29.136  47.336  1.00  0.00     0.037 A 
HETATM   15  C   UNL     1       3.327  30.037  46.784  1.00  0.00     0.068 A 
HETATM   16  C   UNL     1       4.627  30.085  47.289  1.00  0.00     0.037 A 
HETATM   17  C   UNL     1       5.001  29.254  48.354  1.00  0.00     0.016 A 
BRANCH  15  18
HETATM   18  O   UNL     1       2.834  30.795  45.759  1.00  0.00    -0.356 OA
HETATM   19  C   UNL     1       3.758  31.643  45.088  1.00  0.00     0.210 C 
ENDBRANCH  15  18
ENDBRANCH   8  12
ENDBRANCH   1   5
BRANCH   2  20
HETATM   20  N   UNL     1       7.095  26.299  55.032  1.00  0.00    -0.165 NA
HETATM   21  C   UNL     1       7.703  25.198  55.342  1.00  0.00     0.157 A 
HETATM   22  C   UNL     1       8.343  25.019  56.736  1.00  0.00     0.277 A 
HETATM   23  C   UNL     1       7.973  23.947  54.618  1.00  0.00     0.027 A 
HETATM   24  O   UNL     1       8.315  25.804  57.657  1.00  0.00    -0.266 OA
HETATM   25  N   UNL     1       8.964  23.792  56.696  1.00  0.00    -0.321 N 
HETATM   26  C   UNL     1       8.748  23.162  55.477  1.00  0.00     0.048 A 
HETATM   27  H   UNL     1       9.464  23.411  57.486  1.00  0.00     0.169 HD
HETATM   28  C   UNL     1       9.191  21.903  55.126  1.00  0.00     0.030 A 
HETATM   29  C   UNL     1       8.823  21.418  53.870  1.00  0.00     0.002 A 
HETATM   30  C   UNL     1       8.013  22.186  53.012  1.00  0.00     0.001 A 
HETATM   31  C   UNL     1       7.571  23.460  53.387  1.00  0.00     0.016 A 
ENDBRANCH   2  20
TORSDOF 4
ENDMDL
MODEL 8
REMARK VINA RESULT:      -8.4      5.268      9.105
REMARK  4 active torsions:
REMARK  status: ('A' for Active; 'I' for Inactive)
REMARK    1  A    between atoms: C_3  and  C_4 
REMARK       I    between atoms: C_4  and  N_5 
REMARK    2  A    between atoms: N_5  and  N_6 
REMARK    3  A    between atoms: C_21  and  C_22 
REMARK    4  A    between atoms: C_25  and  O_26 
ROOT
HETATM    1  C   UNL     1       6.662  28.534  55.265  1.00  0.00     0.290 C 
HETATM    2  N   UNL     1       7.706  27.955  54.560  1.00  0.00    -0.241 N 
HETATM    3  O   UNL     1       5.485  28.475  54.921  1.00  0.00    -0.264 OA
HETATM    4  H   UNL     1       8.649  28.044  54.897  1.00  0.00     0.192 HD
ENDROOT
BRANCH   1   5
HETATM    5  C   UNL     1       7.054  29.306  56.423  1.00  0.00     0.127 A 
HETATM    6  C   UNL     1       6.391  29.941  57.469  1.00  0.00     0.003 A 
HETATM    7  C   UNL     1       4.928  30.098  57.680  1.00  0.00     0.053 C 
HETATM    8  C   UNL     1       7.438  30.480  58.294  1.00  0.00     0.095 A 
HETATM    9  N   UNL     1       8.641  30.249  57.750  1.00  0.00    -0.173 NA
HETATM   10  N   UNL     1       8.379  29.585  56.622  1.00  0.00    -0.272 N 
HETATM   11  H   UNL     1       9.149  29.319  56.014  1.00  0.00     0.189 HD
BRANCH   8  12
HETATM   12  C   UNL     1       7.330  31.222  59.552  1.00  0.00    -0.005 A 
HETATM   13  C   UNL     1       6.366  32.227  59.692  1.00  0.00     0.016 A 
HETATM   14  C   UNL     1       6.245  32.931  60.893  1.00  0.00     0.037 A 
HETATM   15  C   UNL     1       7.083  32.646  61.972  1.00  0.00     0.068 A 
HETATM   16  C   UNL     1       8.065  31.665  61.831  1.00  0.00     0.037 A 
HETATM   17  C   UNL     1       8.188  30.959  60.626  1.00  0.00     0.016 A 
BRANCH  15  18
HETATM   18  O   UNL     1       6.853  33.398  63.091  1.00  0.00    -0.356 OA
HETATM   19  C   UNL     1       5.937  34.478  62.960  1.00  0.00     0.210 C 
ENDBRANCH  15  18
ENDBRANCH   8  12
ENDBRANCH   1   5
BRANCH   2  20
HETATM   20  N   UNL     1       7.448  27.099  53.535  1.00  0.00    -0.165 NA
HETATM   21  C   UNL     1       7.413  25.822  53.750  1.00  0.00     0.157 A 
HETATM   22  C   UNL     1       6.942  24.850  52.647  1.00  0.00     0.277 A 
HETATM   23  C   UNL     1       7.734  24.979  54.912  1.00  0.00     0.027 A 
HETATM   24  O   UNL     1       6.620  25.134  51.515  1.00  0.00    -0.266 OA
HETATM   25  N   UNL     1       6.949  23.605  53.232  1.00  0.00    -0.321 N 
HETATM   26  C   UNL     1       7.413  23.670  54.539  1.00  0.00     0.048 A 
HETATM   27  H   UNL     1       6.686  22.769  52.731  1.00  0.00     0.169 HD
HETATM   28  C   UNL     1       7.588  22.597  55.391  1.00  0.00     0.030 A 
HETATM   29  C   UNL     1       8.122  22.859  56.654  1.00  0.00     0.002 A 
HETATM   30  C   UNL     1       8.482  24.168  57.025  1.00  0.00     0.001 A 
HETATM   31  C   UNL     1       8.299  25.242  56.147  1.00  0.00     0.016 A 
ENDBRANCH   2  20
TORSDOF 4
ENDMDL
MODEL 9
REMARK VINA RESULT:      -8.4      2.059      2.356
REMARK  4 active torsions:
REMARK  status: ('A' for Active; 'I' for Inactive)
REMARK    1  A    between atoms: C_3  and  C_4 
REMARK       I    between atoms: C_4  and  N_5 
REMARK    2  A    between atoms: N_5  and  N_6 
REMARK    3  A    between atoms: C_21  and  C_22 
REMARK    4  A    between atoms: C_25  and  O_26 
ROOT
HETATM    1  C   UNL     1       5.570  27.613  54.735  1.00  0.00     0.290 C 
HETATM    2  N   UNL     1       6.881  27.167  54.807  1.00  0.00    -0.241 N 
HETATM    3  O   UNL     1       4.710  27.356  55.573  1.00  0.00    -0.264 OA
HETATM    4  H   UNL     1       7.535  27.412  54.085  1.00  0.00     0.192 HD
ENDROOT
BRANCH   1   5
HETATM    5  C   UNL     1       5.237  28.355  53.539  1.00  0.00     0.127 A 
HETATM    6  C   UNL     1       5.162  28.071  52.179  1.00  0.00     0.003 A 
HETATM    7  C   UNL     1       5.518  26.812  51.473  1.00  0.00     0.053 C 
HETATM    8  C   UNL     1       4.714  29.295  51.573  1.00  0.00     0.095 A 
HETATM    9  N   UNL     1       4.595  30.266  52.489  1.00  0.00    -0.173 NA
HETATM   10  N   UNL     1       4.950  29.689  53.639  1.00  0.00    -0.272 N 
HETATM   11  H   UNL     1       4.964  30.246  54.489  1.00  0.00     0.189 HD
BRANCH   8  12
HETATM   12  C   UNL     1       4.426  29.574  50.165  1.00  0.00    -0.005 A 
HETATM   13  C   UNL     1       5.179  30.529  49.471  1.00  0.00     0.016 A 
HETATM   14  C   UNL     1       4.922  30.793  48.123  1.00  0.00     0.037 A 
HETATM   15  C   UNL     1       3.909  30.112  47.446  1.00  0.00     0.068 A 
HETATM   16  C   UNL     1       3.136  29.179  48.137  1.00  0.00     0.037 A 
HETATM   17  C   UNL     1       3.392  28.915  49.490  1.00  0.00     0.016 A 
BRANCH  15  18
HETATM   18  O   UNL     1       3.768  30.455  46.130  1.00  0.00    -0.356 OA
HETATM   19  C   UNL     1       4.743  31.339  45.590  1.00  0.00     0.210 C 
ENDBRANCH  15  18
ENDBRANCH   8  12
ENDBRANCH   1   5
BRANCH   2  20
HETATM   20  N   UNL     1       7.341  26.576  55.943  1.00  0.00    -0.165 NA
HETATM   21  C   UNL     1       7.780  25.358  55.908  1.00  0.00     0.157 A 
HETATM   22  C   UNL     1       8.475  24.736  57.138  1.00  0.00     0.277 A 
HETATM   23  C   UNL     1       7.792  24.312  54.874  1.00  0.00     0.027 A 
HETATM   24  O   UNL     1       8.639  25.252  58.220  1.00  0.00    -0.266 OA
HETATM   25  N   UNL     1       8.882  23.486  56.732  1.00  0.00    -0.321 N 
HETATM   26  C   UNL     1       8.484  23.230  55.427  1.00  0.00     0.048 A 
HETATM   27  H   UNL     1       9.366  22.848  57.346  1.00  0.00     0.169 HD
HETATM   28  C   UNL     1       8.690  22.055  54.732  1.00  0.00     0.030 A 
HETATM   29  C   UNL     1       8.163  21.969  53.443  1.00  0.00     0.002 A 
HETATM   30  C   UNL     1       7.434  23.038  52.890  1.00  0.00     0.001 A 
HETATM   31  C   UNL     1       7.233  24.222  53.612  1.00  0.00     0.016 A 
ENDBRANCH   2  20
TORSDOF 4
ENDMDL
MODEL 10
REMARK VINA RESULT:      -8.3      5.742     10.073
REMARK  4 active torsions:
REMARK  status: ('A' for Active; 'I' for Inactive)
REMARK    1  A    between atoms: C_3  and  C_4 
REMARK       I    between atoms: C_4  and  N_5 
REMARK    2  A    between atoms: N_5  and  N_6 
REMARK    3  A    between atoms: C_21  and  C_22 
REMARK    4  A    between atoms: C_25  and  O_26 
ROOT
HETATM    1  C   UNL     1       5.289  30.171  55.885  1.00  0.00     0.290 C 
HETATM    2  N   UNL     1       6.012  29.557  54.874  1.00  0.00    -0.241 N 
HETATM    3  O   UNL     1       4.132  30.565  55.761  1.00  0.00    -0.264 OA
HETATM    4  H   UNL     1       6.957  29.261  55.042  1.00  0.00     0.192 HD
ENDROOT
BRANCH   1   5
HETATM    5  C   UNL     1       6.020  30.405  57.110  1.00  0.00     0.127 A 
HETATM    6  C   UNL     1       5.962  31.335  58.143  1.00  0.00     0.003 A 
HETATM    7  C   UNL     1       5.094  32.536  58.262  1.00  0.00     0.053 C 
HETATM    8  C   UNL     1       6.982  30.921  59.068  1.00  0.00     0.095 A 
HETATM    9  N   UNL     1       7.652  29.861  58.596  1.00  0.00    -0.173 NA
HETATM   10  N   UNL     1       7.085  29.602  57.415  1.00  0.00    -0.272 N 
HETATM   11  H   UNL     1       7.450  28.842  56.848  1.00  0.00     0.189 HD
BRANCH   8  12
HETATM   12  C   UNL     1       7.351  31.509  60.357  1.00  0.00    -0.005 A 
HETATM   13  C   UNL     1       6.363  32.044  61.192  1.00  0.00     0.016 A 
HETATM   14  C   UNL     1       6.702  32.596  62.430  1.00  0.00     0.037 A 
HETATM   15  C   UNL     1       8.032  32.624  62.855  1.00  0.00     0.068 A 
HETATM   16  C   UNL     1       9.026  32.118  62.018  1.00  0.00     0.037 A 
HETATM   17  C   UNL     1       8.686  31.566  60.774  1.00  0.00     0.016 A 
BRANCH  15  18
HETATM   18  O   UNL     1       8.227  33.180  64.089  1.00  0.00    -0.356 OA
HETATM   19  C   UNL     1       7.069  33.394  64.886  1.00  0.00     0.210 C 
ENDBRANCH  15  18
ENDBRANCH   8  12
ENDBRANCH   1   5
BRANCH   2  20
HETATM   20  N   UNL     1       5.391  29.167  53.727  1.00  0.00    -0.165 NA
HETATM   21  C   UNL     1       5.404  27.921  53.376  1.00  0.00     0.157 A 
HETATM   22  C   UNL     1       4.553  27.431  52.183  1.00  0.00     0.277 A 
HETATM   23  C   UNL     1       6.090  26.727  53.890  1.00  0.00     0.027 A 
HETATM   24  O   UNL     1       3.862  28.107  51.456  1.00  0.00    -0.266 OA
HETATM   25  N   UNL     1       4.734  26.068  52.143  1.00  0.00    -0.321 N 
HETATM   26  C   UNL     1       5.629  25.654  53.122  1.00  0.00     0.048 A 
HETATM   27  H   UNL     1       4.293  25.483  51.449  1.00  0.00     0.169 HD
HETATM   28  C   UNL     1       6.065  24.360  53.324  1.00  0.00     0.030 A 
HETATM   29  C   UNL     1       7.014  24.151  54.327  1.00  0.00     0.002 A 
HETATM   30  C   UNL     1       7.512  25.229  55.082  1.00  0.00     0.001 A 
HETATM   31  C   UNL     1       7.059  26.535  54.860  1.00  0.00     0.016 A 
ENDBRANCH   2  20
TORSDOF 4
ENDMDL
