MODEL 1
REMARK VINA RESULT:     -10.2      0.000      0.000
REMARK  8 active torsions:
REMARK  status: ('A' for Active; 'I' for Inactive)
REMARK    1  A    between atoms: C_2  and  C_3 
REMARK    2  A    between atoms: C_4  and  O_5 
REMARK    3  A    between atoms: N_10  and  N_11 
REMARK       I    between atoms: N_11  and  C_12 
REMARK    4  A    between atoms: C_12  and  C_13 
REMARK    5  A    between atoms: C_13  and  N_14 
REMARK       I    between atoms: N_14  and  C_15 
REMARK    6  A    between atoms: C_15  and  C_16 
REMARK    7  A    between atoms: C_16  and  N_17 
REMARK       I    between atoms: N_17  and  C_18 
REMARK    8  A    between atoms: C_18  and  C_19 
ROOT
HETATM    1  C   UNL     1       9.600  30.099  57.961  1.00  0.00     0.227 C 
ENDROOT
BRANCH   1   2
HETATM    2  C   UNL     1       8.998  31.046  59.001  1.00  0.00     0.255 C 
HETATM    3  N   UNL     1       8.144  30.440  59.908  1.00  0.00    -0.246 N 
HETATM    4  H   UNL     1       8.084  29.426  59.940  1.00  0.00     0.192 HD
HETATM    5  O   UNL     1       9.184  32.262  58.934  1.00  0.00    -0.270 OA
BRANCH   3   6
HETATM    6  N   UNL     1       7.516  31.213  60.837  1.00  0.00    -0.176 NA
HETATM    7  C   UNL     1       7.913  31.187  62.076  1.00  0.00     0.064 C 
HETATM    8  C   UNL     1       9.012  30.285  62.584  1.00  0.00     0.073 C 
BRANCH   7   9
HETATM    9  C   UNL     1       7.222  32.092  63.047  1.00  0.00     0.023 A 
HETATM   10  C   UNL     1       5.821  32.136  63.108  1.00  0.00     0.077 A 
HETATM   11  C   UNL     1       5.175  32.954  64.036  1.00  0.00     0.037 A 
HETATM   12  C   UNL     1       5.921  33.755  64.898  1.00  0.00     0.003 A 
HETATM   13  C   UNL     1       7.313  33.744  64.828  1.00  0.00     0.001 A 
HETATM   14  C   UNL     1       7.963  32.918  63.906  1.00  0.00     0.016 A 
BRANCH  10  15
HETATM   15  O   UNL     1       5.007  31.400  62.290  1.00  0.00    -0.360 OA
HETATM   16  H   UNL     1       5.567  30.756  61.797  1.00  0.00     0.217 HD
ENDBRANCH  10  15
ENDBRANCH   7   9
ENDBRANCH   3   6
ENDBRANCH   1   2
BRANCH   1  17
HETATM   17  N   UNL     1       8.692  29.546  56.968  1.00  0.00    -0.351 N 
HETATM   18  C   UNL     1       8.016  28.364  57.180  1.00  0.00     0.235 C 
HETATM   19  O   UNL     1       7.984  27.788  58.263  1.00  0.00    -0.272 OA
HETATM   20  H   UNL     1       8.483  30.076  56.126  1.00  0.00     0.163 HD
BRANCH  18  21
HETATM   21  C   UNL     1       7.245  27.864  55.958  1.00  0.00     0.225 C 
BRANCH  21  22
HETATM   22  N   UNL     1       7.548  26.479  55.669  1.00  0.00    -0.348 N 
HETATM   23  C   UNL     1       6.751  25.721  54.852  1.00  0.00     0.253 C 
HETATM   24  O   UNL     1       5.676  26.160  54.440  1.00  0.00    -0.268 OA
HETATM   25  H   UNL     1       8.367  26.075  56.110  1.00  0.00     0.163 HD
BRANCH  23  26
HETATM   26  C   UNL     1       7.197  24.336  54.482  1.00  0.00     0.053 A 
HETATM   27  C   UNL     1       7.598  23.894  53.210  1.00  0.00     0.049 A 
HETATM   28 CL   UNL     1       7.624  24.882  51.789  1.00  0.00    -0.083 Cl
HETATM   29  C   UNL     1       8.015  22.566  53.023  1.00  0.00     0.025 A 
HETATM   30  C   UNL     1       8.041  21.668  54.087  1.00  0.00     0.002 A 
HETATM   31  C   UNL     1       7.636  22.085  55.348  1.00  0.00     0.001 A 
HETATM   32  C   UNL     1       7.211  23.402  55.539  1.00  0.00     0.019 A 
ENDBRANCH  23  26
ENDBRANCH  21  22
ENDBRANCH  18  21
ENDBRANCH   1  17
TORSDOF 8
ENDMDL
MODEL 2
REMARK VINA RESULT:      -9.9      2.912     10.327
REMARK  8 active torsions:
REMARK  status: ('A' for Active; 'I' for Inactive)
REMARK    1  A    between atoms: C_2  and  C_3 
REMARK    2  A    between atoms: C_4  and  O_5 
REMARK    3  A    between atoms: N_10  and  N_11 
REMARK       I    between atoms: N_11  and  C_12 
REMARK    4  A    between atoms: C_12  and  C_13 
REMARK    5  A    between atoms: C_13  and  N_14 
REMARK       I    between atoms: N_14  and  C_15 
REMARK    6  A    between atoms: C_15  and  C_16 
REMARK    7  A    between atoms: C_16  and  N_17 
REMARK       I    between atoms: N_17  and  C_18 
REMARK    8  A    between atoms: C_18  and  C_19 
ROOT
HETATM    1  C   UNL     1       7.177  28.886  55.478  1.00  0.00     0.227 C 
ENDROOT
BRANCH   1   2
HETATM    2  C   UNL     1       7.328  27.542  54.761  1.00  0.00     0.255 C 
HETATM    3  N   UNL     1       6.896  26.447  55.491  1.00  0.00    -0.246 N 
HETATM    4  H   UNL     1       6.381  26.592  56.356  1.00  0.00     0.192 HD
HETATM    5  O   UNL     1       7.901  27.465  53.674  1.00  0.00    -0.270 OA
BRANCH   3   6
HETATM    6  N   UNL     1       7.043  25.203  54.958  1.00  0.00    -0.176 NA
HETATM    7  C   UNL     1       7.786  24.323  55.563  1.00  0.00     0.064 C 
HETATM    8  C   UNL     1       8.573  24.613  56.818  1.00  0.00     0.073 C 
BRANCH   7   9
HETATM    9  C   UNL     1       7.874  22.955  54.962  1.00  0.00     0.023 A 
HETATM   10  C   UNL     1       8.054  22.794  53.579  1.00  0.00     0.077 A 
HETATM   11  C   UNL     1       8.170  21.520  53.022  1.00  0.00     0.037 A 
HETATM   12  C   UNL     1       8.085  20.391  53.835  1.00  0.00     0.003 A 
HETATM   13  C   UNL     1       7.877  20.536  55.205  1.00  0.00     0.001 A 
HETATM   14  C   UNL     1       7.769  21.812  55.768  1.00  0.00     0.016 A 
BRANCH  10  15
HETATM   15  O   UNL     1       8.130  23.841  52.701  1.00  0.00    -0.360 OA
HETATM   16  H   UNL     1       8.931  23.714  52.141  1.00  0.00     0.217 HD
ENDBRANCH  10  15
ENDBRANCH   7   9
ENDBRANCH   3   6
ENDBRANCH   1   2
BRANCH   1  17
HETATM   17  N   UNL     1       8.169  29.207  56.493  1.00  0.00    -0.351 N 
HETATM   18  C   UNL     1       9.472  29.512  56.167  1.00  0.00     0.235 C 
HETATM   19  O   UNL     1       9.853  29.709  55.016  1.00  0.00    -0.272 OA
HETATM   20  H   UNL     1       7.884  29.289  57.467  1.00  0.00     0.163 HD
BRANCH  18  21
HETATM   21  C   UNL     1      10.397  29.654  57.375  1.00  0.00     0.225 C 
BRANCH  21  22
HETATM   22  N   UNL     1       9.671  30.071  58.555  1.00  0.00    -0.348 N 
HETATM   23  C   UNL     1       9.611  31.385  58.939  1.00  0.00     0.253 C 
HETATM   24  O   UNL     1      10.284  32.239  58.361  1.00  0.00    -0.268 OA
HETATM   25  H   UNL     1       9.219  29.351  59.108  1.00  0.00     0.163 HD
BRANCH  23  26
HETATM   26  C   UNL     1       8.726  31.766  60.091  1.00  0.00     0.053 A 
HETATM   27  C   UNL     1       7.346  32.023  60.041  1.00  0.00     0.049 A 
HETATM   28 CL   UNL     1       6.388  31.975  58.601  1.00  0.00    -0.083 Cl
HETATM   29  C   UNL     1       6.646  32.346  61.216  1.00  0.00     0.025 A 
HETATM   30  C   UNL     1       7.300  32.417  62.443  1.00  0.00     0.002 A 
HETATM   31  C   UNL     1       8.667  32.179  62.507  1.00  0.00     0.001 A 
HETATM   32  C   UNL     1       9.371  31.866  61.342  1.00  0.00     0.019 A 
ENDBRANCH  23  26
ENDBRANCH  21  22
ENDBRANCH  18  21
ENDBRANCH   1  17
TORSDOF 8
ENDMDL
MODEL 3
REMARK VINA RESULT:      -9.7      2.717     10.710
REMARK  8 active torsions:
REMARK  status: ('A' for Active; 'I' for Inactive)
REMARK    1  A    between atoms: C_2  and  C_3 
REMARK    2  A    between atoms: C_4  and  O_5 
REMARK    3  A    between atoms: N_10  and  N_11 
REMARK       I    between atoms: N_11  and  C_12 
REMARK    4  A    between atoms: C_12  and  C_13 
REMARK    5  A    between atoms: C_13  and  N_14 
REMARK       I    between atoms: N_14  and  C_15 
REMARK    6  A    between atoms: C_15  and  C_16 
REMARK    7  A    between atoms: C_16  and  N_17 
REMARK       I    between atoms: N_17  and  C_18 
REMARK    8  A    between atoms: C_18  and  C_19 
ROOT
HETATM    1  C   UNL     1       5.831  28.313  56.125  1.00  0.00     0.227 C 
ENDROOT
BRANCH   1   2
HETATM    2  C   UNL     1       6.195  27.094  55.275  1.00  0.00     0.255 C 
HETATM    3  N   UNL     1       6.040  25.876  55.916  1.00  0.00    -0.246 N 
HETATM    4  H   UNL     1       5.566  25.839  56.815  1.00  0.00     0.192 HD
HETATM    5  O   UNL     1       6.697  27.227  54.158  1.00  0.00    -0.270 OA
BRANCH   3   6
HETATM    6  N   UNL     1       6.393  24.738  55.258  1.00  0.00    -0.176 NA
HETATM    7  C   UNL     1       7.367  24.004  55.712  1.00  0.00     0.064 C 
HETATM    8  C   UNL     1       8.200  24.370  56.917  1.00  0.00     0.073 C 
BRANCH   7   9
HETATM    9  C   UNL     1       7.683  22.736  54.980  1.00  0.00     0.023 A 
HETATM   10  C   UNL     1       7.887  22.747  53.592  1.00  0.00     0.077 A 
HETATM   11  C   UNL     1       8.215  21.573  52.913  1.00  0.00     0.037 A 
HETATM   12  C   UNL     1       8.320  20.370  53.610  1.00  0.00     0.003 A 
HETATM   13  C   UNL     1       8.089  20.340  54.984  1.00  0.00     0.001 A 
HETATM   14  C   UNL     1       7.770  21.517  55.668  1.00  0.00     0.016 A 
BRANCH  10  15
HETATM   15  O   UNL     1       7.789  23.875  52.823  1.00  0.00    -0.360 OA
HETATM   16  H   UNL     1       6.871  23.926  52.468  1.00  0.00     0.217 HD
ENDBRANCH  10  15
ENDBRANCH   7   9
ENDBRANCH   3   6
ENDBRANCH   1   2
BRANCH   1  17
HETATM   17  N   UNL     1       6.933  29.099  56.659  1.00  0.00    -0.351 N 
HETATM   18  C   UNL     1       7.694  28.657  57.719  1.00  0.00     0.235 C 
HETATM   19  O   UNL     1       7.625  27.519  58.174  1.00  0.00    -0.272 OA
HETATM   20  H   UNL     1       7.209  29.962  56.195  1.00  0.00     0.163 HD
BRANCH  18  21
HETATM   21  C   UNL     1       8.690  29.692  58.241  1.00  0.00     0.225 C 
BRANCH  21  22
HETATM   22  N   UNL     1       8.242  30.283  59.483  1.00  0.00    -0.348 N 
HETATM   23  C   UNL     1       8.455  31.606  59.772  1.00  0.00     0.253 C 
HETATM   24  O   UNL     1       9.152  32.305  59.035  1.00  0.00    -0.268 OA
HETATM   25  H   UNL     1       7.777  29.678  60.151  1.00  0.00     0.163 HD
BRANCH  23  26
HETATM   26  C   UNL     1       7.842  32.187  61.013  1.00  0.00     0.053 A 
HETATM   27  C   UNL     1       6.590  32.817  61.117  1.00  0.00     0.049 A 
HETATM   28 CL   UNL     1       5.507  33.074  59.792  1.00  0.00    -0.083 Cl
HETATM   29  C   UNL     1       6.140  33.291  62.360  1.00  0.00     0.025 A 
HETATM   30  C   UNL     1       6.918  33.147  63.506  1.00  0.00     0.002 A 
HETATM   31  C   UNL     1       8.163  32.538  63.418  1.00  0.00     0.001 A 
HETATM   32  C   UNL     1       8.621  32.072  62.184  1.00  0.00     0.019 A 
ENDBRANCH  23  26
ENDBRANCH  21  22
ENDBRANCH  18  21
ENDBRANCH   1  17
TORSDOF 8
ENDMDL
MODEL 4
REMARK VINA RESULT:      -9.5      1.647      1.823
REMARK  8 active torsions:
REMARK  status: ('A' for Active; 'I' for Inactive)
REMARK    1  A    between atoms: C_2  and  C_3 
REMARK    2  A    between atoms: C_4  and  O_5 
REMARK    3  A    between atoms: N_10  and  N_11 
REMARK       I    between atoms: N_11  and  C_12 
REMARK    4  A    between atoms: C_12  and  C_13 
REMARK    5  A    between atoms: C_13  and  N_14 
REMARK       I    between atoms: N_14  and  C_15 
REMARK    6  A    between atoms: C_15  and  C_16 
REMARK    7  A    between atoms: C_16  and  N_17 
REMARK       I    between atoms: N_17  and  C_18 
REMARK    8  A    between atoms: C_18  and  C_19 
ROOT
HETATM    1  C   UNL     1       8.609  29.241  57.563  1.00  0.00     0.227 C 
ENDROOT
BRANCH   1   2
HETATM    2  C   UNL     1       7.904  30.230  58.493  1.00  0.00     0.255 C 
HETATM    3  N   UNL     1       8.258  30.121  59.828  1.00  0.00    -0.246 N 
HETATM    4  H   UNL     1       9.043  29.531  60.092  1.00  0.00     0.192 HD
HETATM    5  O   UNL     1       7.012  30.968  58.074  1.00  0.00    -0.270 OA
BRANCH   3   6
HETATM    6  N   UNL     1       7.641  30.922  60.740  1.00  0.00    -0.176 NA
HETATM    7  C   UNL     1       8.346  31.746  61.459  1.00  0.00     0.064 C 
HETATM    8  C   UNL     1       9.851  31.834  61.398  1.00  0.00     0.073 C 
BRANCH   7   9
HETATM    9  C   UNL     1       7.614  32.640  62.411  1.00  0.00     0.023 A 
HETATM   10  C   UNL     1       6.473  33.344  61.994  1.00  0.00     0.077 A 
HETATM   11  C   UNL     1       5.770  34.151  62.889  1.00  0.00     0.037 A 
HETATM   12  C   UNL     1       6.212  34.284  64.204  1.00  0.00     0.003 A 
HETATM   13  C   UNL     1       7.360  33.615  64.623  1.00  0.00     0.001 A 
HETATM   14  C   UNL     1       8.061  32.798  63.731  1.00  0.00     0.016 A 
BRANCH  10  15
HETATM   15  O   UNL     1       5.976  33.289  60.720  1.00  0.00    -0.360 OA
HETATM   16  H   UNL     1       5.093  33.727  60.715  1.00  0.00     0.217 HD
ENDBRANCH  10  15
ENDBRANCH   7   9
ENDBRANCH   3   6
ENDBRANCH   1   2
BRANCH   1  17
HETATM   17  N   UNL     1       8.258  27.836  57.705  1.00  0.00    -0.351 N 
HETATM   18  C   UNL     1       7.108  27.315  57.154  1.00  0.00     0.235 C 
HETATM   19  O   UNL     1       6.394  27.931  56.368  1.00  0.00    -0.272 OA
HETATM   20  H   UNL     1       8.910  27.196  58.153  1.00  0.00     0.163 HD
BRANCH  18  21
HETATM   21  C   UNL     1       6.830  25.865  57.554  1.00  0.00     0.225 C 
BRANCH  21  22
HETATM   22  N   UNL     1       6.928  24.973  56.420  1.00  0.00    -0.348 N 
HETATM   23  C   UNL     1       7.976  24.101  56.275  1.00  0.00     0.253 C 
HETATM   24  O   UNL     1       8.937  24.141  57.045  1.00  0.00    -0.268 OA
HETATM   25  H   UNL     1       6.201  25.026  55.715  1.00  0.00     0.163 HD
BRANCH  23  26
HETATM   26  C   UNL     1       7.945  23.107  55.150  1.00  0.00     0.053 A 
HETATM   27  C   UNL     1       7.971  23.393  53.775  1.00  0.00     0.049 A 
HETATM   28 CL   UNL     1       8.018  24.987  53.103  1.00  0.00    -0.083 Cl
HETATM   29  C   UNL     1       7.960  22.348  52.837  1.00  0.00     0.025 A 
HETATM   30  C   UNL     1       7.924  21.017  53.247  1.00  0.00     0.002 A 
HETATM   31  C   UNL     1       7.884  20.719  54.603  1.00  0.00     0.001 A 
HETATM   32  C   UNL     1       7.885  21.753  55.541  1.00  0.00     0.019 A 
ENDBRANCH  23  26
ENDBRANCH  21  22
ENDBRANCH  18  21
ENDBRANCH   1  17
TORSDOF 8
ENDMDL
MODEL 5
REMARK VINA RESULT:      -9.5      2.759     10.643
REMARK  8 active torsions:
REMARK  status: ('A' for Active; 'I' for Inactive)
REMARK    1  A    between atoms: C_2  and  C_3 
REMARK    2  A    between atoms: C_4  and  O_5 
REMARK    3  A    between atoms: N_10  and  N_11 
REMARK       I    between atoms: N_11  and  C_12 
REMARK    4  A    between atoms: C_12  and  C_13 
REMARK    5  A    between atoms: C_13  and  N_14 
REMARK       I    between atoms: N_14  and  C_15 
REMARK    6  A    between atoms: C_15  and  C_16 
REMARK    7  A    between atoms: C_16  and  N_17 
REMARK       I    between atoms: N_17  and  C_18 
REMARK    8  A    between atoms: C_18  and  C_19 
ROOT
HETATM    1  C   UNL     1       5.369  27.974  57.081  1.00  0.00     0.227 C 
ENDROOT
BRANCH   1   2
HETATM    2  C   UNL     1       5.572  26.811  56.108  1.00  0.00     0.255 C 
HETATM    3  N   UNL     1       6.048  25.647  56.689  1.00  0.00    -0.246 N 
HETATM    4  H   UNL     1       6.087  25.572  57.703  1.00  0.00     0.192 HD
HETATM    5  O   UNL     1       5.429  26.968  54.895  1.00  0.00    -0.270 OA
BRANCH   3   6
HETATM    6  N   UNL     1       6.313  24.575  55.893  1.00  0.00    -0.176 NA
HETATM    7  C   UNL     1       7.426  23.918  56.042  1.00  0.00     0.064 C 
HETATM    8  C   UNL     1       8.505  24.310  57.022  1.00  0.00     0.073 C 
BRANCH   7   9
HETATM    9  C   UNL     1       7.647  22.718  55.175  1.00  0.00     0.023 A 
HETATM   10  C   UNL     1       7.603  22.831  53.777  1.00  0.00     0.077 A 
HETATM   11  C   UNL     1       7.842  21.720  52.967  1.00  0.00     0.037 A 
HETATM   12  C   UNL     1       8.105  20.479  53.544  1.00  0.00     0.003 A 
HETATM   13  C   UNL     1       8.122  20.347  54.931  1.00  0.00     0.001 A 
HETATM   14  C   UNL     1       7.892  21.460  55.745  1.00  0.00     0.016 A 
BRANCH  10  15
HETATM   15  O   UNL     1       7.336  24.003  53.122  1.00  0.00    -0.360 OA
HETATM   16  H   UNL     1       7.021  24.660  53.786  1.00  0.00     0.217 HD
ENDBRANCH  10  15
ENDBRANCH   7   9
ENDBRANCH   3   6
ENDBRANCH   1   2
BRANCH   1  17
HETATM   17  N   UNL     1       6.434  28.962  57.161  1.00  0.00    -0.351 N 
HETATM   18  C   UNL     1       7.603  28.717  57.847  1.00  0.00     0.235 C 
HETATM   19  O   UNL     1       7.913  27.612  58.284  1.00  0.00    -0.272 OA
HETATM   20  H   UNL     1       6.358  29.829  56.634  1.00  0.00     0.163 HD
BRANCH  18  21
HETATM   21  C   UNL     1       8.524  29.932  57.957  1.00  0.00     0.225 C 
BRANCH  21  22
HETATM   22  N   UNL     1       8.473  30.519  59.278  1.00  0.00    -0.348 N 
HETATM   23  C   UNL     1       7.703  31.620  59.550  1.00  0.00     0.253 C 
HETATM   24  O   UNL     1       7.128  32.223  58.643  1.00  0.00    -0.268 OA
HETATM   25  H   UNL     1       9.047  30.100  60.002  1.00  0.00     0.163 HD
BRANCH  23  26
HETATM   26  C   UNL     1       7.586  32.093  60.970  1.00  0.00     0.053 A 
HETATM   27  C   UNL     1       8.331  31.638  62.072  1.00  0.00     0.049 A 
HETATM   28 CL   UNL     1       9.532  30.395  62.000  1.00  0.00    -0.083 Cl
HETATM   29  C   UNL     1       8.124  32.198  63.343  1.00  0.00     0.025 A 
HETATM   30  C   UNL     1       7.185  33.208  63.537  1.00  0.00     0.002 A 
HETATM   31  C   UNL     1       6.431  33.660  62.460  1.00  0.00     0.001 A 
HETATM   32  C   UNL     1       6.625  33.101  61.195  1.00  0.00     0.019 A 
ENDBRANCH  23  26
ENDBRANCH  21  22
ENDBRANCH  18  21
ENDBRANCH   1  17
TORSDOF 8
ENDMDL
MODEL 6
REMARK VINA RESULT:      -9.2      3.348     10.480
REMARK  8 active torsions:
REMARK  status: ('A' for Active; 'I' for Inactive)
REMARK    1  A    between atoms: C_2  and  C_3 
REMARK    2  A    between atoms: C_4  and  O_5 
REMARK    3  A    between atoms: N_10  and  N_11 
REMARK       I    between atoms: N_11  and  C_12 
REMARK    4  A    between atoms: C_12  and  C_13 
REMARK    5  A    between atoms: C_13  and  N_14 
REMARK       I    between atoms: N_14  and  C_15 
REMARK    6  A    between atoms: C_15  and  C_16 
REMARK    7  A    between atoms: C_16  and  N_17 
REMARK       I    between atoms: N_17  and  C_18 
REMARK    8  A    between atoms: C_18  and  C_19 
ROOT
HETATM    1  C   UNL     1       8.342  31.580  59.473  1.00  0.00     0.227 C 
ENDROOT
BRANCH   1   2
HETATM    2  C   UNL     1       8.656  30.321  58.664  1.00  0.00     0.255 C 
HETATM    3  N   UNL     1       7.715  29.310  58.778  1.00  0.00    -0.246 N 
HETATM    4  H   UNL     1       6.830  29.499  59.241  1.00  0.00     0.192 HD
HETATM    5  O   UNL     1       9.726  30.202  58.066  1.00  0.00    -0.270 OA
BRANCH   3   6
HETATM    6  N   UNL     1       7.938  28.129  58.138  1.00  0.00    -0.176 NA
HETATM    7  C   UNL     1       7.030  27.644  57.343  1.00  0.00     0.064 C 
HETATM    8  C   UNL     1       5.681  28.284  57.123  1.00  0.00     0.073 C 
BRANCH   7   9
HETATM    9  C   UNL     1       7.344  26.368  56.625  1.00  0.00     0.023 A 
HETATM   10  C   UNL     1       7.880  25.273  57.319  1.00  0.00     0.077 A 
HETATM   11  C   UNL     1       8.142  24.072  56.658  1.00  0.00     0.037 A 
HETATM   12  C   UNL     1       7.893  23.959  55.292  1.00  0.00     0.003 A 
HETATM   13  C   UNL     1       7.389  25.048  54.584  1.00  0.00     0.001 A 
HETATM   14  C   UNL     1       7.117  26.250  55.246  1.00  0.00     0.016 A 
BRANCH  10  15
HETATM   15  O   UNL     1       8.173  25.297  58.656  1.00  0.00    -0.360 OA
HETATM   16  H   UNL     1       7.959  24.411  59.033  1.00  0.00     0.217 HD
ENDBRANCH  10  15
ENDBRANCH   7   9
ENDBRANCH   3   6
ENDBRANCH   1   2
BRANCH   1  17
HETATM   17  N   UNL     1       7.037  31.644  60.114  1.00  0.00    -0.351 N 
HETATM   18  C   UNL     1       6.004  32.388  59.587  1.00  0.00     0.235 C 
HETATM   19  O   UNL     1       6.038  32.899  58.472  1.00  0.00    -0.272 OA
HETATM   20  H   UNL     1       6.847  31.066  60.930  1.00  0.00     0.163 HD
BRANCH  18  21
HETATM   21  C   UNL     1       4.772  32.464  60.490  1.00  0.00     0.225 C 
BRANCH  21  22
HETATM   22  N   UNL     1       5.082  33.080  61.761  1.00  0.00    -0.348 N 
HETATM   23  C   UNL     1       4.947  32.400  62.944  1.00  0.00     0.253 C 
HETATM   24  O   UNL     1       4.434  31.281  62.970  1.00  0.00    -0.268 OA
HETATM   25  H   UNL     1       5.385  34.047  61.755  1.00  0.00     0.163 HD
BRANCH  23  26
HETATM   26  C   UNL     1       5.419  33.050  64.213  1.00  0.00     0.053 A 
HETATM   27  C   UNL     1       6.751  33.254  64.608  1.00  0.00     0.049 A 
HETATM   28 CL   UNL     1       8.134  32.756  63.696  1.00  0.00    -0.083 Cl
HETATM   29  C   UNL     1       7.036  33.903  65.822  1.00  0.00     0.025 A 
HETATM   30  C   UNL     1       6.011  34.354  66.650  1.00  0.00     0.002 A 
HETATM   31  C   UNL     1       4.688  34.148  66.279  1.00  0.00     0.001 A 
HETATM   32  C   UNL     1       4.398  33.496  65.080  1.00  0.00     0.019 A 
ENDBRANCH  23  26
ENDBRANCH  21  22
ENDBRANCH  18  21
ENDBRANCH   1  17
TORSDOF 8
ENDMDL
MODEL 7
REMARK VINA RESULT:      -9.1      1.852      2.166
REMARK  8 active torsions:
REMARK  status: ('A' for Active; 'I' for Inactive)
REMARK    1  A    between atoms: C_2  and  C_3 
REMARK    2  A    between atoms: C_4  and  O_5 
REMARK    3  A    between atoms: N_10  and  N_11 
REMARK       I    between atoms: N_11  and  C_12 
REMARK    4  A    between atoms: C_12  and  C_13 
REMARK    5  A    between atoms: C_13  and  N_14 
REMARK       I    between atoms: N_14  and  C_15 
REMARK    6  A    between atoms: C_15  and  C_16 
REMARK    7  A    between atoms: C_16  and  N_17 
REMARK       I    between atoms: N_17  and  C_18 
REMARK    8  A    between atoms: C_18  and  C_19 
ROOT
HETATM    1  C   UNL     1       7.889  30.351  59.125  1.00  0.00     0.227 C 
ENDROOT
BRANCH   1   2
HETATM    2  C   UNL     1       7.196  31.603  59.667  1.00  0.00     0.255 C 
HETATM    3  N   UNL     1       6.825  31.527  60.999  1.00  0.00    -0.246 N 
HETATM    4  H   UNL     1       7.153  30.750  61.568  1.00  0.00     0.192 HD
HETATM    5  O   UNL     1       6.900  32.537  58.920  1.00  0.00    -0.270 OA
BRANCH   3   6
HETATM    6  N   UNL     1       6.151  32.572  61.554  1.00  0.00    -0.176 NA
HETATM    7  C   UNL     1       6.596  33.121  62.647  1.00  0.00     0.064 C 
HETATM    8  C   UNL     1       7.807  32.626  63.400  1.00  0.00     0.073 C 
BRANCH   7   9
HETATM    9  C   UNL     1       5.847  34.298  63.189  1.00  0.00     0.023 A 
HETATM   10  C   UNL     1       4.925  34.136  64.234  1.00  0.00     0.077 A 
HETATM   11  C   UNL     1       4.250  35.237  64.764  1.00  0.00     0.037 A 
HETATM   12  C   UNL     1       4.472  36.509  64.240  1.00  0.00     0.003 A 
HETATM   13  C   UNL     1       5.363  36.680  63.182  1.00  0.00     0.001 A 
HETATM   14  C   UNL     1       6.047  35.580  62.656  1.00  0.00     0.016 A 
BRANCH  10  15
HETATM   15  O   UNL     1       4.629  32.925  64.799  1.00  0.00    -0.360 OA
HETATM   16  H   UNL     1       3.943  32.486  64.244  1.00  0.00     0.217 HD
ENDBRANCH  10  15
ENDBRANCH   7   9
ENDBRANCH   3   6
ENDBRANCH   1   2
BRANCH   1  17
HETATM   17  N   UNL     1       7.064  29.407  58.387  1.00  0.00    -0.351 N 
HETATM   18  C   UNL     1       7.615  28.431  57.587  1.00  0.00     0.235 C 
HETATM   19  O   UNL     1       8.813  28.167  57.569  1.00  0.00    -0.272 OA
HETATM   20  H   UNL     1       6.055  29.408  58.520  1.00  0.00     0.163 HD
BRANCH  18  21
HETATM   21  C   UNL     1       6.588  27.649  56.766  1.00  0.00     0.225 C 
BRANCH  21  22
HETATM   22  N   UNL     1       7.208  26.569  56.029  1.00  0.00    -0.348 N 
HETATM   23  C   UNL     1       6.754  25.279  56.120  1.00  0.00     0.253 C 
HETATM   24  O   UNL     1       5.881  24.977  56.935  1.00  0.00    -0.268 OA
HETATM   25  H   UNL     1       8.011  26.794  55.452  1.00  0.00     0.163 HD
BRANCH  23  26
HETATM   26  C   UNL     1       7.351  24.234  55.223  1.00  0.00     0.053 A 
HETATM   27  C   UNL     1       6.923  23.892  53.930  1.00  0.00     0.049 A 
HETATM   28 CL   UNL     1       5.574  24.610  53.119  1.00  0.00    -0.083 Cl
HETATM   29  C   UNL     1       7.603  22.902  53.200  1.00  0.00     0.025 A 
HETATM   30  C   UNL     1       8.706  22.246  53.739  1.00  0.00     0.002 A 
HETATM   31  C   UNL     1       9.134  22.564  55.022  1.00  0.00     0.001 A 
HETATM   32  C   UNL     1       8.458  23.539  55.757  1.00  0.00     0.019 A 
ENDBRANCH  23  26
ENDBRANCH  21  22
ENDBRANCH  18  21
ENDBRANCH   1  17
TORSDOF 8
ENDMDL
MODEL 8
REMARK VINA RESULT:      -9.0      3.175     10.040
REMARK  8 active torsions:
REMARK  status: ('A' for Active; 'I' for Inactive)
REMARK    1  A    between atoms: C_2  and  C_3 
REMARK    2  A    between atoms: C_4  and  O_5 
REMARK    3  A    between atoms: N_10  and  N_11 
REMARK       I    between atoms: N_11  and  C_12 
REMARK    4  A    between atoms: C_12  and  C_13 
REMARK    5  A    between atoms: C_13  and  N_14 
REMARK       I    between atoms: N_14  and  C_15 
REMARK    6  A    between atoms: C_15  and  C_16 
REMARK    7  A    between atoms: C_16  and  N_17 
REMARK       I    between atoms: N_17  and  C_18 
REMARK    8  A    between atoms: C_18  and  C_19 
ROOT
HETATM    1  C   UNL     1       4.147  28.825  56.054  1.00  0.00     0.227 C 
ENDROOT
BRANCH   1   2
HETATM    2  C   UNL     1       5.031  27.577  56.085  1.00  0.00     0.255 C 
HETATM    3  N   UNL     1       4.910  26.756  54.975  1.00  0.00    -0.246 N 
HETATM    4  H   UNL     1       4.389  27.082  54.165  1.00  0.00     0.192 HD
HETATM    5  O   UNL     1       5.694  27.294  57.083  1.00  0.00    -0.270 OA
BRANCH   3   6
HETATM    6  N   UNL     1       5.616  25.592  54.939  1.00  0.00    -0.176 NA
HETATM    7  C   UNL     1       6.608  25.464  54.107  1.00  0.00     0.064 C 
HETATM    8  C   UNL     1       7.004  26.522  53.106  1.00  0.00     0.073 C 
BRANCH   7   9
HETATM    9  C   UNL     1       7.383  24.184  54.141  1.00  0.00     0.023 A 
HETATM   10  C   UNL     1       8.213  23.881  55.232  1.00  0.00     0.077 A 
HETATM   11  C   UNL     1       8.910  22.673  55.281  1.00  0.00     0.037 A 
HETATM   12  C   UNL     1       8.805  21.764  54.230  1.00  0.00     0.003 A 
HETATM   13  C   UNL     1       8.009  22.065  53.127  1.00  0.00     0.001 A 
HETATM   14  C   UNL     1       7.302  23.271  53.079  1.00  0.00     0.016 A 
BRANCH  10  15
HETATM   15  O   UNL     1       8.392  24.719  56.299  1.00  0.00    -0.360 OA
HETATM   16  H   UNL     1       8.511  25.635  55.955  1.00  0.00     0.217 HD
ENDBRANCH  10  15
ENDBRANCH   7   9
ENDBRANCH   3   6
ENDBRANCH   1   2
BRANCH   1  17
HETATM   17  N   UNL     1       4.085  29.620  57.271  1.00  0.00    -0.351 N 
HETATM   18  C   UNL     1       3.362  30.791  57.339  1.00  0.00     0.235 C 
HETATM   19  O   UNL     1       2.586  31.159  56.461  1.00  0.00    -0.272 OA
HETATM   20  H   UNL     1       4.518  29.272  58.124  1.00  0.00     0.163 HD
BRANCH  18  21
HETATM   21  C   UNL     1       3.557  31.566  58.642  1.00  0.00     0.225 C 
BRANCH  21  22
HETATM   22  N   UNL     1       4.824  31.251  59.264  1.00  0.00    -0.348 N 
HETATM   23  C   UNL     1       5.916  32.069  59.133  1.00  0.00     0.253 C 
HETATM   24  O   UNL     1       5.886  33.038  58.373  1.00  0.00    -0.268 OA
HETATM   25  H   UNL     1       4.889  30.385  59.789  1.00  0.00     0.163 HD
BRANCH  23  26
HETATM   26  C   UNL     1       7.157  31.756  59.917  1.00  0.00     0.053 A 
HETATM   27  C   UNL     1       8.074  30.722  59.663  1.00  0.00     0.049 A 
HETATM   28 CL   UNL     1       7.924  29.569  58.382  1.00  0.00    -0.083 Cl
HETATM   29  C   UNL     1       9.209  30.570  60.477  1.00  0.00     0.025 A 
HETATM   30  C   UNL     1       9.447  31.434  61.543  1.00  0.00     0.002 A 
HETATM   31  C   UNL     1       8.543  32.453  61.816  1.00  0.00     0.001 A 
HETATM   32  C   UNL     1       7.408  32.605  61.017  1.00  0.00     0.019 A 
ENDBRANCH  23  26
ENDBRANCH  21  22
ENDBRANCH  18  21
ENDBRANCH   1  17
TORSDOF 8
ENDMDL
MODEL 9
REMARK VINA RESULT:      -9.0      2.801     11.029
REMARK  8 active torsions:
REMARK  status: ('A' for Active; 'I' for Inactive)
REMARK    1  A    between atoms: C_2  and  C_3 
REMARK    2  A    between atoms: C_4  and  O_5 
REMARK    3  A    between atoms: N_10  and  N_11 
REMARK       I    between atoms: N_11  and  C_12 
REMARK    4  A    between atoms: C_12  and  C_13 
REMARK    5  A    between atoms: C_13  and  N_14 
REMARK       I    between atoms: N_14  and  C_15 
REMARK    6  A    between atoms: C_15  and  C_16 
REMARK    7  A    between atoms: C_16  and  N_17 
REMARK       I    between atoms: N_17  and  C_18 
REMARK    8  A    between atoms: C_18  and  C_19 
ROOT
HETATM    1  C   UNL     1       7.337  28.765  56.162  1.00  0.00     0.227 C 
ENDROOT
BRANCH   1   2
HETATM    2  C   UNL     1       7.629  27.263  56.184  1.00  0.00     0.255 C 
HETATM    3  N   UNL     1       6.928  26.525  55.244  1.00  0.00    -0.246 N 
HETATM    4  H   UNL     1       6.403  27.006  54.518  1.00  0.00     0.192 HD
HETATM    5  O   UNL     1       8.342  26.769  57.058  1.00  0.00    -0.270 OA
BRANCH   3   6
HETATM    6  N   UNL     1       7.080  25.172  55.226  1.00  0.00    -0.176 NA
HETATM    7  C   UNL     1       7.586  24.592  54.176  1.00  0.00     0.064 C 
HETATM    8  C   UNL     1       7.969  25.329  52.916  1.00  0.00     0.073 C 
BRANCH   7   9
HETATM    9  C   UNL     1       7.778  23.108  54.225  1.00  0.00     0.023 A 
HETATM   10  C   UNL     1       7.965  22.454  55.453  1.00  0.00     0.077 A 
HETATM   11  C   UNL     1       8.110  21.067  55.503  1.00  0.00     0.037 A 
HETATM   12  C   UNL     1       8.095  20.320  54.327  1.00  0.00     0.003 A 
HETATM   13  C   UNL     1       7.941  20.961  53.099  1.00  0.00     0.001 A 
HETATM   14  C   UNL     1       7.786  22.349  53.046  1.00  0.00     0.016 A 
BRANCH  10  15
HETATM   15  O   UNL     1       8.011  23.105  56.656  1.00  0.00    -0.360 OA
HETATM   16  H   UNL     1       7.960  22.431  57.373  1.00  0.00     0.217 HD
ENDBRANCH  10  15
ENDBRANCH   7   9
ENDBRANCH   3   6
ENDBRANCH   1   2
BRANCH   1  17
HETATM   17  N   UNL     1       8.019  29.585  57.152  1.00  0.00    -0.351 N 
HETATM   18  C   UNL     1       7.329  30.410  58.012  1.00  0.00     0.235 C 
HETATM   19  O   UNL     1       6.107  30.390  58.135  1.00  0.00    -0.272 OA
HETATM   20  H   UNL     1       9.025  29.495  57.274  1.00  0.00     0.163 HD
BRANCH  18  21
HETATM   21  C   UNL     1       8.226  31.312  58.860  1.00  0.00     0.225 C 
BRANCH  21  22
HETATM   22  N   UNL     1       7.513  31.856  59.995  1.00  0.00    -0.348 N 
HETATM   23  C   UNL     1       7.830  31.506  61.282  1.00  0.00     0.253 C 
HETATM   24  O   UNL     1       8.650  30.615  61.506  1.00  0.00    -0.268 OA
HETATM   25  H   UNL     1       6.749  32.496  59.808  1.00  0.00     0.163 HD
BRANCH  23  26
HETATM   26  C   UNL     1       7.146  32.212  62.416  1.00  0.00     0.053 A 
HETATM   27  C   UNL     1       5.775  32.499  62.523  1.00  0.00     0.049 A 
HETATM   28 CL   UNL     1       4.592  32.107  61.323  1.00  0.00    -0.083 Cl
HETATM   29  C   UNL     1       5.277  33.149  63.665  1.00  0.00     0.025 A 
HETATM   30  C   UNL     1       6.125  33.518  64.706  1.00  0.00     0.002 A 
HETATM   31  C   UNL     1       7.485  33.253  64.609  1.00  0.00     0.001 A 
HETATM   32  C   UNL     1       7.989  32.616  63.473  1.00  0.00     0.019 A 
ENDBRANCH  23  26
ENDBRANCH  21  22
ENDBRANCH  18  21
ENDBRANCH   1  17
TORSDOF 8
ENDMDL
MODEL 10
REMARK VINA RESULT:      -8.8      6.113      9.851
REMARK  8 active torsions:
REMARK  status: ('A' for Active; 'I' for Inactive)
REMARK    1  A    between atoms: C_2  and  C_3 
REMARK    2  A    between atoms: C_4  and  O_5 
REMARK    3  A    between atoms: N_10  and  N_11 
REMARK       I    between atoms: N_11  and  C_12 
REMARK    4  A    between atoms: C_12  and  C_13 
REMARK    5  A    between atoms: C_13  and  N_14 
REMARK       I    between atoms: N_14  and  C_15 
REMARK    6  A    between atoms: C_15  and  C_16 
REMARK    7  A    between atoms: C_16  and  N_17 
REMARK       I    between atoms: N_17  and  C_18 
REMARK    8  A    between atoms: C_18  and  C_19 
ROOT
HETATM    1  C   UNL     1       5.052  27.536  56.602  1.00  0.00     0.227 C 
ENDROOT
BRANCH   1   2
HETATM    2  C   UNL     1       5.435  26.056  56.544  1.00  0.00     0.255 C 
HETATM    3  N   UNL     1       6.446  25.756  55.645  1.00  0.00    -0.246 N 
HETATM    4  H   UNL     1       6.968  26.511  55.207  1.00  0.00     0.192 HD
HETATM    5  O   UNL     1       4.795  25.210  57.170  1.00  0.00    -0.270 OA
BRANCH   3   6
HETATM    6  N   UNL     1       6.816  24.456  55.483  1.00  0.00    -0.176 NA
HETATM    7  C   UNL     1       7.472  24.099  54.417  1.00  0.00     0.064 C 
HETATM    8  C   UNL     1       7.806  25.039  53.285  1.00  0.00     0.073 C 
BRANCH   7   9
HETATM    9  C   UNL     1       7.900  22.668  54.310  1.00  0.00     0.023 A 
HETATM   10  C   UNL     1       8.335  21.967  55.445  1.00  0.00     0.077 A 
HETATM   11  C   UNL     1       8.701  20.624  55.353  1.00  0.00     0.037 A 
HETATM   12  C   UNL     1       8.659  19.971  54.122  1.00  0.00     0.003 A 
HETATM   13  C   UNL     1       8.258  20.664  52.982  1.00  0.00     0.001 A 
HETATM   14  C   UNL     1       7.882  22.008  53.073  1.00  0.00     0.016 A 
BRANCH  10  15
HETATM   15  O   UNL     1       8.425  22.528  56.690  1.00  0.00    -0.360 OA
HETATM   16  H   UNL     1       9.077  23.267  56.648  1.00  0.00     0.217 HD
ENDBRANCH  10  15
ENDBRANCH   7   9
ENDBRANCH   3   6
ENDBRANCH   1   2
BRANCH   1  17
HETATM   17  N   UNL     1       4.129  28.019  55.587  1.00  0.00    -0.351 N 
HETATM   18  C   UNL     1       4.563  28.427  54.344  1.00  0.00     0.235 C 
HETATM   19  O   UNL     1       5.708  28.254  53.937  1.00  0.00    -0.272 OA
HETATM   20  H   UNL     1       3.126  27.985  55.759  1.00  0.00     0.163 HD
BRANCH  18  21
HETATM   21  C   UNL     1       3.469  29.057  53.481  1.00  0.00     0.225 C 
BRANCH  21  22
HETATM   22  N   UNL     1       3.308  28.352  52.228  1.00  0.00    -0.348 N 
HETATM   23  C   UNL     1       3.555  28.956  51.023  1.00  0.00     0.253 C 
HETATM   24  O   UNL     1       3.799  30.162  50.964  1.00  0.00    -0.268 OA
HETATM   25  H   UNL     1       2.984  27.392  52.267  1.00  0.00     0.163 HD
BRANCH  23  26
HETATM   26  C   UNL     1       3.504  28.128  49.772  1.00  0.00     0.053 A 
HETATM   27  C   UNL     1       2.576  28.246  48.723  1.00  0.00     0.049 A 
HETATM   28 CL   UNL     1       1.268  29.376  48.691  1.00  0.00    -0.083 Cl
HETATM   29  C   UNL     1       2.673  27.409  47.598  1.00  0.00     0.025 A 
HETATM   30  C   UNL     1       3.683  26.456  47.500  1.00  0.00     0.002 A 
HETATM   31  C   UNL     1       4.601  26.318  48.534  1.00  0.00     0.001 A 
HETATM   32  C   UNL     1       4.505  27.140  49.659  1.00  0.00     0.019 A 
ENDBRANCH  23  26
ENDBRANCH  21  22
ENDBRANCH  18  21
ENDBRANCH   1  17
TORSDOF 8
ENDMDL
