MODEL 1
REMARK VINA RESULT:     -10.6      0.000      0.000
REMARK  6 active torsions:
REMARK  status: ('A' for Active; 'I' for Inactive)
REMARK    1  A    between atoms: C_2  and  N_3 
REMARK       I    between atoms: N_3  and  C_4 
REMARK    2  A    between atoms: C_4  and  C_5 
REMARK    3  A    between atoms: C_13  and  N_14 
REMARK       I    between atoms: N_14  and  C_15 
REMARK    4  A    between atoms: C_15  and  C_16 
REMARK    5  A    between atoms: C_24  and  C_25 
REMARK       I    between atoms: C_25  and  N_26 
REMARK    6  A    between atoms: N_26  and  C_27 
ROOT
HETATM    1  C   UNL     1       6.893  25.778  54.720  1.00  0.00     0.046 A 
HETATM    2  C   UNL     1       6.659  24.770  53.781  1.00  0.00     0.037 A 
HETATM    3  C   UNL     1       6.283  25.118  52.476  1.00  0.00     0.059 A 
HETATM    4  C   UNL     1       6.144  26.453  52.098  1.00  0.00     0.037 A 
HETATM    5  C   UNL     1       6.394  27.450  53.046  1.00  0.00     0.046 A 
HETATM    6  C   UNL     1       6.772  27.127  54.362  1.00  0.00     0.036 A 
ENDROOT
BRANCH   6   7
HETATM    7  C   UNL     1       7.037  28.271  55.297  1.00  0.00     0.256 C 
HETATM    8  N   UNL     1       8.146  28.190  56.118  1.00  0.00    -0.317 N 
HETATM    9  H   UNL     1       8.738  27.364  56.095  1.00  0.00     0.169 HD
HETATM   10  O   UNL     1       6.263  29.225  55.280  1.00  0.00    -0.267 OA
BRANCH   8  11
HETATM   11  C   UNL     1       8.601  29.138  57.016  1.00  0.00     0.119 A 
HETATM   12  C   UNL     1       9.759  29.974  56.555  1.00  0.00     0.277 A 
HETATM   13  O   UNL     1      10.252  29.797  55.443  1.00  0.00    -0.266 OA
HETATM   14  N   UNL     1      10.223  30.924  57.421  1.00  0.00    -0.274 N 
HETATM   15  C   UNL     1       9.710  31.172  58.660  1.00  0.00     0.327 A 
HETATM   16  H   UNL     1      10.998  31.492  57.119  1.00  0.00     0.173 HD
HETATM   17  O   UNL     1      10.159  32.045  59.393  1.00  0.00    -0.247 OA
HETATM   18  N   UNL     1       8.657  30.382  59.031  1.00  0.00    -0.316 N 
HETATM   19  C   UNL     1       8.121  29.400  58.240  1.00  0.00     0.128 A 
HETATM   20  H   UNL     1       8.271  30.561  59.951  1.00  0.00     0.170 HD
ENDBRANCH   8  11
ENDBRANCH   6   7
BRANCH   2  21
HETATM   21  N   UNL     1       6.784  23.390  54.055  1.00  0.00    -0.327 N 
HETATM   22  C   UNL     1       7.825  22.544  53.707  1.00  0.00     0.226 C 
HETATM   23  O   UNL     1       8.825  22.874  53.078  1.00  0.00    -0.273 OA
HETATM   24  H   UNL     1       6.001  22.970  54.545  1.00  0.00     0.169 HD
BRANCH  22  25
HETATM   25  C   UNL     1       7.586  21.094  54.163  1.00  0.00     0.078 C 
HETATM   26  C   UNL     1       8.802  20.192  53.894  1.00  0.00     0.014 C 
HETATM   27  C   UNL     1       9.943  20.390  54.892  1.00  0.00     0.001 C 
HETATM   28  C   UNL     1       9.464  20.291  56.334  1.00  0.00     0.000 C 
HETATM   29  C   UNL     1       8.306  21.245  56.604  1.00  0.00     0.001 C 
HETATM   30  C   UNL     1       7.151  21.007  55.634  1.00  0.00     0.014 C 
ENDBRANCH  22  25
ENDBRANCH   2  21
BRANCH   4  31
HETATM   31  N   UNL     1       5.781  26.874  50.801  1.00  0.00    -0.327 N 
HETATM   32  C   UNL     1       4.687  27.646  50.435  1.00  0.00     0.226 C 
HETATM   33  O   UNL     1       3.881  28.149  51.212  1.00  0.00    -0.273 OA
HETATM   34  H   UNL     1       6.411  26.601  50.055  1.00  0.00     0.169 HD
BRANCH  32  35
HETATM   35  C   UNL     1       4.583  27.833  48.914  1.00  0.00     0.078 C 
HETATM   36  C   UNL     1       4.685  26.494  48.167  1.00  0.00     0.014 C 
HETATM   37  C   UNL     1       3.408  25.664  48.278  1.00  0.00     0.001 C 
HETATM   38  C   UNL     1       2.191  26.447  47.800  1.00  0.00     0.000 C 
HETATM   39  C   UNL     1       2.043  27.764  48.554  1.00  0.00     0.001 C 
HETATM   40  C   UNL     1       3.319  28.603  48.501  1.00  0.00     0.014 C 
ENDBRANCH  32  35
ENDBRANCH   4  31
TORSDOF 6
ENDMDL
MODEL 2
REMARK VINA RESULT:     -10.6      1.600      7.113
REMARK  6 active torsions:
REMARK  status: ('A' for Active; 'I' for Inactive)
REMARK    1  A    between atoms: C_2  and  N_3 
REMARK       I    between atoms: N_3  and  C_4 
REMARK    2  A    between atoms: C_4  and  C_5 
REMARK    3  A    between atoms: C_13  and  N_14 
REMARK       I    between atoms: N_14  and  C_15 
REMARK    4  A    between atoms: C_15  and  C_16 
REMARK    5  A    between atoms: C_24  and  C_25 
REMARK       I    between atoms: C_25  and  N_26 
REMARK    6  A    between atoms: N_26  and  C_27 
ROOT
HETATM    1  C   UNL     1       5.776  27.694  52.826  1.00  0.00     0.046 A 
HETATM    2  C   UNL     1       6.133  26.853  51.767  1.00  0.00     0.037 A 
HETATM    3  C   UNL     1       6.942  25.736  52.018  1.00  0.00     0.059 A 
HETATM    4  C   UNL     1       7.395  25.448  53.305  1.00  0.00     0.037 A 
HETATM    5  C   UNL     1       7.019  26.293  54.354  1.00  0.00     0.046 A 
HETATM    6  C   UNL     1       6.208  27.419  54.129  1.00  0.00     0.036 A 
ENDROOT
BRANCH   6   7
HETATM    7  C   UNL     1       5.845  28.250  55.326  1.00  0.00     0.256 C 
HETATM    8  N   UNL     1       6.818  29.072  55.862  1.00  0.00    -0.317 N 
HETATM    9  H   UNL     1       7.753  29.082  55.462  1.00  0.00     0.169 HD
HETATM   10  O   UNL     1       4.699  28.167  55.763  1.00  0.00    -0.267 OA
BRANCH   8  11
HETATM   11  C   UNL     1       6.692  29.947  56.926  1.00  0.00     0.119 A 
HETATM   12  C   UNL     1       7.514  29.626  58.139  1.00  0.00     0.277 A 
HETATM   13  O   UNL     1       8.242  28.635  58.155  1.00  0.00    -0.266 OA
HETATM   14  N   UNL     1       7.413  30.479  59.201  1.00  0.00    -0.274 N 
HETATM   15  C   UNL     1       6.632  31.597  59.236  1.00  0.00     0.327 A 
HETATM   16  H   UNL     1       7.963  30.274  60.020  1.00  0.00     0.173 HD
HETATM   17  O   UNL     1       6.587  32.335  60.213  1.00  0.00    -0.247 OA
HETATM   18  N   UNL     1       5.904  31.842  58.106  1.00  0.00    -0.316 N 
HETATM   19  C   UNL     1       5.929  31.047  56.990  1.00  0.00     0.128 A 
HETATM   20  H   UNL     1       5.321  32.672  58.125  1.00  0.00     0.170 HD
ENDBRANCH   8  11
ENDBRANCH   6   7
BRANCH   2  21
HETATM   21  N   UNL     1       5.719  27.046  50.431  1.00  0.00    -0.327 N 
HETATM   22  C   UNL     1       4.622  27.760  49.974  1.00  0.00     0.226 C 
HETATM   23  O   UNL     1       3.811  28.344  50.685  1.00  0.00    -0.273 OA
HETATM   24  H   UNL     1       6.284  26.582  49.728  1.00  0.00     0.169 HD
BRANCH  22  25
HETATM   25  C   UNL     1       4.487  27.720  48.442  1.00  0.00     0.078 C 
HETATM   26  C   UNL     1       4.579  26.288  47.888  1.00  0.00     0.014 C 
HETATM   27  C   UNL     1       3.302  25.471  48.090  1.00  0.00     0.001 C 
HETATM   28  C   UNL     1       2.068  26.205  47.582  1.00  0.00     0.000 C 
HETATM   29  C   UNL     1       1.953  27.595  48.197  1.00  0.00     0.001 C 
HETATM   30  C   UNL     1       3.212  28.421  47.948  1.00  0.00     0.014 C 
ENDBRANCH  22  25
ENDBRANCH   2  21
BRANCH   4  31
HETATM   31  N   UNL     1       8.201  24.336  53.629  1.00  0.00    -0.327 N 
HETATM   32  C   UNL     1       7.910  22.994  53.438  1.00  0.00     0.226 C 
HETATM   33  O   UNL     1       6.908  22.556  52.882  1.00  0.00    -0.273 OA
HETATM   34  H   UNL     1       9.110  24.551  54.024  1.00  0.00     0.169 HD
BRANCH  32  35
HETATM   35  C   UNL     1       9.008  22.071  53.990  1.00  0.00     0.078 C 
HETATM   36  C   UNL     1       9.538  22.565  55.345  1.00  0.00     0.014 C 
HETATM   37  C   UNL     1       8.562  22.297  56.488  1.00  0.00     0.001 C 
HETATM   38  C   UNL     1       8.191  20.821  56.570  1.00  0.00     0.000 C 
HETATM   39  C   UNL     1       7.623  20.314  55.249  1.00  0.00     0.001 C 
HETATM   40  C   UNL     1       8.556  20.604  54.074  1.00  0.00     0.014 C 
ENDBRANCH  32  35
ENDBRANCH   4  31
TORSDOF 6
ENDMDL
MODEL 3
REMARK VINA RESULT:     -10.3      1.354      7.089
REMARK  6 active torsions:
REMARK  status: ('A' for Active; 'I' for Inactive)
REMARK    1  A    between atoms: C_2  and  N_3 
REMARK       I    between atoms: N_3  and  C_4 
REMARK    2  A    between atoms: C_4  and  C_5 
REMARK    3  A    between atoms: C_13  and  N_14 
REMARK       I    between atoms: N_14  and  C_15 
REMARK    4  A    between atoms: C_15  and  C_16 
REMARK    5  A    between atoms: C_24  and  C_25 
REMARK       I    between atoms: C_25  and  N_26 
REMARK    6  A    between atoms: N_26  and  C_27 
ROOT
HETATM    1  C   UNL     1       5.702  28.129  53.501  1.00  0.00     0.046 A 
HETATM    2  C   UNL     1       5.544  27.087  52.583  1.00  0.00     0.037 A 
HETATM    3  C   UNL     1       6.304  25.917  52.731  1.00  0.00     0.059 A 
HETATM    4  C   UNL     1       7.210  25.775  53.781  1.00  0.00     0.037 A 
HETATM    5  C   UNL     1       7.347  26.822  54.698  1.00  0.00     0.046 A 
HETATM    6  C   UNL     1       6.597  28.005  54.571  1.00  0.00     0.036 A 
ENDROOT
BRANCH   6   7
HETATM    7  C   UNL     1       6.803  29.060  55.620  1.00  0.00     0.256 C 
HETATM    8  N   UNL     1       7.907  28.947  56.443  1.00  0.00    -0.317 N 
HETATM    9  H   UNL     1       8.535  28.154  56.345  1.00  0.00     0.169 HD
HETATM   10  O   UNL     1       5.986  29.977  55.687  1.00  0.00    -0.267 OA
BRANCH   8  11
HETATM   11  C   UNL     1       8.311  29.820  57.437  1.00  0.00     0.119 A 
HETATM   12  C   UNL     1       9.643  30.478  57.227  1.00  0.00     0.277 A 
HETATM   13  O   UNL     1      10.311  30.230  56.225  1.00  0.00    -0.266 OA
HETATM   14  N   UNL     1      10.063  31.351  58.191  1.00  0.00    -0.274 N 
HETATM   15  C   UNL     1       9.361  31.671  59.316  1.00  0.00     0.327 A 
HETATM   16  H   UNL     1      10.955  31.800  58.059  1.00  0.00     0.173 HD
HETATM   17  O   UNL     1       9.781  32.471  60.145  1.00  0.00    -0.247 OA
HETATM   18  N   UNL     1       8.156  31.044  59.458  1.00  0.00    -0.316 N 
HETATM   19  C   UNL     1       7.647  30.148  58.553  1.00  0.00     0.128 A 
HETATM   20  H   UNL     1       7.628  31.278  60.292  1.00  0.00     0.170 HD
ENDBRANCH   8  11
ENDBRANCH   6   7
BRANCH   2  21
HETATM   21  N   UNL     1       4.646  27.123  51.493  1.00  0.00    -0.327 N 
HETATM   22  C   UNL     1       4.798  27.788  50.287  1.00  0.00     0.226 C 
HETATM   23  O   UNL     1       5.764  28.477  49.975  1.00  0.00    -0.273 OA
HETATM   24  H   UNL     1       3.776  26.620  51.629  1.00  0.00     0.169 HD
BRANCH  22  25
HETATM   25  C   UNL     1       3.586  27.609  49.356  1.00  0.00     0.078 C 
HETATM   26  C   UNL     1       2.460  28.608  49.669  1.00  0.00     0.014 C 
HETATM   27  C   UNL     1       2.736  30.020  49.150  1.00  0.00     0.001 C 
HETATM   28  C   UNL     1       3.112  30.023  47.674  1.00  0.00     0.000 C 
HETATM   29  C   UNL     1       4.277  29.081  47.394  1.00  0.00     0.001 C 
HETATM   30  C   UNL     1       3.974  27.663  47.871  1.00  0.00     0.014 C 
ENDBRANCH  22  25
ENDBRANCH   2  21
BRANCH   4  31
HETATM   31  N   UNL     1       7.997  24.623  53.996  1.00  0.00    -0.327 N 
HETATM   32  C   UNL     1       7.991  23.788  55.104  1.00  0.00     0.226 C 
HETATM   33  O   UNL     1       7.235  23.887  56.065  1.00  0.00    -0.273 OA
HETATM   34  H   UNL     1       8.618  24.365  53.237  1.00  0.00     0.169 HD
BRANCH  32  35
HETATM   35  C   UNL     1       9.046  22.675  55.005  1.00  0.00     0.078 C 
HETATM   36  C   UNL     1       8.812  21.575  56.051  1.00  0.00     0.014 C 
HETATM   37  C   UNL     1       7.639  20.666  55.691  1.00  0.00     0.001 C 
HETATM   38  C   UNL     1       7.812  20.054  54.306  1.00  0.00     0.000 C 
HETATM   39  C   UNL     1       8.006  21.128  53.241  1.00  0.00     0.001 C 
HETATM   40  C   UNL     1       9.146  22.084  53.590  1.00  0.00     0.014 C 
ENDBRANCH  32  35
ENDBRANCH   4  31
TORSDOF 6
ENDMDL
MODEL 4
REMARK VINA RESULT:     -10.2      1.866      2.225
REMARK  6 active torsions:
REMARK  status: ('A' for Active; 'I' for Inactive)
REMARK    1  A    between atoms: C_2  and  N_3 
REMARK       I    between atoms: N_3  and  C_4 
REMARK    2  A    between atoms: C_4  and  C_5 
REMARK    3  A    between atoms: C_13  and  N_14 
REMARK       I    between atoms: N_14  and  C_15 
REMARK    4  A    between atoms: C_15  and  C_16 
REMARK    5  A    between atoms: C_24  and  C_25 
REMARK       I    between atoms: C_25  and  N_26 
REMARK    6  A    between atoms: N_26  and  C_27 
ROOT
HETATM    1  C   UNL     1       6.827  26.685  54.592  1.00  0.00     0.046 A 
HETATM    2  C   UNL     1       7.121  25.948  53.441  1.00  0.00     0.037 A 
HETATM    3  C   UNL     1       6.563  26.336  52.214  1.00  0.00     0.059 A 
HETATM    4  C   UNL     1       5.724  27.445  52.122  1.00  0.00     0.037 A 
HETATM    5  C   UNL     1       5.450  28.178  53.281  1.00  0.00     0.046 A 
HETATM    6  C   UNL     1       5.996  27.811  54.523  1.00  0.00     0.036 A 
ENDROOT
BRANCH   6   7
HETATM    7  C   UNL     1       5.657  28.676  55.703  1.00  0.00     0.256 C 
HETATM    8  N   UNL     1       6.665  29.442  56.254  1.00  0.00    -0.317 N 
HETATM    9  H   UNL     1       7.608  29.391  55.877  1.00  0.00     0.169 HD
HETATM   10  O   UNL     1       4.498  28.668  56.113  1.00  0.00    -0.267 OA
BRANCH   8  11
HETATM   11  C   UNL     1       6.568  30.335  57.305  1.00  0.00     0.119 A 
HETATM   12  C   UNL     1       7.409  30.025  58.509  1.00  0.00     0.277 A 
HETATM   13  O   UNL     1       8.126  29.026  58.528  1.00  0.00    -0.266 OA
HETATM   14  N   UNL     1       7.336  30.895  59.559  1.00  0.00    -0.274 N 
HETATM   15  C   UNL     1       6.568  32.022  59.590  1.00  0.00     0.327 A 
HETATM   16  H   UNL     1       7.899  30.698  60.371  1.00  0.00     0.173 HD
HETATM   17  O   UNL     1       6.549  32.776  60.556  1.00  0.00    -0.247 OA
HETATM   18  N   UNL     1       5.822  32.258  58.470  1.00  0.00    -0.316 N 
HETATM   19  C   UNL     1       5.819  31.445  57.366  1.00  0.00     0.128 A 
HETATM   20  H   UNL     1       5.248  33.094  58.486  1.00  0.00     0.170 HD
ENDBRANCH   8  11
ENDBRANCH   6   7
BRANCH   2  21
HETATM   21  N   UNL     1       7.968  24.818  53.421  1.00  0.00    -0.327 N 
HETATM   22  C   UNL     1       7.784  23.606  54.068  1.00  0.00     0.226 C 
HETATM   23  O   UNL     1       6.832  23.324  54.787  1.00  0.00    -0.273 OA
HETATM   24  H   UNL     1       8.824  24.924  52.888  1.00  0.00     0.169 HD
BRANCH  22  25
HETATM   25  C   UNL     1       8.944  22.625  53.824  1.00  0.00     0.078 C 
HETATM   26  C   UNL     1       9.631  22.199  55.132  1.00  0.00     0.014 C 
HETATM   27  C   UNL     1       8.835  21.166  55.932  1.00  0.00     0.001 C 
HETATM   28  C   UNL     1       8.434  19.970  55.079  1.00  0.00     0.000 C 
HETATM   29  C   UNL     1       7.690  20.406  53.821  1.00  0.00     0.001 C 
HETATM   30  C   UNL     1       8.512  21.399  53.004  1.00  0.00     0.014 C 
ENDBRANCH  22  25
ENDBRANCH   2  21
BRANCH   4  31
HETATM   31  N   UNL     1       5.139  27.897  50.920  1.00  0.00    -0.327 N 
HETATM   32  C   UNL     1       4.645  27.127  49.877  1.00  0.00     0.226 C 
HETATM   33  O   UNL     1       4.578  25.902  49.867  1.00  0.00    -0.273 OA
HETATM   34  H   UNL     1       5.048  28.902  50.824  1.00  0.00     0.169 HD
BRANCH  32  35
HETATM   35  C   UNL     1       4.153  27.983  48.699  1.00  0.00     0.078 C 
HETATM   36  C   UNL     1       3.622  27.114  47.548  1.00  0.00     0.014 C 
HETATM   37  C   UNL     1       2.249  26.519  47.851  1.00  0.00     0.001 C 
HETATM   38  C   UNL     1       1.238  27.601  48.210  1.00  0.00     0.000 C 
HETATM   39  C   UNL     1       1.723  28.453  49.377  1.00  0.00     0.001 C 
HETATM   40  C   UNL     1       3.115  29.032  49.127  1.00  0.00     0.014 C 
ENDBRANCH  32  35
ENDBRANCH   4  31
TORSDOF 6
ENDMDL
MODEL 5
REMARK VINA RESULT:     -10.2      2.384      2.950
REMARK  6 active torsions:
REMARK  status: ('A' for Active; 'I' for Inactive)
REMARK    1  A    between atoms: C_2  and  N_3 
REMARK       I    between atoms: N_3  and  C_4 
REMARK    2  A    between atoms: C_4  and  C_5 
REMARK    3  A    between atoms: C_13  and  N_14 
REMARK       I    between atoms: N_14  and  C_15 
REMARK    4  A    between atoms: C_15  and  C_16 
REMARK    5  A    between atoms: C_24  and  C_25 
REMARK       I    between atoms: C_25  and  N_26 
REMARK    6  A    between atoms: N_26  and  C_27 
ROOT
HETATM    1  C   UNL     1       6.556  26.745  54.170  1.00  0.00     0.046 A 
HETATM    2  C   UNL     1       7.069  25.762  53.319  1.00  0.00     0.037 A 
HETATM    3  C   UNL     1       6.750  25.798  51.954  1.00  0.00     0.059 A 
HETATM    4  C   UNL     1       5.934  26.800  51.431  1.00  0.00     0.037 A 
HETATM    5  C   UNL     1       5.439  27.783  52.294  1.00  0.00     0.046 A 
HETATM    6  C   UNL     1       5.745  27.769  53.667  1.00  0.00     0.036 A 
ENDROOT
BRANCH   6   7
HETATM    7  C   UNL     1       5.181  28.881  54.504  1.00  0.00     0.256 C 
HETATM    8  N   UNL     1       5.319  28.791  55.876  1.00  0.00    -0.317 N 
HETATM    9  H   UNL     1       5.768  27.979  56.290  1.00  0.00     0.169 HD
HETATM   10  O   UNL     1       4.634  29.820  53.928  1.00  0.00    -0.267 OA
BRANCH   8  11
HETATM   11  C   UNL     1       4.918  29.712  56.826  1.00  0.00     0.119 A 
HETATM   12  C   UNL     1       6.012  30.304  57.666  1.00  0.00     0.277 A 
HETATM   13  O   UNL     1       7.181  29.965  57.497  1.00  0.00    -0.266 OA
HETATM   14  N   UNL     1       5.644  31.223  58.608  1.00  0.00    -0.274 N 
HETATM   15  C   UNL     1       4.366  31.645  58.833  1.00  0.00     0.327 A 
HETATM   16  H   UNL     1       6.371  31.628  59.175  1.00  0.00     0.173 HD
HETATM   17  O   UNL     1       4.093  32.481  59.685  1.00  0.00    -0.247 OA
HETATM   18  N   UNL     1       3.409  31.074  58.041  1.00  0.00    -0.316 N 
HETATM   19  C   UNL     1       3.672  30.140  57.073  1.00  0.00     0.128 A 
HETATM   20  H   UNL     1       2.457  31.383  58.203  1.00  0.00     0.170 HD
ENDBRANCH   8  11
ENDBRANCH   6   7
BRANCH   2  21
HETATM   21  N   UNL     1       7.914  24.712  53.743  1.00  0.00    -0.327 N 
HETATM   22  C   UNL     1       7.737  23.860  54.821  1.00  0.00     0.226 C 
HETATM   23  O   UNL     1       6.793  23.894  55.603  1.00  0.00    -0.273 OA
HETATM   24  H   UNL     1       8.763  24.591  53.202  1.00  0.00     0.169 HD
BRANCH  22  25
HETATM   25  C   UNL     1       8.892  22.855  54.976  1.00  0.00     0.078 C 
HETATM   26  C   UNL     1       8.679  21.903  56.164  1.00  0.00     0.014 C 
HETATM   27  C   UNL     1       7.663  20.795  55.885  1.00  0.00     0.001 C 
HETATM   28  C   UNL     1       7.977  20.045  54.597  1.00  0.00     0.000 C 
HETATM   29  C   UNL     1       8.113  20.998  53.415  1.00  0.00     0.001 C 
HETATM   30  C   UNL     1       9.165  22.071  53.683  1.00  0.00     0.014 C 
ENDBRANCH  22  25
ENDBRANCH   2  21
BRANCH   4  31
HETATM   31  N   UNL     1       5.583  26.903  50.068  1.00  0.00    -0.327 N 
HETATM   32  C   UNL     1       4.658  26.140  49.371  1.00  0.00     0.226 C 
HETATM   33  O   UNL     1       3.936  25.277  49.861  1.00  0.00    -0.273 OA
HETATM   34  H   UNL     1       6.045  27.642  49.548  1.00  0.00     0.169 HD
BRANCH  32  35
HETATM   35  C   UNL     1       4.607  26.499  47.878  1.00  0.00     0.078 C 
HETATM   36  C   UNL     1       3.304  26.015  47.221  1.00  0.00     0.014 C 
HETATM   37  C   UNL     1       2.103  26.878  47.598  1.00  0.00     0.001 C 
HETATM   38  C   UNL     1       2.348  28.347  47.274  1.00  0.00     0.000 C 
HETATM   39  C   UNL     1       3.614  28.865  47.947  1.00  0.00     0.001 C 
HETATM   40  C   UNL     1       4.831  27.998  47.626  1.00  0.00     0.014 C 
ENDBRANCH  32  35
ENDBRANCH   4  31
TORSDOF 6
ENDMDL
MODEL 6
REMARK VINA RESULT:      -9.7      2.603      7.411
REMARK  6 active torsions:
REMARK  status: ('A' for Active; 'I' for Inactive)
REMARK    1  A    between atoms: C_2  and  N_3 
REMARK       I    between atoms: N_3  and  C_4 
REMARK    2  A    between atoms: C_4  and  C_5 
REMARK    3  A    between atoms: C_13  and  N_14 
REMARK       I    between atoms: N_14  and  C_15 
REMARK    4  A    between atoms: C_15  and  C_16 
REMARK    5  A    between atoms: C_24  and  C_25 
REMARK       I    between atoms: C_25  and  N_26 
REMARK    6  A    between atoms: N_26  and  C_27 
ROOT
HETATM    1  C   UNL     1       5.958  27.969  52.655  1.00  0.00     0.046 A 
HETATM    2  C   UNL     1       6.194  26.978  51.698  1.00  0.00     0.037 A 
HETATM    3  C   UNL     1       6.929  25.838  52.055  1.00  0.00     0.059 A 
HETATM    4  C   UNL     1       7.423  25.675  53.349  1.00  0.00     0.037 A 
HETATM    5  C   UNL     1       7.167  26.670  54.296  1.00  0.00     0.046 A 
HETATM    6  C   UNL     1       6.433  27.823  53.964  1.00  0.00     0.036 A 
ENDROOT
BRANCH   6   7
HETATM    7  C   UNL     1       6.196  28.822  55.060  1.00  0.00     0.256 C 
HETATM    8  N   UNL     1       4.889  29.161  55.353  1.00  0.00    -0.317 N 
HETATM    9  H   UNL     1       4.126  28.756  54.818  1.00  0.00     0.169 HD
HETATM   10  O   UNL     1       7.174  29.281  55.647  1.00  0.00    -0.267 OA
BRANCH   8  11
HETATM   11  C   UNL     1       4.442  30.017  56.343  1.00  0.00     0.119 A 
HETATM   12  C   UNL     1       4.171  31.429  55.913  1.00  0.00     0.277 A 
HETATM   13  O   UNL     1       4.352  31.772  54.746  1.00  0.00    -0.266 OA
HETATM   14  N   UNL     1       3.721  32.294  56.870  1.00  0.00    -0.274 N 
HETATM   15  C   UNL     1       3.493  31.969  58.175  1.00  0.00     0.327 A 
HETATM   16  H   UNL     1       3.534  33.244  56.591  1.00  0.00     0.173 HD
HETATM   17  O   UNL     1       3.078  32.783  58.991  1.00  0.00    -0.247 OA
HETATM   18  N   UNL     1       3.755  30.670  58.513  1.00  0.00    -0.316 N 
HETATM   19  C   UNL     1       4.215  29.727  57.631  1.00  0.00     0.128 A 
HETATM   20  H   UNL     1       3.588  30.421  59.482  1.00  0.00     0.170 HD
ENDBRANCH   8  11
ENDBRANCH   6   7
BRANCH   2  21
HETATM   21  N   UNL     1       5.729  27.038  50.366  1.00  0.00    -0.327 N 
HETATM   22  C   UNL     1       4.791  26.221  49.755  1.00  0.00     0.226 C 
HETATM   23  O   UNL     1       4.210  25.284  50.292  1.00  0.00    -0.273 OA
HETATM   24  H   UNL     1       6.156  27.752  49.787  1.00  0.00     0.169 HD
BRANCH  22  25
HETATM   25  C   UNL     1       4.564  26.584  48.277  1.00  0.00     0.078 C 
HETATM   26  C   UNL     1       3.217  26.063  47.750  1.00  0.00     0.014 C 
HETATM   27  C   UNL     1       2.018  26.895  48.209  1.00  0.00     0.001 C 
HETATM   28  C   UNL     1       2.211  28.379  47.925  1.00  0.00     0.000 C 
HETATM   29  C   UNL     1       3.517  28.896  48.517  1.00  0.00     0.001 C 
HETATM   30  C   UNL     1       4.713  28.091  48.015  1.00  0.00     0.014 C 
ENDBRANCH  22  25
ENDBRANCH   2  21
BRANCH   4  31
HETATM   31  N   UNL     1       8.158  24.549  53.778  1.00  0.00    -0.327 N 
HETATM   32  C   UNL     1       7.951  23.787  54.919  1.00  0.00     0.226 C 
HETATM   33  O   UNL     1       7.032  23.938  55.717  1.00  0.00    -0.273 OA
HETATM   34  H   UNL     1       8.907  24.251  53.164  1.00  0.00     0.169 HD
BRANCH  32  35
HETATM   35  C   UNL     1       9.008  22.684  55.087  1.00  0.00     0.078 C 
HETATM   36  C   UNL     1       8.648  21.720  56.228  1.00  0.00     0.014 C 
HETATM   37  C   UNL     1       7.524  20.759  55.849  1.00  0.00     0.001 C 
HETATM   38  C   UNL     1       7.859  19.981  54.583  1.00  0.00     0.000 C 
HETATM   39  C   UNL     1       8.181  20.914  53.422  1.00  0.00     0.001 C 
HETATM   40  C   UNL     1       9.274  21.920  53.780  1.00  0.00     0.014 C 
ENDBRANCH  32  35
ENDBRANCH   4  31
TORSDOF 6
ENDMDL
MODEL 7
REMARK VINA RESULT:      -9.5      3.046      3.999
REMARK  6 active torsions:
REMARK  status: ('A' for Active; 'I' for Inactive)
REMARK    1  A    between atoms: C_2  and  N_3 
REMARK       I    between atoms: N_3  and  C_4 
REMARK    2  A    between atoms: C_4  and  C_5 
REMARK    3  A    between atoms: C_13  and  N_14 
REMARK       I    between atoms: N_14  and  C_15 
REMARK    4  A    between atoms: C_15  and  C_16 
REMARK    5  A    between atoms: C_24  and  C_25 
REMARK       I    between atoms: C_25  and  N_26 
REMARK    6  A    between atoms: N_26  and  C_27 
ROOT
HETATM    1  C   UNL     1       6.817  26.645  54.462  1.00  0.00     0.046 A 
HETATM    2  C   UNL     1       7.277  25.538  53.742  1.00  0.00     0.037 A 
HETATM    3  C   UNL     1       6.950  25.417  52.384  1.00  0.00     0.059 A 
HETATM    4  C   UNL     1       6.177  26.382  51.739  1.00  0.00     0.037 A 
HETATM    5  C   UNL     1       5.736  27.488  52.471  1.00  0.00     0.046 A 
HETATM    6  C   UNL     1       6.050  27.634  53.833  1.00  0.00     0.036 A 
ENDROOT
BRANCH   6   7
HETATM    7  C   UNL     1       5.545  28.869  54.523  1.00  0.00     0.256 C 
HETATM    8  N   UNL     1       4.310  29.360  54.146  1.00  0.00    -0.317 N 
HETATM    9  H   UNL     1       3.784  28.903  53.406  1.00  0.00     0.169 HD
HETATM   10  O   UNL     1       6.249  29.375  55.394  1.00  0.00    -0.267 OA
BRANCH   8  11
HETATM   11  C   UNL     1       3.638  30.448  54.674  1.00  0.00     0.119 A 
HETATM   12  C   UNL     1       3.190  31.484  53.685  1.00  0.00     0.277 A 
HETATM   13  O   UNL     1       3.427  31.345  52.486  1.00  0.00    -0.266 OA
HETATM   14  N   UNL     1       2.517  32.565  54.179  1.00  0.00    -0.274 N 
HETATM   15  C   UNL     1       2.217  32.766  55.495  1.00  0.00     0.327 A 
HETATM   16  H   UNL     1       2.210  33.265  53.523  1.00  0.00     0.173 HD
HETATM   17  O   UNL     1       1.600  33.751  55.884  1.00  0.00    -0.247 OA
HETATM   18  N   UNL     1       2.648  31.793  56.353  1.00  0.00    -0.316 N 
HETATM   19  C   UNL     1       3.335  30.674  55.960  1.00  0.00     0.128 A 
HETATM   20  H   UNL     1       2.428  31.936  57.333  1.00  0.00     0.170 HD
ENDBRANCH   8  11
ENDBRANCH   6   7
BRANCH   2  21
HETATM   21  N   UNL     1       8.074  24.512  54.295  1.00  0.00    -0.327 N 
HETATM   22  C   UNL     1       7.797  23.718  55.396  1.00  0.00     0.226 C 
HETATM   23  O   UNL     1       6.787  23.795  56.087  1.00  0.00    -0.273 OA
HETATM   24  H   UNL     1       8.968  24.362  53.839  1.00  0.00     0.169 HD
BRANCH  22  25
HETATM   25  C   UNL     1       8.928  22.723  55.707  1.00  0.00     0.078 C 
HETATM   26  C   UNL     1       8.456  21.569  56.608  1.00  0.00     0.014 C 
HETATM   27  C   UNL     1       7.637  20.512  55.867  1.00  0.00     0.001 C 
HETATM   28  C   UNL     1       8.349  20.010  54.617  1.00  0.00     0.000 C 
HETATM   29  C   UNL     1       8.746  21.162  53.701  1.00  0.00     0.001 C 
HETATM   30  C   UNL     1       9.604  22.188  54.435  1.00  0.00     0.014 C 
ENDBRANCH  22  25
ENDBRANCH   2  21
BRANCH   4  31
HETATM   31  N   UNL     1       5.822  26.327  50.374  1.00  0.00    -0.327 N 
HETATM   32  C   UNL     1       4.762  26.969  49.749  1.00  0.00     0.226 C 
HETATM   33  O   UNL     1       3.989  27.755  50.287  1.00  0.00    -0.273 OA
HETATM   34  H   UNL     1       6.431  25.775  49.781  1.00  0.00     0.169 HD
BRANCH  32  35
HETATM   35  C   UNL     1       4.652  26.604  48.260  1.00  0.00     0.078 C 
HETATM   36  C   UNL     1       3.425  25.723  47.980  1.00  0.00     0.014 C 
HETATM   37  C   UNL     1       2.118  26.511  48.012  1.00  0.00     0.001 C 
HETATM   38  C   UNL     1       2.156  27.692  47.048  1.00  0.00     0.000 C 
HETATM   39  C   UNL     1       3.342  28.606  47.330  1.00  0.00     0.001 C 
HETATM   40  C   UNL     1       4.665  27.842  47.349  1.00  0.00     0.014 C 
ENDBRANCH  32  35
ENDBRANCH   4  31
TORSDOF 6
ENDMDL
MODEL 8
REMARK VINA RESULT:      -9.5      2.495      7.990
REMARK  6 active torsions:
REMARK  status: ('A' for Active; 'I' for Inactive)
REMARK    1  A    between atoms: C_2  and  N_3 
REMARK       I    between atoms: N_3  and  C_4 
REMARK    2  A    between atoms: C_4  and  C_5 
REMARK    3  A    between atoms: C_13  and  N_14 
REMARK       I    between atoms: N_14  and  C_15 
REMARK    4  A    between atoms: C_15  and  C_16 
REMARK    5  A    between atoms: C_24  and  C_25 
REMARK       I    between atoms: C_25  and  N_26 
REMARK    6  A    between atoms: N_26  and  C_27 
ROOT
HETATM    1  C   UNL     1       8.105  28.006  57.330  1.00  0.00     0.046 A 
HETATM    2  C   UNL     1       7.699  29.344  57.290  1.00  0.00     0.037 A 
HETATM    3  C   UNL     1       6.805  29.763  56.294  1.00  0.00     0.059 A 
HETATM    4  C   UNL     1       6.312  28.867  55.346  1.00  0.00     0.037 A 
HETATM    5  C   UNL     1       6.718  27.531  55.408  1.00  0.00     0.046 A 
HETATM    6  C   UNL     1       7.613  27.086  56.397  1.00  0.00     0.036 A 
ENDROOT
BRANCH   6   7
HETATM    7  C   UNL     1       7.970  25.627  56.389  1.00  0.00     0.256 C 
HETATM    8  N   UNL     1       7.558  24.866  55.311  1.00  0.00    -0.317 N 
HETATM    9  H   UNL     1       7.010  25.291  54.568  1.00  0.00     0.169 HD
HETATM   10  O   UNL     1       8.619  25.185  57.335  1.00  0.00    -0.267 OA
BRANCH   8  11
HETATM   11  C   UNL     1       7.812  23.527  55.078  1.00  0.00     0.119 A 
HETATM   12  C   UNL     1       8.181  23.167  53.669  1.00  0.00     0.277 A 
HETATM   13  O   UNL     1       8.240  24.033  52.798  1.00  0.00    -0.266 OA
HETATM   14  N   UNL     1       8.444  21.851  53.413  1.00  0.00    -0.274 N 
HETATM   15  C   UNL     1       8.405  20.850  54.339  1.00  0.00     0.327 A 
HETATM   16  H   UNL     1       8.695  21.599  52.471  1.00  0.00     0.173 HD
HETATM   17  O   UNL     1       8.661  19.685  54.057  1.00  0.00    -0.247 OA
HETATM   18  N   UNL     1       8.063  21.232  55.606  1.00  0.00    -0.316 N 
HETATM   19  C   UNL     1       7.775  22.524  55.965  1.00  0.00     0.128 A 
HETATM   20  H   UNL     1       8.032  20.493  56.300  1.00  0.00     0.170 HD
ENDBRANCH   8  11
ENDBRANCH   6   7
BRANCH   2  21
HETATM   21  N   UNL     1       8.127  30.328  58.209  1.00  0.00    -0.327 N 
HETATM   22  C   UNL     1       7.345  31.200  58.949  1.00  0.00     0.226 C 
HETATM   23  O   UNL     1       6.121  31.259  58.910  1.00  0.00    -0.273 OA
HETATM   24  H   UNL     1       9.132  30.416  58.314  1.00  0.00     0.169 HD
BRANCH  22  25
HETATM   25  C   UNL     1       8.183  32.147  59.825  1.00  0.00     0.078 C 
HETATM   26  C   UNL     1       7.367  32.741  60.985  1.00  0.00     0.014 C 
HETATM   27  C   UNL     1       7.142  31.762  62.138  1.00  0.00     0.001 C 
HETATM   28  C   UNL     1       8.445  31.134  62.616  1.00  0.00     0.000 C 
HETATM   29  C   UNL     1       9.207  30.487  61.465  1.00  0.00     0.001 C 
HETATM   30  C   UNL     1       9.470  31.484  60.340  1.00  0.00     0.014 C 
ENDBRANCH  22  25
ENDBRANCH   2  21
BRANCH   4  31
HETATM   31  N   UNL     1       5.402  29.218  54.325  1.00  0.00    -0.327 N 
HETATM   32  C   UNL     1       5.553  29.037  52.958  1.00  0.00     0.226 C 
HETATM   33  O   UNL     1       6.496  28.469  52.415  1.00  0.00    -0.273 OA
HETATM   34  H   UNL     1       4.527  29.626  54.635  1.00  0.00     0.169 HD
BRANCH  32  35
HETATM   35  C   UNL     1       4.377  29.619  52.156  1.00  0.00     0.078 C 
HETATM   36  C   UNL     1       4.829  30.759  51.231  1.00  0.00     0.014 C 
HETATM   37  C   UNL     1       5.580  30.252  50.001  1.00  0.00     0.001 C 
HETATM   38  C   UNL     1       4.754  29.233  49.225  1.00  0.00     0.000 C 
HETATM   39  C   UNL     1       4.326  28.068  50.111  1.00  0.00     0.001 C 
HETATM   40  C   UNL     1       3.609  28.541  51.375  1.00  0.00     0.014 C 
ENDBRANCH  32  35
ENDBRANCH   4  31
TORSDOF 6
ENDMDL
MODEL 9
REMARK VINA RESULT:      -9.3      2.492      7.312
REMARK  6 active torsions:
REMARK  status: ('A' for Active; 'I' for Inactive)
REMARK    1  A    between atoms: C_2  and  N_3 
REMARK       I    between atoms: N_3  and  C_4 
REMARK    2  A    between atoms: C_4  and  C_5 
REMARK    3  A    between atoms: C_13  and  N_14 
REMARK       I    between atoms: N_14  and  C_15 
REMARK    4  A    between atoms: C_15  and  C_16 
REMARK    5  A    between atoms: C_24  and  C_25 
REMARK       I    between atoms: C_25  and  N_26 
REMARK    6  A    between atoms: N_26  and  C_27 
ROOT
HETATM    1  C   UNL     1       4.506  29.252  52.744  1.00  0.00     0.046 A 
HETATM    2  C   UNL     1       4.589  28.220  51.804  1.00  0.00     0.037 A 
HETATM    3  C   UNL     1       4.965  26.936  52.223  1.00  0.00     0.059 A 
HETATM    4  C   UNL     1       5.253  26.670  53.560  1.00  0.00     0.037 A 
HETATM    5  C   UNL     1       5.154  27.710  54.489  1.00  0.00     0.046 A 
HETATM    6  C   UNL     1       4.779  29.007  54.095  1.00  0.00     0.036 A 
ENDROOT
BRANCH   6   7
HETATM    7  C   UNL     1       4.682  30.048  55.173  1.00  0.00     0.256 C 
HETATM    8  N   UNL     1       4.940  29.658  56.473  1.00  0.00    -0.317 N 
HETATM    9  H   UNL     1       5.163  28.688  56.679  1.00  0.00     0.169 HD
HETATM   10  O   UNL     1       4.388  31.196  54.845  1.00  0.00    -0.267 OA
BRANCH   8  11
HETATM   11  C   UNL     1       4.952  30.452  57.605  1.00  0.00     0.119 A 
HETATM   12  C   UNL     1       6.308  30.798  58.149  1.00  0.00     0.277 A 
HETATM   13  O   UNL     1       7.325  30.380  57.599  1.00  0.00    -0.266 OA
HETATM   14  N   UNL     1       6.348  31.587  59.263  1.00  0.00    -0.274 N 
HETATM   15  C   UNL     1       5.255  32.088  59.907  1.00  0.00     0.327 A 
HETATM   16  H   UNL     1       7.253  31.828  59.633  1.00  0.00     0.173 HD
HETATM   17  O   UNL     1       5.348  32.802  60.899  1.00  0.00    -0.247 OA
HETATM   18  N   UNL     1       4.045  31.743  59.372  1.00  0.00    -0.316 N 
HETATM   19  C   UNL     1       3.896  30.952  58.262  1.00  0.00     0.128 A 
HETATM   20  H   UNL     1       3.228  32.112  59.846  1.00  0.00     0.170 HD
ENDBRANCH   8  11
ENDBRANCH   6   7
BRANCH   2  21
HETATM   21  N   UNL     1       4.305  28.379  50.429  1.00  0.00    -0.327 N 
HETATM   22  C   UNL     1       3.079  28.634  49.837  1.00  0.00     0.226 C 
HETATM   23  O   UNL     1       2.015  28.755  50.435  1.00  0.00    -0.273 OA
HETATM   24  H   UNL     1       5.097  28.267  49.805  1.00  0.00     0.169 HD
BRANCH  22  25
HETATM   25  C   UNL     1       3.169  28.716  48.303  1.00  0.00     0.078 C 
HETATM   26  C   UNL     1       4.265  27.800  47.735  1.00  0.00     0.014 C 
HETATM   27  C   UNL     1       3.870  26.323  47.701  1.00  0.00     0.001 C 
HETATM   28  C   UNL     1       2.528  26.107  47.013  1.00  0.00     0.000 C 
HETATM   29  C   UNL     1       1.436  26.970  47.636  1.00  0.00     0.001 C 
HETATM   30  C   UNL     1       1.818  28.448  47.622  1.00  0.00     0.014 C 
ENDBRANCH  22  25
ENDBRANCH   2  21
BRANCH   4  31
HETATM   31  N   UNL     1       5.626  25.400  54.051  1.00  0.00    -0.327 N 
HETATM   32  C   UNL     1       6.827  24.735  53.854  1.00  0.00     0.226 C 
HETATM   33  O   UNL     1       7.801  25.187  53.261  1.00  0.00    -0.273 OA
HETATM   34  H   UNL     1       4.942  24.936  54.639  1.00  0.00     0.169 HD
BRANCH  32  35
HETATM   35  C   UNL     1       6.832  23.333  54.485  1.00  0.00     0.078 C 
HETATM   36  C   UNL     1       7.512  22.301  53.573  1.00  0.00     0.014 C 
HETATM   37  C   UNL     1       9.033  22.439  53.565  1.00  0.00     0.001 C 
HETATM   38  C   UNL     1       9.607  22.363  54.974  1.00  0.00     0.000 C 
HETATM   39  C   UNL     1       8.979  23.405  55.892  1.00  0.00     0.001 C 
HETATM   40  C   UNL     1       7.452  23.324  55.892  1.00  0.00     0.014 C 
ENDBRANCH  32  35
ENDBRANCH   4  31
TORSDOF 6
ENDMDL
MODEL 10
REMARK VINA RESULT:      -9.0      2.471      2.855
REMARK  6 active torsions:
REMARK  status: ('A' for Active; 'I' for Inactive)
REMARK    1  A    between atoms: C_2  and  N_3 
REMARK       I    between atoms: N_3  and  C_4 
REMARK    2  A    between atoms: C_4  and  C_5 
REMARK    3  A    between atoms: C_13  and  N_14 
REMARK       I    between atoms: N_14  and  C_15 
REMARK    4  A    between atoms: C_15  and  C_16 
REMARK    5  A    between atoms: C_24  and  C_25 
REMARK       I    between atoms: C_25  and  N_26 
REMARK    6  A    between atoms: N_26  and  C_27 
ROOT
HETATM    1  C   UNL     1       5.150  27.306  54.603  1.00  0.00     0.046 A 
HETATM    2  C   UNL     1       5.253  26.282  53.656  1.00  0.00     0.037 A 
HETATM    3  C   UNL     1       4.979  26.560  52.309  1.00  0.00     0.059 A 
HETATM    4  C   UNL     1       4.610  27.840  51.898  1.00  0.00     0.037 A 
HETATM    5  C   UNL     1       4.524  28.855  52.856  1.00  0.00     0.046 A 
HETATM    6  C   UNL     1       4.794  28.603  54.212  1.00  0.00     0.036 A 
ENDROOT
BRANCH   6   7
HETATM    7  C   UNL     1       4.693  29.766  55.157  1.00  0.00     0.256 C 
HETATM    8  N   UNL     1       4.847  29.516  56.508  1.00  0.00    -0.317 N 
HETATM    9  H   UNL     1       4.998  28.566  56.836  1.00  0.00     0.169 HD
HETATM   10  O   UNL     1       4.489  30.881  54.683  1.00  0.00    -0.267 OA
BRANCH   8  11
HETATM   11  C   UNL     1       4.837  30.435  57.541  1.00  0.00     0.119 A 
HETATM   12  C   UNL     1       6.173  30.755  58.146  1.00  0.00     0.277 A 
HETATM   13  O   UNL     1       7.193  30.213  57.727  1.00  0.00    -0.266 OA
HETATM   14  N   UNL     1       6.192  31.666  59.164  1.00  0.00    -0.274 N 
HETATM   15  C   UNL     1       5.095  32.306  59.662  1.00  0.00     0.327 A 
HETATM   16  H   UNL     1       7.084  31.890  59.575  1.00  0.00     0.173 HD
HETATM   17  O   UNL     1       5.170  33.124  60.572  1.00  0.00    -0.247 OA
HETATM   18  N   UNL     1       3.904  31.977  59.077  1.00  0.00    -0.316 N 
HETATM   19  C   UNL     1       3.777  31.074  58.054  1.00  0.00     0.128 A 
HETATM   20  H   UNL     1       3.084  32.450  59.443  1.00  0.00     0.170 HD
ENDBRANCH   8  11
ENDBRANCH   6   7
BRANCH   2  21
HETATM   21  N   UNL     1       5.631  24.957  53.964  1.00  0.00    -0.327 N 
HETATM   22  C   UNL     1       6.910  24.457  54.148  1.00  0.00     0.226 C 
HETATM   23  O   UNL     1       7.944  25.109  54.058  1.00  0.00    -0.273 OA
HETATM   24  H   UNL     1       4.868  24.291  54.033  1.00  0.00     0.169 HD
BRANCH  22  25
HETATM   25  C   UNL     1       6.918  22.948  54.446  1.00  0.00     0.078 C 
HETATM   26  C   UNL     1       7.628  22.141  53.346  1.00  0.00     0.014 C 
HETATM   27  C   UNL     1       9.153  22.231  53.411  1.00  0.00     0.001 C 
HETATM   28  C   UNL     1       9.686  21.901  54.799  1.00  0.00     0.000 C 
HETATM   29  C   UNL     1       9.024  22.761  55.870  1.00  0.00     0.001 C 
HETATM   30  C   UNL     1       7.504  22.627  55.830  1.00  0.00     0.014 C 
ENDBRANCH  22  25
ENDBRANCH   2  21
BRANCH   4  31
HETATM   31  N   UNL     1       4.331  28.191  50.560  1.00  0.00    -0.327 N 
HETATM   32  C   UNL     1       3.122  28.615  50.029  1.00  0.00     0.226 C 
HETATM   33  O   UNL     1       2.096  28.818  50.671  1.00  0.00    -0.273 OA
HETATM   34  H   UNL     1       5.118  28.152  49.921  1.00  0.00     0.169 HD
BRANCH  32  35
HETATM   35  C   UNL     1       3.191  28.831  48.509  1.00  0.00     0.078 C 
HETATM   36  C   UNL     1       4.161  27.846  47.838  1.00  0.00     0.014 C 
HETATM   37  C   UNL     1       3.585  26.435  47.738  1.00  0.00     0.001 C 
HETATM   38  C   UNL     1       2.241  26.432  47.018  1.00  0.00     0.000 C 
HETATM   39  C   UNL     1       1.246  27.372  47.687  1.00  0.00     0.001 C 
HETATM   40  C   UNL     1       1.806  28.785  47.845  1.00  0.00     0.014 C 
ENDBRANCH  32  35
ENDBRANCH   4  31
TORSDOF 6
ENDMDL
