MODEL 1
REMARK VINA RESULT:      -9.6      0.000      0.000
REMARK  5 active torsions:
REMARK  status: ('A' for Active; 'I' for Inactive)
REMARK    1  A    between atoms: C_4  and  N_5 
REMARK    2  A    between atoms: N_5  and  N_6 
REMARK       I    between atoms: N_6  and  C_7 
REMARK    3  A    between atoms: C_7  and  C_8 
REMARK    4  A    between atoms: C_12  and  C_13 
REMARK    5  A    between atoms: C_13  and  C_14 
ROOT
HETATM    1  C   UNL     1       8.325  28.196  57.591  1.00  0.00     0.102 A 
HETATM    2  N   UNL     1       9.431  28.471  56.818  1.00  0.00    -0.360 N 
HETATM    3  H   UNL     1       9.782  27.845  56.102  1.00  0.00     0.165 HD
HETATM    4  C   UNL     1       9.954  29.694  57.149  1.00  0.00     0.104 A 
HETATM    5  C   UNL     1       9.194  30.231  58.173  1.00  0.00     0.033 A 
HETATM    6  C   UNL     1       8.183  29.265  58.460  1.00  0.00     0.052 A 
ENDROOT
BRANCH   1   7
HETATM    7  C   UNL     1       7.559  26.981  57.419  1.00  0.00     0.282 C 
HETATM    8  N   UNL     1       6.751  26.950  56.295  1.00  0.00    -0.281 N 
HETATM    9  H   UNL     1       6.865  27.619  55.542  1.00  0.00     0.184 HD
HETATM   10  O   UNL     1       7.633  26.035  58.202  1.00  0.00    -0.265 OA
BRANCH   8  11
HETATM   11  N   UNL     1       6.191  25.712  55.918  1.00  0.00    -0.203 NA
HETATM   12  H   UNL     1       5.197  25.843  55.679  1.00  0.00     0.153 HD
BRANCH  11  13
HETATM   13  C   UNL     1       6.844  25.114  54.808  1.00  0.00     0.027 A 
HETATM   14  C   UNL     1       6.968  23.719  54.795  1.00  0.00     0.025 A 
HETATM   15  C   UNL     1       7.553  23.058  53.712  1.00  0.00     0.002 A 
HETATM   16  C   UNL     1       7.997  23.787  52.612  1.00  0.00     0.000 A 
HETATM   17  C   UNL     1       7.847  25.172  52.592  1.00  0.00     0.002 A 
HETATM   18  C   UNL     1       7.265  25.831  53.679  1.00  0.00     0.025 A 
ENDBRANCH  11  13
ENDBRANCH   8  11
ENDBRANCH   1   7
BRANCH   5  19
HETATM   19  C   UNL     1       9.365  31.514  58.850  1.00  0.00     0.195 C 
HETATM   20  O   UNL     1      10.167  32.359  58.466  1.00  0.00    -0.287 OA
BRANCH  19  21
HETATM   21  C   UNL     1       8.607  31.774  60.087  1.00  0.00     0.037 A 
HETATM   22  C   UNL     1       7.266  32.170  60.048  1.00  0.00     0.049 A 
HETATM   23 CL   UNL     1       6.374  32.272  58.574  1.00  0.00    -0.083 Cl
HETATM   24  C   UNL     1       6.597  32.469  61.239  1.00  0.00     0.048 A 
HETATM   25  C   UNL     1       7.272  32.371  62.456  1.00  0.00     0.035 A 
HETATM   26 CL   UNL     1       6.447  32.742  63.919  1.00  0.00    -0.084 Cl
HETATM   27  C   UNL     1       8.609  31.978  62.499  1.00  0.00     0.025 A 
HETATM   28  C   UNL     1       9.282  31.683  61.314  1.00  0.00     0.019 A 
ENDBRANCH  19  21
ENDBRANCH   5  19
TORSDOF 5
ENDMDL
MODEL 2
REMARK VINA RESULT:      -9.5      3.892      9.199
REMARK  5 active torsions:
REMARK  status: ('A' for Active; 'I' for Inactive)
REMARK    1  A    between atoms: C_4  and  N_5 
REMARK    2  A    between atoms: N_5  and  N_6 
REMARK       I    between atoms: N_6  and  C_7 
REMARK    3  A    between atoms: C_7  and  C_8 
REMARK    4  A    between atoms: C_12  and  C_13 
REMARK    5  A    between atoms: C_13  and  C_14 
ROOT
HETATM    1  C   UNL     1       8.493  28.439  56.229  1.00  0.00     0.102 A 
HETATM    2  N   UNL     1       8.385  28.886  54.931  1.00  0.00    -0.360 N 
HETATM    3  H   UNL     1       8.833  29.729  54.591  1.00  0.00     0.165 HD
HETATM    4  C   UNL     1       7.613  28.027  54.192  1.00  0.00     0.104 A 
HETATM    5  C   UNL     1       7.186  27.003  55.019  1.00  0.00     0.033 A 
HETATM    6  C   UNL     1       7.729  27.287  56.309  1.00  0.00     0.052 A 
ENDROOT
BRANCH   1   7
HETATM    7  C   UNL     1       9.287  29.144  57.213  1.00  0.00     0.282 C 
HETATM    8  N   UNL     1       8.587  29.595  58.319  1.00  0.00    -0.281 N 
HETATM    9  H   UNL     1       7.654  29.258  58.530  1.00  0.00     0.184 HD
HETATM   10  O   UNL     1      10.498  29.314  57.086  1.00  0.00    -0.265 OA
BRANCH   8  11
HETATM   11  N   UNL     1       9.328  30.044  59.431  1.00  0.00    -0.203 NA
HETATM   12  H   UNL     1      10.170  30.541  59.105  1.00  0.00     0.153 HD
BRANCH  11  13
HETATM   13  C   UNL     1       8.595  30.915  60.280  1.00  0.00     0.027 A 
HETATM   14  C   UNL     1       9.093  31.145  61.569  1.00  0.00     0.025 A 
HETATM   15  C   UNL     1       8.453  32.029  62.440  1.00  0.00     0.002 A 
HETATM   16  C   UNL     1       7.318  32.717  62.021  1.00  0.00     0.000 A 
HETATM   17  C   UNL     1       6.830  32.529  60.729  1.00  0.00     0.002 A 
HETATM   18  C   UNL     1       7.471  31.641  59.861  1.00  0.00     0.025 A 
ENDBRANCH  11  13
ENDBRANCH   8  11
ENDBRANCH   1   7
BRANCH   5  19
HETATM   19  C   UNL     1       6.348  25.856  54.680  1.00  0.00     0.195 C 
HETATM   20  O   UNL     1       5.123  25.918  54.667  1.00  0.00    -0.287 OA
BRANCH  19  21
HETATM   21  C   UNL     1       6.990  24.554  54.425  1.00  0.00     0.037 A 
HETATM   22  C   UNL     1       7.391  24.181  53.138  1.00  0.00     0.049 A 
HETATM   23 CL   UNL     1       7.274  25.248  51.788  1.00  0.00    -0.083 Cl
HETATM   24  C   UNL     1       7.940  22.913  52.924  1.00  0.00     0.048 A 
HETATM   25  C   UNL     1       8.080  22.029  53.993  1.00  0.00     0.035 A 
HETATM   26 CL   UNL     1       8.752  20.468  53.726  1.00  0.00    -0.084 Cl
HETATM   27  C   UNL     1       7.680  22.395  55.278  1.00  0.00     0.025 A 
HETATM   28  C   UNL     1       7.128  23.658  55.497  1.00  0.00     0.019 A 
ENDBRANCH  19  21
ENDBRANCH   5  19
TORSDOF 5
ENDMDL
MODEL 3
REMARK VINA RESULT:      -9.5      1.521      2.029
REMARK  5 active torsions:
REMARK  status: ('A' for Active; 'I' for Inactive)
REMARK    1  A    between atoms: C_4  and  N_5 
REMARK    2  A    between atoms: N_5  and  N_6 
REMARK       I    between atoms: N_6  and  C_7 
REMARK    3  A    between atoms: C_7  and  C_8 
REMARK    4  A    between atoms: C_12  and  C_13 
REMARK    5  A    between atoms: C_13  and  C_14 
ROOT
HETATM    1  C   UNL     1       8.162  28.239  57.574  1.00  0.00     0.102 A 
HETATM    2  N   UNL     1       9.383  28.502  56.994  1.00  0.00    -0.360 N 
HETATM    3  H   UNL     1       9.831  27.881  56.329  1.00  0.00     0.165 HD
HETATM    4  C   UNL     1       9.871  29.705  57.433  1.00  0.00     0.104 A 
HETATM    5  C   UNL     1       8.968  30.240  58.333  1.00  0.00     0.033 A 
HETATM    6  C   UNL     1       7.903  29.294  58.433  1.00  0.00     0.052 A 
ENDROOT
BRANCH   1   7
HETATM    7  C   UNL     1       7.408  27.046  57.253  1.00  0.00     0.282 C 
HETATM    8  N   UNL     1       8.146  25.875  57.220  1.00  0.00    -0.281 N 
HETATM    9  H   UNL     1       9.079  25.826  57.614  1.00  0.00     0.184 HD
HETATM   10  O   UNL     1       6.196  27.066  57.043  1.00  0.00    -0.265 OA
BRANCH   8  11
HETATM   11  N   UNL     1       7.445  24.653  57.184  1.00  0.00    -0.203 NA
HETATM   12  H   UNL     1       6.434  24.834  57.261  1.00  0.00     0.153 HD
BRANCH  11  13
HETATM   13  C   UNL     1       7.677  23.907  55.998  1.00  0.00     0.027 A 
HETATM   14  C   UNL     1       6.886  24.196  54.878  1.00  0.00     0.025 A 
HETATM   15  C   UNL     1       7.092  23.540  53.663  1.00  0.00     0.002 A 
HETATM   16  C   UNL     1       8.115  22.603  53.545  1.00  0.00     0.000 A 
HETATM   17  C   UNL     1       8.935  22.330  54.638  1.00  0.00     0.002 A 
HETATM   18  C   UNL     1       8.724  22.986  55.854  1.00  0.00     0.025 A 
ENDBRANCH  11  13
ENDBRANCH   8  11
ENDBRANCH   1   7
BRANCH   5  19
HETATM   19  C   UNL     1       9.054  31.506  59.059  1.00  0.00     0.195 C 
HETATM   20  O   UNL     1       9.918  32.343  58.820  1.00  0.00    -0.287 OA
BRANCH  19  21
HETATM   21  C   UNL     1       8.122  31.754  60.173  1.00  0.00     0.037 A 
HETATM   22  C   UNL     1       8.353  31.224  61.447  1.00  0.00     0.049 A 
HETATM   23 CL   UNL     1       9.787  30.347  61.836  1.00  0.00    -0.083 Cl
HETATM   24  C   UNL     1       7.416  31.428  62.463  1.00  0.00     0.048 A 
HETATM   25  C   UNL     1       6.255  32.156  62.199  1.00  0.00     0.035 A 
HETATM   26 CL   UNL     1       5.101  32.403  63.451  1.00  0.00    -0.084 Cl
HETATM   27  C   UNL     1       6.019  32.686  60.930  1.00  0.00     0.025 A 
HETATM   28  C   UNL     1       6.950  32.482  59.912  1.00  0.00     0.019 A 
ENDBRANCH  19  21
ENDBRANCH   5  19
TORSDOF 5
ENDMDL
MODEL 4
REMARK VINA RESULT:      -9.5      3.496      9.084
REMARK  5 active torsions:
REMARK  status: ('A' for Active; 'I' for Inactive)
REMARK    1  A    between atoms: C_4  and  N_5 
REMARK    2  A    between atoms: N_5  and  N_6 
REMARK       I    between atoms: N_6  and  C_7 
REMARK    3  A    between atoms: C_7  and  C_8 
REMARK    4  A    between atoms: C_12  and  C_13 
REMARK    5  A    between atoms: C_13  and  C_14 
ROOT
HETATM    1  C   UNL     1       8.737  28.836  56.785  1.00  0.00     0.102 A 
HETATM    2  N   UNL     1       8.319  28.871  55.473  1.00  0.00    -0.360 N 
HETATM    3  H   UNL     1       8.503  29.648  54.848  1.00  0.00     0.165 HD
HETATM    4  C   UNL     1       7.650  27.718  55.154  1.00  0.00     0.104 A 
HETATM    5  C   UNL     1       7.606  26.913  56.277  1.00  0.00     0.033 A 
HETATM    6  C   UNL     1       8.275  27.640  57.308  1.00  0.00     0.052 A 
ENDROOT
BRANCH   1   7
HETATM    7  C   UNL     1       9.502  29.917  57.368  1.00  0.00     0.282 C 
HETATM    8  N   UNL     1       8.753  30.882  58.020  1.00  0.00    -0.281 N 
HETATM    9  H   UNL     1       7.783  30.723  58.266  1.00  0.00     0.184 HD
HETATM   10  O   UNL     1      10.730  29.966  57.308  1.00  0.00    -0.265 OA
BRANCH   8  11
HETATM   11  N   UNL     1       9.436  31.808  58.835  1.00  0.00    -0.203 NA
HETATM   12  H   UNL     1       9.273  32.762  58.482  1.00  0.00     0.153 HD
BRANCH  11  13
HETATM   13  C   UNL     1       9.035  31.759  60.197  1.00  0.00     0.027 A 
HETATM   14  C   UNL     1       8.157  32.750  60.656  1.00  0.00     0.025 A 
HETATM   15  C   UNL     1       7.680  32.736  61.969  1.00  0.00     0.002 A 
HETATM   16  C   UNL     1       8.055  31.710  62.832  1.00  0.00     0.000 A 
HETATM   17  C   UNL     1       8.897  30.696  62.381  1.00  0.00     0.002 A 
HETATM   18  C   UNL     1       9.376  30.715  61.068  1.00  0.00     0.025 A 
ENDBRANCH  11  13
ENDBRANCH   8  11
ENDBRANCH   1   7
BRANCH   5  19
HETATM   19  C   UNL     1       7.004  25.590  56.421  1.00  0.00     0.195 C 
HETATM   20  O   UNL     1       6.159  25.341  57.275  1.00  0.00    -0.287 OA
BRANCH  19  21
HETATM   21  C   UNL     1       7.483  24.491  55.564  1.00  0.00     0.037 A 
HETATM   22  C   UNL     1       6.824  24.153  54.377  1.00  0.00     0.049 A 
HETATM   23 CL   UNL     1       5.484  25.058  53.775  1.00  0.00    -0.083 Cl
HETATM   24  C   UNL     1       7.271  23.065  53.622  1.00  0.00     0.048 A 
HETATM   25  C   UNL     1       8.368  22.323  54.059  1.00  0.00     0.035 A 
HETATM   26 CL   UNL     1       8.915  20.982  53.129  1.00  0.00    -0.084 Cl
HETATM   27  C   UNL     1       9.029  22.655  55.241  1.00  0.00     0.025 A 
HETATM   28  C   UNL     1       8.584  23.738  56.000  1.00  0.00     0.019 A 
ENDBRANCH  19  21
ENDBRANCH   5  19
TORSDOF 5
ENDMDL
MODEL 5
REMARK VINA RESULT:      -9.1      8.496     10.905
REMARK  5 active torsions:
REMARK  status: ('A' for Active; 'I' for Inactive)
REMARK    1  A    between atoms: C_4  and  N_5 
REMARK    2  A    between atoms: N_5  and  N_6 
REMARK       I    between atoms: N_6  and  C_7 
REMARK    3  A    between atoms: C_7  and  C_8 
REMARK    4  A    between atoms: C_12  and  C_13 
REMARK    5  A    between atoms: C_13  and  C_14 
ROOT
HETATM    1  C   UNL     1       5.311  26.346  51.434  1.00  0.00     0.102 A 
HETATM    2  N   UNL     1       5.494  27.711  51.468  1.00  0.00    -0.360 N 
HETATM    3  H   UNL     1       5.747  28.220  52.307  1.00  0.00     0.165 HD
HETATM    4  C   UNL     1       5.302  28.249  50.222  1.00  0.00     0.104 A 
HETATM    5  C   UNL     1       4.968  27.228  49.351  1.00  0.00     0.033 A 
HETATM    6  C   UNL     1       4.953  26.034  50.133  1.00  0.00     0.052 A 
ENDROOT
BRANCH   1   7
HETATM    7  C   UNL     1       5.491  25.525  52.612  1.00  0.00     0.282 C 
HETATM    8  N   UNL     1       6.807  25.256  52.946  1.00  0.00    -0.281 N 
HETATM    9  H   UNL     1       7.575  25.780  52.540  1.00  0.00     0.184 HD
HETATM   10  O   UNL     1       4.545  25.111  53.280  1.00  0.00    -0.265 OA
BRANCH   8  11
HETATM   11  N   UNL     1       7.066  24.700  54.216  1.00  0.00    -0.203 NA
HETATM   12  H   UNL     1       6.220  24.769  54.800  1.00  0.00     0.153 HD
BRANCH  11  13
HETATM   13  C   UNL     1       7.463  23.338  54.161  1.00  0.00     0.027 A 
HETATM   14  C   UNL     1       7.452  22.604  55.355  1.00  0.00     0.025 A 
HETATM   15  C   UNL     1       7.780  21.247  55.369  1.00  0.00     0.002 A 
HETATM   16  C   UNL     1       8.099  20.598  54.179  1.00  0.00     0.000 A 
HETATM   17  C   UNL     1       8.079  21.303  52.977  1.00  0.00     0.002 A 
HETATM   18  C   UNL     1       7.753  22.662  52.967  1.00  0.00     0.025 A 
ENDBRANCH  11  13
ENDBRANCH   8  11
ENDBRANCH   1   7
BRANCH   5  19
HETATM   19  C   UNL     1       4.676  27.316  47.923  1.00  0.00     0.195 C 
HETATM   20  O   UNL     1       5.552  27.251  47.067  1.00  0.00    -0.287 OA
BRANCH  19  21
HETATM   21  C   UNL     1       3.289  27.573  47.492  1.00  0.00     0.037 A 
HETATM   22  C   UNL     1       2.409  26.524  47.210  1.00  0.00     0.049 A 
HETATM   23 CL   UNL     1       2.835  24.869  47.450  1.00  0.00    -0.083 Cl
HETATM   24  C   UNL     1       1.121  26.806  46.744  1.00  0.00     0.048 A 
HETATM   25  C   UNL     1       0.725  28.131  46.563  1.00  0.00     0.035 A 
HETATM   26 CL   UNL     1      -0.858  28.477  45.986  1.00  0.00    -0.084 Cl
HETATM   27  C   UNL     1       1.600  29.181  46.842  1.00  0.00     0.025 A 
HETATM   28  C   UNL     1       2.887  28.905  47.303  1.00  0.00     0.019 A 
ENDBRANCH  19  21
ENDBRANCH   5  19
TORSDOF 5
ENDMDL
MODEL 6
REMARK VINA RESULT:      -9.1      4.013      9.455
REMARK  5 active torsions:
REMARK  status: ('A' for Active; 'I' for Inactive)
REMARK    1  A    between atoms: C_4  and  N_5 
REMARK    2  A    between atoms: N_5  and  N_6 
REMARK       I    between atoms: N_6  and  C_7 
REMARK    3  A    between atoms: C_7  and  C_8 
REMARK    4  A    between atoms: C_12  and  C_13 
REMARK    5  A    between atoms: C_13  and  C_14 
ROOT
HETATM    1  C   UNL     1       6.699  27.560  57.190  1.00  0.00     0.102 A 
HETATM    2  N   UNL     1       5.670  26.736  56.790  1.00  0.00    -0.360 N 
HETATM    3  H   UNL     1       4.729  27.066  56.608  1.00  0.00     0.165 HD
HETATM    4  C   UNL     1       6.113  25.446  56.664  1.00  0.00     0.104 A 
HETATM    5  C   UNL     1       7.453  25.408  57.005  1.00  0.00     0.033 A 
HETATM    6  C   UNL     1       7.806  26.746  57.359  1.00  0.00     0.052 A 
ENDROOT
BRANCH   1   7
HETATM    7  C   UNL     1       6.510  28.984  57.363  1.00  0.00     0.282 C 
HETATM    8  N   UNL     1       7.067  29.516  58.513  1.00  0.00    -0.281 N 
HETATM    9  H   UNL     1       7.744  28.999  59.063  1.00  0.00     0.184 HD
HETATM   10  O   UNL     1       5.914  29.677  56.539  1.00  0.00    -0.265 OA
BRANCH   8  11
HETATM   11  N   UNL     1       7.159  30.920  58.615  1.00  0.00    -0.203 NA
HETATM   12  H   UNL     1       6.240  31.339  58.415  1.00  0.00     0.153 HD
BRANCH  11  13
HETATM   13  C   UNL     1       7.586  31.363  59.894  1.00  0.00     0.027 A 
HETATM   14  C   UNL     1       8.787  30.846  60.398  1.00  0.00     0.025 A 
HETATM   15  C   UNL     1       9.295  31.275  61.626  1.00  0.00     0.002 A 
HETATM   16  C   UNL     1       8.620  32.251  62.355  1.00  0.00     0.000 A 
HETATM   17  C   UNL     1       7.444  32.802  61.851  1.00  0.00     0.002 A 
HETATM   18  C   UNL     1       6.936  32.369  60.623  1.00  0.00     0.025 A 
ENDBRANCH  11  13
ENDBRANCH   8  11
ENDBRANCH   1   7
BRANCH   5  19
HETATM   19  C   UNL     1       8.353  24.257  57.020  1.00  0.00     0.195 C 
HETATM   20  O   UNL     1       9.224  24.114  57.871  1.00  0.00    -0.287 OA
BRANCH  19  21
HETATM   21  C   UNL     1       8.267  23.271  55.927  1.00  0.00     0.037 A 
HETATM   22  C   UNL     1       8.229  21.898  56.188  1.00  0.00     0.049 A 
HETATM   23 CL   UNL     1       8.162  21.263  57.791  1.00  0.00    -0.083 Cl
HETATM   24  C   UNL     1       8.211  20.991  55.124  1.00  0.00     0.048 A 
HETATM   25  C   UNL     1       8.234  21.462  53.812  1.00  0.00     0.035 A 
HETATM   26 CL   UNL     1       8.216  20.343  52.505  1.00  0.00    -0.084 Cl
HETATM   27  C   UNL     1       8.274  22.830  53.546  1.00  0.00     0.025 A 
HETATM   28  C   UNL     1       8.296  23.740  54.604  1.00  0.00     0.019 A 
ENDBRANCH  19  21
ENDBRANCH   5  19
TORSDOF 5
ENDMDL
MODEL 7
REMARK VINA RESULT:      -9.0      3.506      9.174
REMARK  5 active torsions:
REMARK  status: ('A' for Active; 'I' for Inactive)
REMARK    1  A    between atoms: C_4  and  N_5 
REMARK    2  A    between atoms: N_5  and  N_6 
REMARK       I    between atoms: N_6  and  C_7 
REMARK    3  A    between atoms: C_7  and  C_8 
REMARK    4  A    between atoms: C_12  and  C_13 
REMARK    5  A    between atoms: C_13  and  C_14 
ROOT
HETATM    1  C   UNL     1       7.145  28.891  57.475  1.00  0.00     0.102 A 
HETATM    2  N   UNL     1       5.789  29.039  57.670  1.00  0.00    -0.360 N 
HETATM    3  H   UNL     1       5.389  29.521  58.467  1.00  0.00     0.165 HD
HETATM    4  C   UNL     1       5.093  28.462  56.641  1.00  0.00     0.104 A 
HETATM    5  C   UNL     1       6.001  27.905  55.757  1.00  0.00     0.033 A 
HETATM    6  C   UNL     1       7.293  28.161  56.308  1.00  0.00     0.052 A 
ENDROOT
BRANCH   1   7
HETATM    7  C   UNL     1       8.111  29.443  58.400  1.00  0.00     0.282 C 
HETATM    8  N   UNL     1       7.575  30.206  59.424  1.00  0.00    -0.281 N 
HETATM    9  H   UNL     1       6.585  30.184  59.639  1.00  0.00     0.184 HD
HETATM   10  O   UNL     1       9.319  29.236  58.297  1.00  0.00    -0.265 OA
BRANCH   8  11
HETATM   11  N   UNL     1       8.416  30.546  60.504  1.00  0.00    -0.203 NA
HETATM   12  H   UNL     1       9.305  30.923  60.142  1.00  0.00     0.153 HD
BRANCH  11  13
HETATM   13  C   UNL     1       7.845  31.508  61.379  1.00  0.00     0.027 A 
HETATM   14  C   UNL     1       8.433  31.675  62.640  1.00  0.00     0.025 A 
HETATM   15  C   UNL     1       7.957  32.637  63.533  1.00  0.00     0.002 A 
HETATM   16  C   UNL     1       6.902  33.466  63.163  1.00  0.00     0.000 A 
HETATM   17  C   UNL     1       6.330  33.339  61.899  1.00  0.00     0.002 A 
HETATM   18  C   UNL     1       6.806  32.372  61.008  1.00  0.00     0.025 A 
ENDBRANCH  11  13
ENDBRANCH   8  11
ENDBRANCH   1   7
BRANCH   5  19
HETATM   19  C   UNL     1       5.731  27.189  54.513  1.00  0.00     0.195 C 
HETATM   20  O   UNL     1       4.897  27.574  53.700  1.00  0.00    -0.287 OA
BRANCH  19  21
HETATM   21  C   UNL     1       6.425  25.913  54.259  1.00  0.00     0.037 A 
HETATM   22  C   UNL     1       6.363  24.857  55.175  1.00  0.00     0.049 A 
HETATM   23 CL   UNL     1       5.390  24.923  56.597  1.00  0.00    -0.083 Cl
HETATM   24  C   UNL     1       7.085  23.686  54.929  1.00  0.00     0.048 A 
HETATM   25  C   UNL     1       7.863  23.579  53.777  1.00  0.00     0.035 A 
HETATM   26 CL   UNL     1       8.754  22.137  53.479  1.00  0.00    -0.084 Cl
HETATM   27  C   UNL     1       7.929  24.630  52.862  1.00  0.00     0.025 A 
HETATM   28  C   UNL     1       7.213  25.803  53.103  1.00  0.00     0.019 A 
ENDBRANCH  19  21
ENDBRANCH   5  19
TORSDOF 5
ENDMDL
MODEL 8
REMARK VINA RESULT:      -8.9      1.668      2.308
REMARK  5 active torsions:
REMARK  status: ('A' for Active; 'I' for Inactive)
REMARK    1  A    between atoms: C_4  and  N_5 
REMARK    2  A    between atoms: N_5  and  N_6 
REMARK       I    between atoms: N_6  and  C_7 
REMARK    3  A    between atoms: C_7  and  C_8 
REMARK    4  A    between atoms: C_12  and  C_13 
REMARK    5  A    between atoms: C_13  and  C_14 
ROOT
HETATM    1  C   UNL     1       7.627  27.909  55.897  1.00  0.00     0.102 A 
HETATM    2  N   UNL     1       7.082  27.582  57.119  1.00  0.00    -0.360 N 
HETATM    3  H   UNL     1       6.450  26.802  57.259  1.00  0.00     0.165 HD
HETATM    4  C   UNL     1       7.530  28.443  58.087  1.00  0.00     0.104 A 
HETATM    5  C   UNL     1       8.370  29.368  57.494  1.00  0.00     0.033 A 
HETATM    6  C   UNL     1       8.405  29.036  56.106  1.00  0.00     0.052 A 
ENDROOT
BRANCH   1   7
HETATM    7  C   UNL     1       7.347  27.134  54.708  1.00  0.00     0.282 C 
HETATM    8  N   UNL     1       7.560  25.772  54.830  1.00  0.00    -0.281 N 
HETATM    9  H   UNL     1       7.677  25.333  55.736  1.00  0.00     0.184 HD
HETATM   10  O   UNL     1       6.930  27.644  53.669  1.00  0.00    -0.265 OA
BRANCH   8  11
HETATM   11  N   UNL     1       7.058  24.931  53.816  1.00  0.00    -0.203 NA
HETATM   12  H   UNL     1       7.473  25.197  52.911  1.00  0.00     0.153 HD
BRANCH  11  13
HETATM   13  C   UNL     1       7.325  23.555  54.044  1.00  0.00     0.027 A 
HETATM   14  C   UNL     1       7.683  22.767  52.942  1.00  0.00     0.025 A 
HETATM   15  C   UNL     1       8.010  21.418  53.099  1.00  0.00     0.002 A 
HETATM   16  C   UNL     1       8.010  20.846  54.368  1.00  0.00     0.000 A 
HETATM   17  C   UNL     1       7.693  21.625  55.479  1.00  0.00     0.002 A 
HETATM   18  C   UNL     1       7.363  22.974  55.319  1.00  0.00     0.025 A 
ENDBRANCH  11  13
ENDBRANCH   8  11
ENDBRANCH   1   7
BRANCH   5  19
HETATM   19  C   UNL     1       9.086  30.475  58.124  1.00  0.00     0.195 C 
HETATM   20  O   UNL     1      10.088  30.978  57.626  1.00  0.00    -0.287 OA
BRANCH  19  21
HETATM   21  C   UNL     1       8.641  30.954  59.445  1.00  0.00     0.037 A 
HETATM   22  C   UNL     1       7.457  31.685  59.592  1.00  0.00     0.049 A 
HETATM   23 CL   UNL     1       6.383  31.979  58.274  1.00  0.00    -0.083 Cl
HETATM   24  C   UNL     1       7.098  32.176  60.851  1.00  0.00     0.048 A 
HETATM   25  C   UNL     1       7.924  31.936  61.949  1.00  0.00     0.035 A 
HETATM   26 CL   UNL     1       7.482  32.544  63.496  1.00  0.00    -0.084 Cl
HETATM   27  C   UNL     1       9.106  31.209  61.807  1.00  0.00     0.025 A 
HETATM   28  C   UNL     1       9.470  30.720  60.553  1.00  0.00     0.019 A 
ENDBRANCH  19  21
ENDBRANCH   5  19
TORSDOF 5
ENDMDL
MODEL 9
REMARK VINA RESULT:      -8.7      4.099      8.896
REMARK  5 active torsions:
REMARK  status: ('A' for Active; 'I' for Inactive)
REMARK    1  A    between atoms: C_4  and  N_5 
REMARK    2  A    between atoms: N_5  and  N_6 
REMARK       I    between atoms: N_6  and  C_7 
REMARK    3  A    between atoms: C_7  and  C_8 
REMARK    4  A    between atoms: C_12  and  C_13 
REMARK    5  A    between atoms: C_13  and  C_14 
ROOT
HETATM    1  C   UNL     1       5.937  29.319  57.254  1.00  0.00     0.102 A 
HETATM    2  N   UNL     1       4.976  28.339  57.373  1.00  0.00    -0.360 N 
HETATM    3  H   UNL     1       4.141  28.441  57.937  1.00  0.00     0.165 HD
HETATM    4  C   UNL     1       5.313  27.247  56.617  1.00  0.00     0.104 A 
HETATM    5  C   UNL     1       6.526  27.498  56.001  1.00  0.00     0.033 A 
HETATM    6  C   UNL     1       6.922  28.801  56.430  1.00  0.00     0.052 A 
ENDROOT
BRANCH   1   7
HETATM    7  C   UNL     1       5.808  30.596  57.923  1.00  0.00     0.282 C 
HETATM    8  N   UNL     1       6.809  30.887  58.833  1.00  0.00    -0.281 N 
HETATM    9  H   UNL     1       7.675  30.359  58.855  1.00  0.00     0.184 HD
HETATM   10  O   UNL     1       4.886  31.376  57.687  1.00  0.00    -0.265 OA
BRANCH   8  11
HETATM   11  N   UNL     1       6.899  32.209  59.316  1.00  0.00    -0.203 NA
HETATM   12  H   UNL     1       6.011  32.700  59.140  1.00  0.00     0.153 HD
BRANCH  11  13
HETATM   13  C   UNL     1       7.183  32.280  60.706  1.00  0.00     0.027 A 
HETATM   14  C   UNL     1       8.098  31.360  61.235  1.00  0.00     0.025 A 
HETATM   15  C   UNL     1       8.465  31.404  62.582  1.00  0.00     0.002 A 
HETATM   16  C   UNL     1       7.939  32.390  63.412  1.00  0.00     0.000 A 
HETATM   17  C   UNL     1       7.056  33.335  62.894  1.00  0.00     0.002 A 
HETATM   18  C   UNL     1       6.689  33.287  61.547  1.00  0.00     0.025 A 
ENDBRANCH  11  13
ENDBRANCH   8  11
ENDBRANCH   1   7
BRANCH   5  19
HETATM   19  C   UNL     1       7.280  26.632  55.098  1.00  0.00     0.195 C 
HETATM   20  O   UNL     1       7.605  26.983  53.969  1.00  0.00    -0.287 OA
BRANCH  19  21
HETATM   21  C   UNL     1       7.593  25.256  55.526  1.00  0.00     0.037 A 
HETATM   22  C   UNL     1       7.078  24.148  54.845  1.00  0.00     0.049 A 
HETATM   23 CL   UNL     1       6.142  24.302  53.404  1.00  0.00    -0.083 Cl
HETATM   24  C   UNL     1       7.346  22.860  55.317  1.00  0.00     0.048 A 
HETATM   25  C   UNL     1       8.122  22.689  56.463  1.00  0.00     0.035 A 
HETATM   26 CL   UNL     1       8.448  21.102  57.043  1.00  0.00    -0.084 Cl
HETATM   27  C   UNL     1       8.637  23.791  57.146  1.00  0.00     0.025 A 
HETATM   28  C   UNL     1       8.370  25.079  56.681  1.00  0.00     0.019 A 
ENDBRANCH  19  21
ENDBRANCH   5  19
TORSDOF 5
ENDMDL
MODEL 10
REMARK VINA RESULT:      -8.7      3.357      9.268
REMARK  5 active torsions:
REMARK  status: ('A' for Active; 'I' for Inactive)
REMARK    1  A    between atoms: C_4  and  N_5 
REMARK    2  A    between atoms: N_5  and  N_6 
REMARK       I    between atoms: N_6  and  C_7 
REMARK    3  A    between atoms: C_7  and  C_8 
REMARK    4  A    between atoms: C_12  and  C_13 
REMARK    5  A    between atoms: C_13  and  C_14 
ROOT
HETATM    1  C   UNL     1       8.359  30.307  58.529  1.00  0.00     0.102 A 
HETATM    2  N   UNL     1       9.333  29.673  57.790  1.00  0.00    -0.360 N 
HETATM    3  H   UNL     1      10.316  29.916  57.835  1.00  0.00     0.165 HD
HETATM    4  C   UNL     1       8.780  28.682  57.021  1.00  0.00     0.104 A 
HETATM    5  C   UNL     1       7.414  28.671  57.239  1.00  0.00     0.033 A 
HETATM    6  C   UNL     1       7.157  29.718  58.176  1.00  0.00     0.052 A 
ENDROOT
BRANCH   1   7
HETATM    7  C   UNL     1       8.680  31.371  59.457  1.00  0.00     0.282 C 
HETATM    8  N   UNL     1       8.122  31.240  60.717  1.00  0.00    -0.281 N 
HETATM    9  H   UNL     1       7.719  30.364  61.030  1.00  0.00     0.184 HD
HETATM   10  O   UNL     1       9.410  32.313  59.155  1.00  0.00    -0.265 OA
BRANCH   8  11
HETATM   11  N   UNL     1       8.601  32.081  61.742  1.00  0.00    -0.203 NA
HETATM   12  H   UNL     1       8.955  32.957  61.330  1.00  0.00     0.153 HD
BRANCH  11  13
HETATM   13  C   UNL     1       7.614  32.407  62.709  1.00  0.00     0.027 A 
HETATM   14  C   UNL     1       8.039  33.009  63.901  1.00  0.00     0.025 A 
HETATM   15  C   UNL     1       7.120  33.403  64.875  1.00  0.00     0.002 A 
HETATM   16  C   UNL     1       5.757  33.226  64.656  1.00  0.00     0.000 A 
HETATM   17  C   UNL     1       5.314  32.663  63.460  1.00  0.00     0.002 A 
HETATM   18  C   UNL     1       6.237  32.266  62.488  1.00  0.00     0.025 A 
ENDBRANCH  11  13
ENDBRANCH   8  11
ENDBRANCH   1   7
BRANCH   5  19
HETATM   19  C   UNL     1       6.410  27.791  56.647  1.00  0.00     0.195 C 
HETATM   20  O   UNL     1       5.288  27.660  57.123  1.00  0.00    -0.287 OA
BRANCH  19  21
HETATM   21  C   UNL     1       6.781  26.968  55.482  1.00  0.00     0.037 A 
HETATM   22  C   UNL     1       7.254  25.661  55.636  1.00  0.00     0.049 A 
HETATM   23 CL   UNL     1       7.331  24.881  57.173  1.00  0.00    -0.083 Cl
HETATM   24  C   UNL     1       7.655  24.932  54.512  1.00  0.00     0.048 A 
HETATM   25  C   UNL     1       7.583  25.514  53.247  1.00  0.00     0.035 A 
HETATM   26 CL   UNL     1       8.080  24.616  51.866  1.00  0.00    -0.084 Cl
HETATM   27  C   UNL     1       7.112  26.818  53.088  1.00  0.00     0.025 A 
HETATM   28  C   UNL     1       6.714  27.550  54.206  1.00  0.00     0.019 A 
ENDBRANCH  19  21
ENDBRANCH   5  19
TORSDOF 5
ENDMDL
