MODEL 1
REMARK VINA RESULT:      -9.8      0.000      0.000
REMARK  3 active torsions:
REMARK  status: ('A' for Active; 'I' for Inactive)
REMARK    1  A    between atoms: C_6  and  N_7 
REMARK       I    between atoms: N_7  and  C_8 
REMARK    2  A    between atoms: C_8  and  C_9 
REMARK    3  A    between atoms: C_9  and  C_10 
ROOT
HETATM    1  C   UNL     1       7.389  24.910  52.230  1.00  0.00     0.165 C 
ENDROOT
BRANCH   1   2
HETATM    2  C   UNL     1       6.010  25.368  51.790  1.00  0.00     0.227 C 
HETATM    3  N   UNL     1       5.967  26.300  50.780  1.00  0.00    -0.327 N 
HETATM    4  H   UNL     1       6.865  26.716  50.530  1.00  0.00     0.169 HD
HETATM    5  O   UNL     1       5.028  24.847  52.318  1.00  0.00    -0.273 OA
BRANCH   3   6
HETATM    6  C   UNL     1       4.838  26.815  50.113  1.00  0.00     0.036 A 
HETATM    7  C   UNL     1       4.254  26.229  48.990  1.00  0.00     0.053 A 
HETATM    8  C   UNL     1       3.141  26.820  48.379  1.00  0.00     0.042 A 
HETATM    9  C   UNL     1       2.589  28.009  48.880  1.00  0.00    -0.040 A 
HETATM   10 CL   UNL     1       2.478  26.042  46.984  1.00  0.00    -0.084 Cl
HETATM   11  C   UNL     1       1.403  28.671  48.237  1.00  0.00     0.050 C 
HETATM   12  C   UNL     1       3.182  28.595  50.005  1.00  0.00     0.011 A 
HETATM   13  C   UNL     1       4.294  28.003  50.613  1.00  0.00     0.030 A 
ENDBRANCH   3   6
ENDBRANCH   1   2
BRANCH   1  14
HETATM   14  C   UNL     1       7.658  24.446  53.649  1.00  0.00     0.074 A 
HETATM   15  N   UNL     1       7.685  25.317  54.615  1.00  0.00    -0.175 NA
HETATM   16  N   UNL     1       7.928  24.881  55.880  1.00  0.00    -0.243 N 
HETATM   17  C   UNL     1       8.156  23.581  56.260  1.00  0.00     0.272 A 
HETATM   18  H   UNL     1       7.928  25.577  56.619  1.00  0.00     0.192 HD
HETATM   19  O   UNL     1       8.370  23.269  57.426  1.00  0.00    -0.266 OA
HETATM   20  C   UNL     1       8.132  22.579  55.185  1.00  0.00     0.046 A 
HETATM   21  C   UNL     1       7.879  22.991  53.879  1.00  0.00     0.006 A 
HETATM   22  C   UNL     1       8.357  21.228  55.477  1.00  0.00     0.018 A 
HETATM   23  C   UNL     1       7.845  22.038  52.853  1.00  0.00     0.014 A 
HETATM   24  C   UNL     1       8.070  20.689  53.142  1.00  0.00     0.001 A 
HETATM   25  C   UNL     1       8.327  20.284  54.453  1.00  0.00     0.001 A 
ENDBRANCH   1  14
TORSDOF 3
ENDMDL
MODEL 2
REMARK VINA RESULT:      -9.7      5.275      6.894
REMARK  3 active torsions:
REMARK  status: ('A' for Active; 'I' for Inactive)
REMARK    1  A    between atoms: C_6  and  N_7 
REMARK       I    between atoms: N_7  and  C_8 
REMARK    2  A    between atoms: C_8  and  C_9 
REMARK    3  A    between atoms: C_9  and  C_10 
ROOT
HETATM    1  C   UNL     1       7.159  25.431  54.567  1.00  0.00     0.165 C 
ENDROOT
BRANCH   1   2
HETATM    2  C   UNL     1       7.563  26.831  54.994  1.00  0.00     0.227 C 
HETATM    3  N   UNL     1       7.709  27.042  56.345  1.00  0.00    -0.327 N 
HETATM    4  H   UNL     1       7.377  26.285  56.944  1.00  0.00     0.169 HD
HETATM    5  O   UNL     1       7.784  27.666  54.117  1.00  0.00    -0.273 OA
BRANCH   3   6
HETATM    6  C   UNL     1       8.171  28.198  57.004  1.00  0.00     0.036 A 
HETATM    7  C   UNL     1       9.481  28.672  56.932  1.00  0.00     0.053 A 
HETATM    8  C   UNL     1       9.858  29.822  57.636  1.00  0.00     0.042 A 
HETATM    9  C   UNL     1       8.933  30.522  58.426  1.00  0.00    -0.040 A 
HETATM   10 CL   UNL     1      11.502  30.345  57.507  1.00  0.00    -0.084 Cl
HETATM   11  C   UNL     1       9.315  31.751  59.201  1.00  0.00     0.050 C 
HETATM   12  C   UNL     1       7.621  30.038  58.498  1.00  0.00     0.011 A 
HETATM   13  C   UNL     1       7.247  28.889  57.795  1.00  0.00     0.030 A 
ENDBRANCH   3   6
ENDBRANCH   1   2
BRANCH   1  14
HETATM   14  C   UNL     1       7.552  24.209  55.376  1.00  0.00     0.074 A 
HETATM   15  N   UNL     1       7.688  24.310  56.666  1.00  0.00    -0.175 NA
HETATM   16  N   UNL     1       8.041  23.204  57.373  1.00  0.00    -0.243 N 
HETATM   17  C   UNL     1       8.279  21.953  56.857  1.00  0.00     0.272 A 
HETATM   18  H   UNL     1       8.124  23.303  58.380  1.00  0.00     0.192 HD
HETATM   19  O   UNL     1       8.597  21.004  57.564  1.00  0.00    -0.266 OA
HETATM   20  C   UNL     1       8.134  21.815  55.400  1.00  0.00     0.046 A 
HETATM   21  C   UNL     1       7.766  22.928  54.647  1.00  0.00     0.006 A 
HETATM   22  C   UNL     1       8.360  20.578  54.785  1.00  0.00     0.018 A 
HETATM   23  C   UNL     1       7.617  22.799  53.261  1.00  0.00     0.014 A 
HETATM   24  C   UNL     1       7.842  21.565  52.644  1.00  0.00     0.001 A 
HETATM   25  C   UNL     1       8.214  20.456  53.404  1.00  0.00     0.001 A 
ENDBRANCH   1  14
TORSDOF 3
ENDMDL
MODEL 3
REMARK VINA RESULT:      -9.6      1.073      1.466
REMARK  3 active torsions:
REMARK  status: ('A' for Active; 'I' for Inactive)
REMARK    1  A    between atoms: C_6  and  N_7 
REMARK       I    between atoms: N_7  and  C_8 
REMARK    2  A    between atoms: C_8  and  C_9 
REMARK    3  A    between atoms: C_9  and  C_10 
ROOT
HETATM    1  C   UNL     1       7.343  24.889  52.186  1.00  0.00     0.165 C 
ENDROOT
BRANCH   1   2
HETATM    2  C   UNL     1       5.968  25.377  51.765  1.00  0.00     0.227 C 
HETATM    3  N   UNL     1       5.928  26.271  50.721  1.00  0.00    -0.327 N 
HETATM    4  H   UNL     1       6.832  26.647  50.433  1.00  0.00     0.169 HD
HETATM    5  O   UNL     1       4.985  24.908  52.337  1.00  0.00    -0.273 OA
BRANCH   3   6
HETATM    6  C   UNL     1       4.798  26.798  50.065  1.00  0.00     0.036 A 
HETATM    7  C   UNL     1       4.176  27.996  50.413  1.00  0.00     0.053 A 
HETATM    8  C   UNL     1       3.044  28.437  49.716  1.00  0.00     0.042 A 
HETATM    9  C   UNL     1       2.513  27.688  48.655  1.00  0.00    -0.040 A 
HETATM   10 CL   UNL     1       2.319  29.927  50.212  1.00  0.00    -0.084 Cl
HETATM   11  C   UNL     1       1.293  28.131  47.898  1.00  0.00     0.050 C 
HETATM   12  C   UNL     1       3.140  26.483  48.313  1.00  0.00     0.011 A 
HETATM   13  C   UNL     1       4.269  26.045  49.011  1.00  0.00     0.030 A 
ENDBRANCH   3   6
ENDBRANCH   1   2
BRANCH   1  14
HETATM   14  C   UNL     1       7.628  24.446  53.609  1.00  0.00     0.074 A 
HETATM   15  N   UNL     1       7.660  25.331  54.563  1.00  0.00    -0.175 NA
HETATM   16  N   UNL     1       7.917  24.913  55.830  1.00  0.00    -0.243 N 
HETATM   17  C   UNL     1       8.157  23.620  56.226  1.00  0.00     0.272 A 
HETATM   18  H   UNL     1       7.920  25.620  56.561  1.00  0.00     0.192 HD
HETATM   19  O   UNL     1       8.385  23.325  57.394  1.00  0.00    -0.266 OA
HETATM   20  C   UNL     1       8.129  22.603  55.165  1.00  0.00     0.046 A 
HETATM   21  C   UNL     1       7.860  22.996  53.856  1.00  0.00     0.006 A 
HETATM   22  C   UNL     1       8.365  21.257  55.473  1.00  0.00     0.018 A 
HETATM   23  C   UNL     1       7.823  22.029  52.844  1.00  0.00     0.014 A 
HETATM   24  C   UNL     1       8.059  20.685  53.149  1.00  0.00     0.001 A 
HETATM   25  C   UNL     1       8.331  20.300  54.462  1.00  0.00     0.001 A 
ENDBRANCH   1  14
TORSDOF 3
ENDMDL
MODEL 4
REMARK VINA RESULT:      -9.5      5.456      7.858
REMARK  3 active torsions:
REMARK  status: ('A' for Active; 'I' for Inactive)
REMARK    1  A    between atoms: C_6  and  N_7 
REMARK       I    between atoms: N_7  and  C_8 
REMARK    2  A    between atoms: C_8  and  C_9 
REMARK    3  A    between atoms: C_9  and  C_10 
ROOT
HETATM    1  C   UNL     1       6.651  28.465  55.057  1.00  0.00     0.165 C 
ENDROOT
BRANCH   1   2
HETATM    2  C   UNL     1       6.494  26.955  55.028  1.00  0.00     0.227 C 
HETATM    3  N   UNL     1       7.463  26.251  54.353  1.00  0.00    -0.327 N 
HETATM    4  H   UNL     1       8.108  26.816  53.799  1.00  0.00     0.169 HD
HETATM    5  O   UNL     1       5.555  26.456  55.646  1.00  0.00    -0.273 OA
BRANCH   3   6
HETATM    6  C   UNL     1       7.623  24.855  54.258  1.00  0.00     0.036 A 
HETATM    7  C   UNL     1       7.871  24.017  55.346  1.00  0.00     0.053 A 
HETATM    8  C   UNL     1       8.033  22.639  55.156  1.00  0.00     0.042 A 
HETATM    9  C   UNL     1       7.951  22.071  53.876  1.00  0.00    -0.040 A 
HETATM   10 CL   UNL     1       8.349  21.664  56.550  1.00  0.00    -0.084 Cl
HETATM   11  C   UNL     1       8.134  20.598  53.643  1.00  0.00     0.050 C 
HETATM   12  C   UNL     1       7.706  22.918  52.788  1.00  0.00     0.011 A 
HETATM   13  C   UNL     1       7.545  24.293  52.979  1.00  0.00     0.030 A 
ENDBRANCH   3   6
ENDBRANCH   1   2
BRANCH   1  14
HETATM   14  C   UNL     1       6.865  29.217  56.357  1.00  0.00     0.074 A 
HETATM   15  N   UNL     1       5.841  29.513  57.104  1.00  0.00    -0.175 NA
HETATM   16  N   UNL     1       6.055  30.188  58.265  1.00  0.00    -0.243 N 
HETATM   17  C   UNL     1       7.270  30.606  58.749  1.00  0.00     0.272 A 
HETATM   18  H   UNL     1       5.242  30.393  58.839  1.00  0.00     0.192 HD
HETATM   19  O   UNL     1       7.378  31.213  59.808  1.00  0.00    -0.266 OA
HETATM   20  C   UNL     1       8.442  30.284  57.921  1.00  0.00     0.046 A 
HETATM   21  C   UNL     1       8.259  29.587  56.728  1.00  0.00     0.006 A 
HETATM   22  C   UNL     1       9.723  30.674  58.332  1.00  0.00     0.018 A 
HETATM   23  C   UNL     1       9.374  29.271  55.941  1.00  0.00     0.014 A 
HETATM   24  C   UNL     1      10.653  29.659  56.350  1.00  0.00     0.001 A 
HETATM   25  C   UNL     1      10.827  30.360  57.543  1.00  0.00     0.001 A 
ENDBRANCH   1  14
TORSDOF 3
ENDMDL
MODEL 5
REMARK VINA RESULT:      -9.2     11.286     13.654
REMARK  3 active torsions:
REMARK  status: ('A' for Active; 'I' for Inactive)
REMARK    1  A    between atoms: C_6  and  N_7 
REMARK       I    between atoms: N_7  and  C_8 
REMARK    2  A    between atoms: C_8  and  C_9 
REMARK    3  A    between atoms: C_9  and  C_10 
ROOT
HETATM    1  C   UNL     1       8.002  32.444  63.347  1.00  0.00     0.165 C 
ENDROOT
BRANCH   1   2
HETATM    2  C   UNL     1       8.459  31.484  62.263  1.00  0.00     0.227 C 
HETATM    3  N   UNL     1       8.345  31.924  60.966  1.00  0.00    -0.327 N 
HETATM    4  H   UNL     1       7.815  32.788  60.842  1.00  0.00     0.169 HD
HETATM    5  O   UNL     1       8.948  30.409  62.608  1.00  0.00    -0.273 OA
BRANCH   3   6
HETATM    6  C   UNL     1       8.784  31.292  59.786  1.00  0.00     0.036 A 
HETATM    7  C   UNL     1       8.186  30.160  59.233  1.00  0.00     0.053 A 
HETATM    8  C   UNL     1       8.700  29.585  58.064  1.00  0.00     0.042 A 
HETATM    9  C   UNL     1       9.823  30.132  57.424  1.00  0.00    -0.040 A 
HETATM   10 CL   UNL     1       7.913  28.176  57.442  1.00  0.00    -0.084 Cl
HETATM   11  C   UNL     1      10.403  29.529  56.176  1.00  0.00     0.050 C 
HETATM   12  C   UNL     1      10.422  31.266  57.987  1.00  0.00     0.011 A 
HETATM   13  C   UNL     1       9.907  31.838  59.155  1.00  0.00     0.030 A 
ENDBRANCH   3   6
ENDBRANCH   1   2
BRANCH   1  14
HETATM   14  C   UNL     1       6.545  32.839  63.496  1.00  0.00     0.074 A 
HETATM   15  N   UNL     1       5.718  32.624  62.515  1.00  0.00    -0.175 NA
HETATM   16  N   UNL     1       4.416  32.985  62.669  1.00  0.00    -0.243 N 
HETATM   17  C   UNL     1       3.863  33.573  63.780  1.00  0.00     0.272 A 
HETATM   18  H   UNL     1       3.786  32.791  61.896  1.00  0.00     0.192 HD
HETATM   19  O   UNL     1       2.676  33.871  63.839  1.00  0.00    -0.266 OA
HETATM   20  C   UNL     1       4.779  33.828  64.901  1.00  0.00     0.046 A 
HETATM   21  C   UNL     1       6.118  33.463  64.779  1.00  0.00     0.006 A 
HETATM   22  C   UNL     1       4.305  34.426  66.075  1.00  0.00     0.018 A 
HETATM   23  C   UNL     1       6.992  33.695  65.849  1.00  0.00     0.014 A 
HETATM   24  C   UNL     1       6.521  34.293  67.022  1.00  0.00     0.001 A 
HETATM   25  C   UNL     1       5.180  34.659  67.134  1.00  0.00     0.001 A 
ENDBRANCH   1  14
TORSDOF 3
ENDMDL
MODEL 6
REMARK VINA RESULT:      -8.9      2.935      8.216
REMARK  3 active torsions:
REMARK  status: ('A' for Active; 'I' for Inactive)
REMARK    1  A    between atoms: C_6  and  N_7 
REMARK       I    between atoms: N_7  and  C_8 
REMARK    2  A    between atoms: C_8  and  C_9 
REMARK    3  A    between atoms: C_9  and  C_10 
ROOT
HETATM    1  C   UNL     1       5.732  27.146  51.918  1.00  0.00     0.165 C 
ENDROOT
BRANCH   1   2
HETATM    2  C   UNL     1       5.755  25.749  52.512  1.00  0.00     0.227 C 
HETATM    3  N   UNL     1       6.989  25.250  52.858  1.00  0.00    -0.327 N 
HETATM    4  H   UNL     1       7.788  25.797  52.536  1.00  0.00     0.169 HD
HETATM    5  O   UNL     1       4.681  25.178  52.696  1.00  0.00    -0.273 OA
BRANCH   3   6
HETATM    6  C   UNL     1       7.289  24.042  53.517  1.00  0.00     0.036 A 
HETATM    7  C   UNL     1       7.686  22.872  52.869  1.00  0.00     0.053 A 
HETATM    8  C   UNL     1       7.949  21.708  53.604  1.00  0.00     0.042 A 
HETATM    9  C   UNL     1       7.821  21.693  55.001  1.00  0.00    -0.040 A 
HETATM   10 CL   UNL     1       8.425  20.293  52.731  1.00  0.00    -0.084 Cl
HETATM   11  C   UNL     1       8.085  20.455  55.812  1.00  0.00     0.050 C 
HETATM   12  C   UNL     1       7.419  22.869  55.645  1.00  0.00     0.011 A 
HETATM   13  C   UNL     1       7.156  24.029  54.910  1.00  0.00     0.030 A 
ENDBRANCH   3   6
ENDBRANCH   1   2
BRANCH   1  14
HETATM   14  C   UNL     1       4.442  27.787  51.444  1.00  0.00     0.074 A 
HETATM   15  N   UNL     1       3.689  28.421  52.296  1.00  0.00    -0.175 NA
HETATM   16  N   UNL     1       2.536  28.988  51.852  1.00  0.00    -0.243 N 
HETATM   17  C   UNL     1       2.063  28.962  50.562  1.00  0.00     0.272 A 
HETATM   18  H   UNL     1       1.974  29.492  52.531  1.00  0.00     0.192 HD
HETATM   19  O   UNL     1       1.009  29.498  50.241  1.00  0.00    -0.266 OA
HETATM   20  C   UNL     1       2.896  28.250  49.582  1.00  0.00     0.046 A 
HETATM   21  C   UNL     1       4.088  27.663  50.003  1.00  0.00     0.006 A 
HETATM   22  C   UNL     1       2.493  28.168  48.243  1.00  0.00     0.018 A 
HETATM   23  C   UNL     1       4.888  26.992  49.070  1.00  0.00     0.014 A 
HETATM   24  C   UNL     1       4.488  26.909  47.733  1.00  0.00     0.001 A 
HETATM   25  C   UNL     1       3.291  27.496  47.320  1.00  0.00     0.001 A 
ENDBRANCH   1  14
TORSDOF 3
ENDMDL
MODEL 7
REMARK VINA RESULT:      -8.9      5.451      8.506
REMARK  3 active torsions:
REMARK  status: ('A' for Active; 'I' for Inactive)
REMARK    1  A    between atoms: C_6  and  N_7 
REMARK       I    between atoms: N_7  and  C_8 
REMARK    2  A    between atoms: C_8  and  C_9 
REMARK    3  A    between atoms: C_9  and  C_10 
ROOT
HETATM    1  C   UNL     1       7.630  27.471  57.541  1.00  0.00     0.165 C 
ENDROOT
BRANCH   1   2
HETATM    2  C   UNL     1       7.874  26.028  57.140  1.00  0.00     0.227 C 
HETATM    3  N   UNL     1       7.391  25.643  55.912  1.00  0.00    -0.327 N 
HETATM    4  H   UNL     1       6.774  26.315  55.455  1.00  0.00     0.169 HD
HETATM    5  O   UNL     1       8.527  25.315  57.902  1.00  0.00    -0.273 OA
BRANCH   3   6
HETATM    6  C   UNL     1       7.565  24.410  55.251  1.00  0.00     0.036 A 
HETATM    7  C   UNL     1       7.458  23.165  55.871  1.00  0.00     0.053 A 
HETATM    8  C   UNL     1       7.664  21.989  55.140  1.00  0.00     0.042 A 
HETATM    9  C   UNL     1       7.980  22.034  53.773  1.00  0.00    -0.040 A 
HETATM   10 CL   UNL     1       7.526  20.482  55.978  1.00  0.00    -0.084 Cl
HETATM   11  C   UNL     1       8.218  20.788  52.968  1.00  0.00     0.050 C 
HETATM   12  C   UNL     1       8.090  23.287  53.158  1.00  0.00     0.011 A 
HETATM   13  C   UNL     1       7.885  24.461  53.890  1.00  0.00     0.030 A 
ENDBRANCH   3   6
ENDBRANCH   1   2
BRANCH   1  14
HETATM   14  C   UNL     1       6.311  28.164  57.256  1.00  0.00     0.074 A 
HETATM   15  N   UNL     1       5.357  27.507  56.661  1.00  0.00    -0.175 NA
HETATM   16  N   UNL     1       4.183  28.146  56.414  1.00  0.00    -0.243 N 
HETATM   17  C   UNL     1       3.885  29.449  56.730  1.00  0.00     0.272 A 
HETATM   18  H   UNL     1       3.447  27.608  55.964  1.00  0.00     0.192 HD
HETATM   19  O   UNL     1       2.799  29.953  56.470  1.00  0.00    -0.266 OA
HETATM   20  C   UNL     1       4.949  30.211  57.400  1.00  0.00     0.046 A 
HETATM   21  C   UNL     1       6.162  29.584  57.676  1.00  0.00     0.006 A 
HETATM   22  C   UNL     1       4.737  31.549  57.758  1.00  0.00     0.018 A 
HETATM   23  C   UNL     1       7.174  30.305  58.323  1.00  0.00     0.014 A 
HETATM   24  C   UNL     1       6.966  31.640  58.681  1.00  0.00     0.001 A 
HETATM   25  C   UNL     1       5.749  32.261  58.398  1.00  0.00     0.001 A 
ENDBRANCH   1  14
TORSDOF 3
ENDMDL
MODEL 8
REMARK VINA RESULT:      -8.9      2.040      2.308
REMARK  3 active torsions:
REMARK  status: ('A' for Active; 'I' for Inactive)
REMARK    1  A    between atoms: C_6  and  N_7 
REMARK       I    between atoms: N_7  and  C_8 
REMARK    2  A    between atoms: C_8  and  C_9 
REMARK    3  A    between atoms: C_9  and  C_10 
ROOT
HETATM    1  C   UNL     1       5.294  24.820  53.099  1.00  0.00     0.165 C 
ENDROOT
BRANCH   1   2
HETATM    2  C   UNL     1       5.614  25.643  51.864  1.00  0.00     0.227 C 
HETATM    3  N   UNL     1       4.610  26.455  51.392  1.00  0.00    -0.327 N 
HETATM    4  H   UNL     1       3.693  26.310  51.817  1.00  0.00     0.169 HD
HETATM    5  O   UNL     1       6.751  25.576  51.399  1.00  0.00    -0.273 OA
BRANCH   3   6
HETATM    6  C   UNL     1       4.665  27.392  50.341  1.00  0.00     0.036 A 
HETATM    7  C   UNL     1       5.292  28.635  50.429  1.00  0.00     0.053 A 
HETATM    8  C   UNL     1       5.282  29.513  49.338  1.00  0.00     0.042 A 
HETATM    9  C   UNL     1       4.647  29.164  48.136  1.00  0.00    -0.040 A 
HETATM   10 CL   UNL     1       6.071  31.041  49.525  1.00  0.00    -0.084 Cl
HETATM   11  C   UNL     1       4.612  30.092  46.955  1.00  0.00     0.050 C 
HETATM   12  C   UNL     1       4.016  27.917  48.056  1.00  0.00     0.011 A 
HETATM   13  C   UNL     1       4.025  27.043  49.146  1.00  0.00     0.030 A 
ENDBRANCH   3   6
ENDBRANCH   1   2
BRANCH   1  14
HETATM   14  C   UNL     1       6.271  24.708  54.254  1.00  0.00     0.074 A 
HETATM   15  N   UNL     1       6.242  25.594  55.208  1.00  0.00    -0.175 NA
HETATM   16  N   UNL     1       7.126  25.476  56.234  1.00  0.00    -0.243 N 
HETATM   17  C   UNL     1       8.078  24.496  56.377  1.00  0.00     0.272 A 
HETATM   18  H   UNL     1       7.073  26.169  56.975  1.00  0.00     0.192 HD
HETATM   19  O   UNL     1       8.843  24.461  57.334  1.00  0.00    -0.266 OA
HETATM   20  C   UNL     1       8.132  23.485  55.310  1.00  0.00     0.046 A 
HETATM   21  C   UNL     1       7.234  23.573  54.248  1.00  0.00     0.006 A 
HETATM   22  C   UNL     1       9.072  22.450  55.369  1.00  0.00     0.018 A 
HETATM   23  C   UNL     1       7.276  22.606  53.235  1.00  0.00     0.014 A 
HETATM   24  C   UNL     1       8.214  21.571  53.291  1.00  0.00     0.001 A 
HETATM   25  C   UNL     1       9.111  21.493  54.356  1.00  0.00     0.001 A 
ENDBRANCH   1  14
TORSDOF 3
ENDMDL
MODEL 9
REMARK VINA RESULT:      -8.7      5.479      8.188
REMARK  3 active torsions:
REMARK  status: ('A' for Active; 'I' for Inactive)
REMARK    1  A    between atoms: C_6  and  N_7 
REMARK       I    between atoms: N_7  and  C_8 
REMARK    2  A    between atoms: C_8  and  C_9 
REMARK    3  A    between atoms: C_9  and  C_10 
ROOT
HETATM    1  C   UNL     1       5.498  27.130  56.474  1.00  0.00     0.165 C 
ENDROOT
BRANCH   1   2
HETATM    2  C   UNL     1       5.837  25.670  56.233  1.00  0.00     0.227 C 
HETATM    3  N   UNL     1       6.485  25.378  55.056  1.00  0.00    -0.327 N 
HETATM    4  H   UNL     1       6.533  26.142  54.381  1.00  0.00     0.169 HD
HETATM    5  O   UNL     1       5.566  24.857  57.115  1.00  0.00    -0.273 OA
BRANCH   3   6
HETATM    6  C   UNL     1       7.006  24.140  54.629  1.00  0.00     0.036 A 
HETATM    7  C   UNL     1       7.114  23.012  55.441  1.00  0.00     0.053 A 
HETATM    8  C   UNL     1       7.662  21.825  54.937  1.00  0.00     0.042 A 
HETATM    9  C   UNL     1       8.111  21.743  53.610  1.00  0.00    -0.040 A 
HETATM   10 CL   UNL     1       7.774  20.470  56.007  1.00  0.00    -0.084 Cl
HETATM   11  C   UNL     1       8.713  20.487  53.049  1.00  0.00     0.050 C 
HETATM   12  C   UNL     1       8.003  22.881  52.801  1.00  0.00     0.011 A 
HETATM   13  C   UNL     1       7.457  24.065  53.306  1.00  0.00     0.030 A 
ENDBRANCH   3   6
ENDBRANCH   1   2
BRANCH   1  14
HETATM   14  C   UNL     1       6.525  28.106  57.017  1.00  0.00     0.074 A 
HETATM   15  N   UNL     1       7.780  27.762  57.054  1.00  0.00    -0.175 NA
HETATM   16  N   UNL     1       8.685  28.650  57.544  1.00  0.00    -0.243 N 
HETATM   17  C   UNL     1       8.410  29.909  58.022  1.00  0.00     0.272 A 
HETATM   18  H   UNL     1       9.660  28.366  57.548  1.00  0.00     0.192 HD
HETATM   19  O   UNL     1       9.286  30.651  58.451  1.00  0.00    -0.266 OA
HETATM   20  C   UNL     1       6.998  30.319  57.992  1.00  0.00     0.046 A 
HETATM   21  C   UNL     1       6.047  29.435  57.488  1.00  0.00     0.006 A 
HETATM   22  C   UNL     1       6.623  31.583  58.461  1.00  0.00     0.018 A 
HETATM   23  C   UNL     1       4.702  29.825  57.449  1.00  0.00     0.014 A 
HETATM   24  C   UNL     1       4.324  31.087  57.917  1.00  0.00     0.001 A 
HETATM   25  C   UNL     1       5.283  31.965  58.423  1.00  0.00     0.001 A 
ENDBRANCH   1  14
TORSDOF 3
ENDMDL
MODEL 10
REMARK VINA RESULT:      -8.4      8.190     10.432
REMARK  3 active torsions:
REMARK  status: ('A' for Active; 'I' for Inactive)
REMARK    1  A    between atoms: C_6  and  N_7 
REMARK       I    between atoms: N_7  and  C_8 
REMARK    2  A    between atoms: C_8  and  C_9 
REMARK    3  A    between atoms: C_9  and  C_10 
ROOT
HETATM    1  C   UNL     1       9.127  31.361  59.202  1.00  0.00     0.165 C 
ENDROOT
BRANCH   1   2
HETATM    2  C   UNL     1       9.218  30.166  58.270  1.00  0.00     0.227 C 
HETATM    3  N   UNL     1       8.047  29.488  58.025  1.00  0.00    -0.327 N 
HETATM    4  H   UNL     1       7.258  29.751  58.617  1.00  0.00     0.169 HD
HETATM    5  O   UNL     1      10.306  29.913  57.754  1.00  0.00    -0.273 OA
BRANCH   3   6
HETATM    6  C   UNL     1       7.823  28.423  57.131  1.00  0.00     0.036 A 
HETATM    7  C   UNL     1       7.557  28.583  55.771  1.00  0.00     0.053 A 
HETATM    8  C   UNL     1       7.329  27.466  54.957  1.00  0.00     0.042 A 
HETATM    9  C   UNL     1       7.365  26.167  55.487  1.00  0.00    -0.040 A 
HETATM   10 CL   UNL     1       6.993  27.742  53.283  1.00  0.00    -0.084 Cl
HETATM   11  C   UNL     1       7.112  24.953  54.638  1.00  0.00     0.050 C 
HETATM   12  C   UNL     1       7.629  26.014  56.853  1.00  0.00     0.011 A 
HETATM   13  C   UNL     1       7.855  27.130  57.664  1.00  0.00     0.030 A 
ENDBRANCH   3   6
ENDBRANCH   1   2
BRANCH   1  14
HETATM   14  C   UNL     1       7.792  31.974  59.580  1.00  0.00     0.074 A 
HETATM   15  N   UNL     1       6.898  32.185  58.657  1.00  0.00    -0.175 NA
HETATM   16  N   UNL     1       5.708  32.736  59.017  1.00  0.00    -0.243 N 
HETATM   17  C   UNL     1       5.336  33.108  60.285  1.00  0.00     0.272 A 
HETATM   18  H   UNL     1       5.020  32.875  58.282  1.00  0.00     0.192 HD
HETATM   19  O   UNL     1       4.241  33.603  60.527  1.00  0.00    -0.266 OA
HETATM   20  C   UNL     1       6.331  32.882  61.344  1.00  0.00     0.046 A 
HETATM   21  C   UNL     1       7.558  32.312  61.011  1.00  0.00     0.006 A 
HETATM   22  C   UNL     1       6.042  33.233  62.668  1.00  0.00     0.018 A 
HETATM   23  C   UNL     1       8.505  32.086  62.018  1.00  0.00     0.014 A 
HETATM   24  C   UNL     1       8.218  32.436  63.341  1.00  0.00     0.001 A 
HETATM   25  C   UNL     1       6.989  33.009  63.666  1.00  0.00     0.001 A 
ENDBRANCH   1  14
TORSDOF 3
ENDMDL
