MODEL 1
REMARK VINA RESULT:      -8.6      0.000      0.000
REMARK  7 active torsions:
REMARK  status: ('A' for Active; 'I' for Inactive)
REMARK    1  A    between atoms: S_2  and  C_3 
REMARK    2  A    between atoms: C_3  and  C_4 
REMARK    3  A    between atoms: C_4  and  C_5 
REMARK    4  A    between atoms: C_5  and  N_6 
REMARK    5  A    between atoms: C_5  and  C_10 
REMARK       I    between atoms: N_6  and  C_7 
REMARK       I    between atoms: C_7  and  N_8 
REMARK       I    between atoms: C_10  and  N_11 
REMARK    6  A    between atoms: N_11  and  N_12 
REMARK       I    between atoms: N_12  and  C_13 
REMARK    7  A    between atoms: C_13  and  C_14 
ROOT
HETATM    1  C   UNL     1       7.472  28.811  57.491  1.00  0.00     0.259 C 
HETATM    2  N   UNL     1       7.217  28.336  56.223  1.00  0.00    -0.265 N 
HETATM    3  O   UNL     1       7.925  28.091  58.385  1.00  0.00    -0.269 OA
HETATM    4  H   UNL     1       6.976  28.939  55.432  1.00  0.00     0.190 HD
ENDROOT
BRANCH   2   5
HETATM    5  N   UNL     1       7.516  27.000  55.943  1.00  0.00    -0.263 N 
HETATM    6  C   UNL     1       6.791  26.314  54.982  1.00  0.00     0.278 C 
HETATM    7  O   UNL     1       5.878  26.883  54.381  1.00  0.00    -0.265 OA
HETATM    8  H   UNL     1       8.344  26.606  56.387  1.00  0.00     0.190 HD
BRANCH   6   9
HETATM    9  C   UNL     1       7.180  24.926  54.766  1.00  0.00     0.097 A 
HETATM   10  S   UNL     1       7.216  23.812  56.069  1.00  0.00    -0.082 SA
HETATM   11  C   UNL     1       7.673  22.497  55.066  1.00  0.00     0.017 A 
HETATM   12  C   UNL     1       7.822  22.897  53.737  1.00  0.00     0.004 A 
HETATM   13  C   UNL     1       7.886  21.165  55.471  1.00  0.00     0.020 A 
HETATM   14  C   UNL     1       7.540  24.304  53.584  1.00  0.00     0.068 A 
HETATM   15  C   UNL     1       8.201  21.906  52.793  1.00  0.00     0.014 A 
HETATM   16 CL   UNL     1       7.649  25.070  52.045  1.00  0.00    -0.082 Cl
HETATM   17  C   UNL     1       8.411  20.581  53.187  1.00  0.00     0.001 A 
HETATM   18  C   UNL     1       8.253  20.216  54.515  1.00  0.00     0.001 A 
ENDBRANCH   6   9
ENDBRANCH   2   5
BRANCH   1  19
HETATM   19  C   UNL     1       7.164  30.303  57.697  1.00  0.00     0.180 C 
BRANCH  19  20
HETATM   20  C   UNL     1       8.233  31.010  58.544  1.00  0.00     0.045 C 
BRANCH  20  21
HETATM   21  C   UNL     1       7.824  31.454  59.950  1.00  0.00     0.076 C 
BRANCH  21  22
HETATM   22  S   UNL     1       8.925  30.807  61.247  1.00  0.00    -0.173 SA
HETATM   23  C   UNL     1       8.235  31.695  62.665  1.00  0.00     0.089 C 
ENDBRANCH  21  22
ENDBRANCH  20  21
ENDBRANCH  19  20
BRANCH  19  24
HETATM   24  N   UNL     1       5.861  30.358  58.359  1.00  0.00    -0.330 N 
HETATM   25  C   UNL     1       4.690  30.278  57.680  1.00  0.00     0.314 C 
HETATM   26  N   UNL     1       3.610  30.362  58.493  1.00  0.00    -0.352 N 
HETATM   27  O   UNL     1       4.580  30.145  56.471  1.00  0.00    -0.248 OA
HETATM   28  H   UNL     1       3.689  29.934  59.405  1.00  0.00     0.160 HD
HETATM   29  H   UNL     1       2.737  30.178  58.013  1.00  0.00     0.160 HD
HETATM   30  H   UNL     1       5.843  30.670  59.322  1.00  0.00     0.165 HD
ENDBRANCH  19  24
ENDBRANCH   1  19
TORSDOF 7
ENDMDL
MODEL 2
REMARK VINA RESULT:      -8.3      1.580      2.030
REMARK  7 active torsions:
REMARK  status: ('A' for Active; 'I' for Inactive)
REMARK    1  A    between atoms: S_2  and  C_3 
REMARK    2  A    between atoms: C_3  and  C_4 
REMARK    3  A    between atoms: C_4  and  C_5 
REMARK    4  A    between atoms: C_5  and  N_6 
REMARK    5  A    between atoms: C_5  and  C_10 
REMARK       I    between atoms: N_6  and  C_7 
REMARK       I    between atoms: C_7  and  N_8 
REMARK       I    between atoms: C_10  and  N_11 
REMARK    6  A    between atoms: N_11  and  N_12 
REMARK       I    between atoms: N_12  and  C_13 
REMARK    7  A    between atoms: C_13  and  C_14 
ROOT
HETATM    1  C   UNL     1       5.039  28.772  56.415  1.00  0.00     0.259 C 
HETATM    2  N   UNL     1       6.335  28.359  56.192  1.00  0.00    -0.265 N 
HETATM    3  O   UNL     1       4.067  28.051  56.178  1.00  0.00    -0.269 OA
HETATM    4  H   UNL     1       7.156  28.881  56.509  1.00  0.00     0.190 HD
ENDROOT
BRANCH   2   5
HETATM    5  N   UNL     1       6.543  27.064  55.711  1.00  0.00    -0.263 N 
HETATM    6  C   UNL     1       7.595  26.305  56.199  1.00  0.00     0.278 C 
HETATM    7  O   UNL     1       8.348  26.777  57.051  1.00  0.00    -0.265 OA
HETATM    8  H   UNL     1       5.835  26.680  55.088  1.00  0.00     0.190 HD
BRANCH   6   9
HETATM    9  C   UNL     1       7.726  24.968  55.633  1.00  0.00     0.097 A 
HETATM   10  S   UNL     1       7.757  23.585  56.647  1.00  0.00    -0.082 SA
HETATM   11  C   UNL     1       7.862  22.493  55.328  1.00  0.00     0.017 A 
HETATM   12  C   UNL     1       7.895  23.170  54.107  1.00  0.00     0.004 A 
HETATM   13  C   UNL     1       7.911  21.088  55.401  1.00  0.00     0.020 A 
HETATM   14  C   UNL     1       7.822  24.598  54.303  1.00  0.00     0.068 A 
HETATM   15  C   UNL     1       7.983  22.387  52.926  1.00  0.00     0.014 A 
HETATM   16 CL   UNL     1       7.847  25.681  52.965  1.00  0.00    -0.082 Cl
HETATM   17  C   UNL     1       8.029  20.991  52.991  1.00  0.00     0.001 A 
HETATM   18  C   UNL     1       7.993  20.349  54.219  1.00  0.00     0.001 A 
ENDBRANCH   6   9
ENDBRANCH   2   5
BRANCH   1  19
HETATM   19  C   UNL     1       4.903  30.190  56.994  1.00  0.00     0.180 C 
BRANCH  19  20
HETATM   20  C   UNL     1       6.261  30.896  57.137  1.00  0.00     0.045 C 
BRANCH  20  21
HETATM   21  C   UNL     1       6.863  30.967  58.542  1.00  0.00     0.076 C 
BRANCH  21  22
HETATM   22  S   UNL     1       8.505  30.188  58.650  1.00  0.00    -0.173 SA
HETATM   23  C   UNL     1       9.477  31.652  59.081  1.00  0.00     0.089 C 
ENDBRANCH  21  22
ENDBRANCH  20  21
ENDBRANCH  19  20
BRANCH  19  24
HETATM   24  N   UNL     1       4.263  30.033  58.300  1.00  0.00    -0.330 N 
HETATM   25  C   UNL     1       3.423  30.960  58.821  1.00  0.00     0.314 C 
HETATM   26  N   UNL     1       2.955  30.611  60.044  1.00  0.00    -0.352 N 
HETATM   27  O   UNL     1       3.098  32.005  58.280  1.00  0.00    -0.248 OA
HETATM   28  H   UNL     1       2.776  29.630  60.203  1.00  0.00     0.160 HD
HETATM   29  H   UNL     1       2.233  31.234  60.385  1.00  0.00     0.160 HD
HETATM   30  H   UNL     1       4.623  29.307  58.909  1.00  0.00     0.165 HD
ENDBRANCH  19  24
ENDBRANCH   1  19
TORSDOF 7
ENDMDL
MODEL 3
REMARK VINA RESULT:      -8.0      2.525      3.573
REMARK  7 active torsions:
REMARK  status: ('A' for Active; 'I' for Inactive)
REMARK    1  A    between atoms: S_2  and  C_3 
REMARK    2  A    between atoms: C_3  and  C_4 
REMARK    3  A    between atoms: C_4  and  C_5 
REMARK    4  A    between atoms: C_5  and  N_6 
REMARK    5  A    between atoms: C_5  and  C_10 
REMARK       I    between atoms: N_6  and  C_7 
REMARK       I    between atoms: C_7  and  N_8 
REMARK       I    between atoms: C_10  and  N_11 
REMARK    6  A    between atoms: N_11  and  N_12 
REMARK       I    between atoms: N_12  and  C_13 
REMARK    7  A    between atoms: C_13  and  C_14 
ROOT
HETATM    1  C   UNL     1       7.627  28.540  57.209  1.00  0.00     0.259 C 
HETATM    2  N   UNL     1       7.419  27.314  57.803  1.00  0.00    -0.265 N 
HETATM    3  O   UNL     1       8.149  28.654  56.097  1.00  0.00    -0.269 OA
HETATM    4  H   UNL     1       6.865  27.185  58.654  1.00  0.00     0.190 HD
ENDROOT
BRANCH   2   5
HETATM    5  N   UNL     1       7.787  26.166  57.097  1.00  0.00    -0.263 N 
HETATM    6  C   UNL     1       6.837  25.203  56.797  1.00  0.00     0.278 C 
HETATM    7  O   UNL     1       5.670  25.359  57.159  1.00  0.00    -0.265 OA
HETATM    8  H   UNL     1       8.736  26.131  56.728  1.00  0.00     0.190 HD
BRANCH   6   9
HETATM    9  C   UNL     1       7.323  24.043  56.058  1.00  0.00     0.097 A 
HETATM   10  S   UNL     1       8.265  22.840  56.836  1.00  0.00    -0.082 SA
HETATM   11  C   UNL     1       8.376  21.869  55.426  1.00  0.00     0.017 A 
HETATM   12  C   UNL     1       7.714  22.460  54.347  1.00  0.00     0.004 A 
HETATM   13  C   UNL     1       9.032  20.629  55.307  1.00  0.00     0.020 A 
HETATM   14  C   UNL     1       7.118  23.717  54.730  1.00  0.00     0.068 A 
HETATM   15  C   UNL     1       7.726  21.763  53.110  1.00  0.00     0.014 A 
HETATM   16 CL   UNL     1       6.240  24.667  53.592  1.00  0.00    -0.082 Cl
HETATM   17  C   UNL     1       8.373  20.530  52.986  1.00  0.00     0.001 A 
HETATM   18  C   UNL     1       9.020  19.969  54.077  1.00  0.00     0.001 A 
ENDBRANCH   6   9
ENDBRANCH   2   5
BRANCH   1  19
HETATM   19  C   UNL     1       7.144  29.746  58.031  1.00  0.00     0.180 C 
BRANCH  19  20
HETATM   20  C   UNL     1       5.920  30.431  57.402  1.00  0.00     0.045 C 
BRANCH  20  21
HETATM   21  C   UNL     1       4.695  29.554  57.133  1.00  0.00     0.076 C 
BRANCH  21  22
HETATM   22  S   UNL     1       4.182  29.570  55.386  1.00  0.00    -0.173 SA
HETATM   23  C   UNL     1       4.793  27.937  54.903  1.00  0.00     0.089 C 
ENDBRANCH  21  22
ENDBRANCH  20  21
ENDBRANCH  19  20
BRANCH  19  24
HETATM   24  N   UNL     1       8.276  30.670  58.095  1.00  0.00    -0.330 N 
HETATM   25  C   UNL     1       9.042  30.814  59.205  1.00  0.00     0.314 C 
HETATM   26  N   UNL     1      10.027  31.730  59.042  1.00  0.00    -0.352 N 
HETATM   27  O   UNL     1       8.893  30.204  60.252  1.00  0.00    -0.248 OA
HETATM   28  H   UNL     1      10.455  31.785  58.129  1.00  0.00     0.160 HD
HETATM   29  H   UNL     1      10.678  31.754  59.817  1.00  0.00     0.160 HD
HETATM   30  H   UNL     1       8.353  31.361  57.359  1.00  0.00     0.165 HD
ENDBRANCH  19  24
ENDBRANCH   1  19
TORSDOF 7
ENDMDL
MODEL 4
REMARK VINA RESULT:      -7.7      2.798      3.428
REMARK  7 active torsions:
REMARK  status: ('A' for Active; 'I' for Inactive)
REMARK    1  A    between atoms: S_2  and  C_3 
REMARK    2  A    between atoms: C_3  and  C_4 
REMARK    3  A    between atoms: C_4  and  C_5 
REMARK    4  A    between atoms: C_5  and  N_6 
REMARK    5  A    between atoms: C_5  and  C_10 
REMARK       I    between atoms: N_6  and  C_7 
REMARK       I    between atoms: C_7  and  N_8 
REMARK       I    between atoms: C_10  and  N_11 
REMARK    6  A    between atoms: N_11  and  N_12 
REMARK       I    between atoms: N_12  and  C_13 
REMARK    7  A    between atoms: C_13  and  C_14 
ROOT
HETATM    1  C   UNL     1       4.817  28.268  56.367  1.00  0.00     0.259 C 
HETATM    2  N   UNL     1       4.666  27.596  55.173  1.00  0.00    -0.265 N 
HETATM    3  O   UNL     1       5.397  27.770  57.335  1.00  0.00    -0.269 OA
HETATM    4  H   UNL     1       4.316  28.036  54.318  1.00  0.00     0.190 HD
ENDROOT
BRANCH   2   5
HETATM    5  N   UNL     1       5.221  26.319  55.057  1.00  0.00    -0.263 N 
HETATM    6  C   UNL     1       6.515  26.167  54.584  1.00  0.00     0.278 C 
HETATM    7  O   UNL     1       7.171  27.159  54.262  1.00  0.00    -0.265 OA
HETATM    8  H   UNL     1       4.682  25.542  55.434  1.00  0.00     0.190 HD
BRANCH   6   9
HETATM    9  C   UNL     1       7.001  24.795  54.501  1.00  0.00     0.097 A 
HETATM   10  S   UNL     1       7.030  23.788  55.889  1.00  0.00    -0.082 SA
HETATM   11  C   UNL     1       7.623  22.433  55.020  1.00  0.00     0.017 A 
HETATM   12  C   UNL     1       7.824  22.739  53.673  1.00  0.00     0.004 A 
HETATM   13  C   UNL     1       7.894  21.153  55.541  1.00  0.00     0.020 A 
HETATM   14  C   UNL     1       7.465  24.109  53.393  1.00  0.00     0.068 A 
HETATM   15  C   UNL     1       8.317  21.706  52.832  1.00  0.00     0.014 A 
HETATM   16 CL   UNL     1       7.616  24.760  51.806  1.00  0.00    -0.082 Cl
HETATM   17  C   UNL     1       8.584  20.432  53.342  1.00  0.00     0.001 A 
HETATM   18  C   UNL     1       8.373  20.160  54.685  1.00  0.00     0.001 A 
ENDBRANCH   6   9
ENDBRANCH   2   5
BRANCH   1  19
HETATM   19  C   UNL     1       4.224  29.686  56.390  1.00  0.00     0.180 C 
BRANCH  19  20
HETATM   20  C   UNL     1       4.373  30.405  55.040  1.00  0.00     0.045 C 
BRANCH  20  21
HETATM   21  C   UNL     1       3.158  31.183  54.529  1.00  0.00     0.076 C 
BRANCH  21  22
HETATM   22  S   UNL     1       3.074  32.879  55.186  1.00  0.00    -0.173 SA
HETATM   23  C   UNL     1       4.699  33.465  54.645  1.00  0.00     0.089 C 
ENDBRANCH  21  22
ENDBRANCH  20  21
ENDBRANCH  19  20
BRANCH  19  24
HETATM   24  N   UNL     1       4.941  30.407  57.441  1.00  0.00    -0.330 N 
HETATM   25  C   UNL     1       4.311  31.163  58.372  1.00  0.00     0.314 C 
HETATM   26  N   UNL     1       5.173  31.746  59.241  1.00  0.00    -0.352 N 
HETATM   27  O   UNL     1       3.103  31.326  58.454  1.00  0.00    -0.248 OA
HETATM   28  H   UNL     1       5.991  31.214  59.500  1.00  0.00     0.160 HD
HETATM   29  H   UNL     1       4.707  32.209  60.012  1.00  0.00     0.160 HD
HETATM   30  H   UNL     1       5.945  30.501  57.337  1.00  0.00     0.165 HD
ENDBRANCH  19  24
ENDBRANCH   1  19
TORSDOF 7
ENDMDL
MODEL 5
REMARK VINA RESULT:      -7.7      3.047      8.423
REMARK  7 active torsions:
REMARK  status: ('A' for Active; 'I' for Inactive)
REMARK    1  A    between atoms: S_2  and  C_3 
REMARK    2  A    between atoms: C_3  and  C_4 
REMARK    3  A    between atoms: C_4  and  C_5 
REMARK    4  A    between atoms: C_5  and  N_6 
REMARK    5  A    between atoms: C_5  and  C_10 
REMARK       I    between atoms: N_6  and  C_7 
REMARK       I    between atoms: C_7  and  N_8 
REMARK       I    between atoms: C_10  and  N_11 
REMARK    6  A    between atoms: N_11  and  N_12 
REMARK       I    between atoms: N_12  and  C_13 
REMARK    7  A    between atoms: C_13  and  C_14 
ROOT
HETATM    1  C   UNL     1       6.897  24.882  54.866  1.00  0.00     0.259 C 
HETATM    2  N   UNL     1       7.630  26.021  54.615  1.00  0.00    -0.265 N 
HETATM    3  O   UNL     1       6.331  24.687  55.945  1.00  0.00    -0.269 OA
HETATM    4  H   UNL     1       7.988  26.269  53.689  1.00  0.00     0.190 HD
ENDROOT
BRANCH   2   5
HETATM    5  N   UNL     1       7.700  26.997  55.612  1.00  0.00    -0.263 N 
HETATM    6  C   UNL     1       8.087  28.288  55.292  1.00  0.00     0.278 C 
HETATM    7  O   UNL     1       8.374  28.572  54.128  1.00  0.00    -0.265 OA
HETATM    8  H   UNL     1       7.353  26.744  56.535  1.00  0.00     0.190 HD
BRANCH   6   9
HETATM    9  C   UNL     1       8.129  29.231  56.404  1.00  0.00     0.097 A 
HETATM   10  S   UNL     1       6.684  29.887  57.053  1.00  0.00    -0.082 SA
HETATM   11  C   UNL     1       7.510  30.779  58.263  1.00  0.00     0.017 A 
HETATM   12  C   UNL     1       8.893  30.602  58.172  1.00  0.00     0.004 A 
HETATM   13  C   UNL     1       6.929  31.600  59.248  1.00  0.00     0.020 A 
HETATM   14  C   UNL     1       9.231  29.710  57.088  1.00  0.00     0.068 A 
HETATM   15  C   UNL     1       9.704  31.286  59.115  1.00  0.00     0.014 A 
HETATM   16 CL   UNL     1      10.872  29.315  56.743  1.00  0.00    -0.082 Cl
HETATM   17  C   UNL     1       9.133  32.100  60.097  1.00  0.00     0.001 A 
HETATM   18  C   UNL     1       7.756  32.254  60.162  1.00  0.00     0.001 A 
ENDBRANCH   6   9
ENDBRANCH   2   5
BRANCH   1  19
HETATM   19  C   UNL     1       6.827  23.887  53.697  1.00  0.00     0.180 C 
BRANCH  19  20
HETATM   20  C   UNL     1       8.193  23.256  53.382  1.00  0.00     0.045 C 
BRANCH  20  21
HETATM   21  C   UNL     1       8.869  22.467  54.506  1.00  0.00     0.076 C 
BRANCH  21  22
HETATM   22  S   UNL     1       7.903  21.018  55.036  1.00  0.00    -0.173 SA
HETATM   23  C   UNL     1       8.406  20.971  56.774  1.00  0.00     0.089 C 
ENDBRANCH  21  22
ENDBRANCH  20  21
ENDBRANCH  19  20
BRANCH  19  24
HETATM   24  N   UNL     1       6.333  24.647  52.549  1.00  0.00    -0.330 N 
HETATM   25  C   UNL     1       5.024  24.955  52.382  1.00  0.00     0.314 C 
HETATM   26  N   UNL     1       4.794  25.655  51.245  1.00  0.00    -0.352 N 
HETATM   27  O   UNL     1       4.122  24.654  53.148  1.00  0.00    -0.248 OA
HETATM   28  H   UNL     1       5.502  26.318  50.964  1.00  0.00     0.160 HD
HETATM   29  H   UNL     1       3.843  25.997  51.175  1.00  0.00     0.160 HD
HETATM   30  H   UNL     1       6.963  24.764  51.764  1.00  0.00     0.165 HD
ENDBRANCH  19  24
ENDBRANCH   1  19
TORSDOF 7
ENDMDL
MODEL 6
REMARK VINA RESULT:      -7.6      1.834      2.134
REMARK  7 active torsions:
REMARK  status: ('A' for Active; 'I' for Inactive)
REMARK    1  A    between atoms: S_2  and  C_3 
REMARK    2  A    between atoms: C_3  and  C_4 
REMARK    3  A    between atoms: C_4  and  C_5 
REMARK    4  A    between atoms: C_5  and  N_6 
REMARK    5  A    between atoms: C_5  and  C_10 
REMARK       I    between atoms: N_6  and  C_7 
REMARK       I    between atoms: C_7  and  N_8 
REMARK       I    between atoms: C_10  and  N_11 
REMARK    6  A    between atoms: N_11  and  N_12 
REMARK       I    between atoms: N_12  and  C_13 
REMARK    7  A    between atoms: C_13  and  C_14 
ROOT
HETATM    1  C   UNL     1       7.633  28.760  56.621  1.00  0.00     0.259 C 
HETATM    2  N   UNL     1       7.918  27.608  57.322  1.00  0.00    -0.265 N 
HETATM    3  O   UNL     1       7.560  28.781  55.390  1.00  0.00    -0.269 OA
HETATM    4  H   UNL     1       7.847  27.534  58.341  1.00  0.00     0.190 HD
ENDROOT
BRANCH   2   5
HETATM    5  N   UNL     1       8.096  26.423  56.604  1.00  0.00    -0.263 N 
HETATM    6  C   UNL     1       7.131  25.430  56.657  1.00  0.00     0.278 C 
HETATM    7  O   UNL     1       6.121  25.592  57.342  1.00  0.00    -0.265 OA
HETATM    8  H   UNL     1       8.892  26.378  55.971  1.00  0.00     0.190 HD
BRANCH   6   9
HETATM    9  C   UNL     1       7.412  24.232  55.872  1.00  0.00     0.097 A 
HETATM   10  S   UNL     1       7.054  24.178  54.196  1.00  0.00    -0.082 SA
HETATM   11  C   UNL     1       7.682  22.593  54.009  1.00  0.00     0.017 A 
HETATM   12  C   UNL     1       8.150  22.083  55.222  1.00  0.00     0.004 A 
HETATM   13  C   UNL     1       7.745  21.849  52.815  1.00  0.00     0.020 A 
HETATM   14  C   UNL     1       7.979  23.042  56.287  1.00  0.00     0.068 A 
HETATM   15  C   UNL     1       8.698  20.774  55.214  1.00  0.00     0.014 A 
HETATM   16 CL   UNL     1       8.469  22.676  57.898  1.00  0.00    -0.082 Cl
HETATM   17  C   UNL     1       8.767  20.031  54.032  1.00  0.00     0.001 A 
HETATM   18  C   UNL     1       8.294  20.566  52.844  1.00  0.00     0.001 A 
ENDBRANCH   6   9
ENDBRANCH   2   5
BRANCH   1  19
HETATM   19  C   UNL     1       7.400  30.005  57.492  1.00  0.00     0.180 C 
BRANCH  19  20
HETATM   20  C   UNL     1       8.482  30.178  58.569  1.00  0.00     0.045 C 
BRANCH  20  21
HETATM   21  C   UNL     1       8.443  31.468  59.392  1.00  0.00     0.076 C 
BRANCH  21  22
HETATM   22  S   UNL     1       8.235  31.165  61.175  1.00  0.00    -0.173 SA
HETATM   23  C   UNL     1       6.729  32.130  61.446  1.00  0.00     0.089 C 
ENDBRANCH  21  22
ENDBRANCH  20  21
ENDBRANCH  19  20
BRANCH  19  24
HETATM   24  N   UNL     1       6.084  29.826  58.107  1.00  0.00    -0.330 N 
HETATM   25  C   UNL     1       4.948  30.331  57.567  1.00  0.00     0.314 C 
HETATM   26  N   UNL     1       3.849  30.052  58.310  1.00  0.00    -0.352 N 
HETATM   27  O   UNL     1       4.880  30.970  56.529  1.00  0.00    -0.248 OA
HETATM   28  H   UNL     1       3.826  29.156  58.775  1.00  0.00     0.160 HD
HETATM   29  H   UNL     1       2.985  30.315  57.853  1.00  0.00     0.160 HD
HETATM   30  H   UNL     1       6.061  29.492  59.063  1.00  0.00     0.165 HD
ENDBRANCH  19  24
ENDBRANCH   1  19
TORSDOF 7
ENDMDL
MODEL 7
REMARK VINA RESULT:      -7.4      5.341      6.746
REMARK  7 active torsions:
REMARK  status: ('A' for Active; 'I' for Inactive)
REMARK    1  A    between atoms: S_2  and  C_3 
REMARK    2  A    between atoms: C_3  and  C_4 
REMARK    3  A    between atoms: C_4  and  C_5 
REMARK    4  A    between atoms: C_5  and  N_6 
REMARK    5  A    between atoms: C_5  and  C_10 
REMARK       I    between atoms: N_6  and  C_7 
REMARK       I    between atoms: C_7  and  N_8 
REMARK       I    between atoms: C_10  and  N_11 
REMARK    6  A    between atoms: N_11  and  N_12 
REMARK       I    between atoms: N_12  and  C_13 
REMARK    7  A    between atoms: C_13  and  C_14 
ROOT
HETATM    1  C   UNL     1       4.716  27.197  50.916  1.00  0.00     0.259 C 
HETATM    2  N   UNL     1       4.421  26.756  52.188  1.00  0.00    -0.265 N 
HETATM    3  O   UNL     1       5.551  26.636  50.201  1.00  0.00    -0.269 OA
HETATM    4  H   UNL     1       3.639  27.115  52.742  1.00  0.00     0.190 HD
ENDROOT
BRANCH   2   5
HETATM    5  N   UNL     1       5.072  25.614  52.661  1.00  0.00    -0.263 N 
HETATM    6  C   UNL     1       6.061  25.730  53.625  1.00  0.00     0.278 C 
HETATM    7  O   UNL     1       6.367  26.841  54.059  1.00  0.00    -0.265 OA
HETATM    8  H   UNL     1       4.713  24.712  52.352  1.00  0.00     0.190 HD
BRANCH   6   9
HETATM    9  C   UNL     1       6.679  24.479  54.051  1.00  0.00     0.097 A 
HETATM   10  S   UNL     1       7.277  23.359  52.898  1.00  0.00    -0.082 SA
HETATM   11  C   UNL     1       7.855  22.277  54.097  1.00  0.00     0.017 A 
HETATM   12  C   UNL     1       7.581  22.748  55.383  1.00  0.00     0.004 A 
HETATM   13  C   UNL     1       8.525  21.058  53.878  1.00  0.00     0.020 A 
HETATM   14  C   UNL     1       6.896  24.018  55.336  1.00  0.00     0.068 A 
HETATM   15  C   UNL     1       8.005  21.948  56.477  1.00  0.00     0.014 A 
HETATM   16 CL   UNL     1       6.432  24.830  56.782  1.00  0.00    -0.082 Cl
HETATM   17  C   UNL     1       8.674  20.739  56.267  1.00  0.00     0.001 A 
HETATM   18  C   UNL     1       8.931  20.300  54.977  1.00  0.00     0.001 A 
ENDBRANCH   6   9
ENDBRANCH   2   5
BRANCH   1  19
HETATM   19  C   UNL     1       3.916  28.426  50.456  1.00  0.00     0.180 C 
BRANCH  19  20
HETATM   20  C   UNL     1       3.699  29.441  51.589  1.00  0.00     0.045 C 
BRANCH  20  21
HETATM   21  C   UNL     1       4.719  30.577  51.709  1.00  0.00     0.076 C 
BRANCH  21  22
HETATM   22  S   UNL     1       5.518  30.983  50.125  1.00  0.00    -0.173 SA
HETATM   23  C   UNL     1       5.696  32.769  50.355  1.00  0.00     0.089 C 
ENDBRANCH  21  22
ENDBRANCH  20  21
ENDBRANCH  19  20
BRANCH  19  24
HETATM   24  N   UNL     1       2.635  27.914  49.970  1.00  0.00    -0.330 N 
HETATM   25  C   UNL     1       2.427  27.570  48.675  1.00  0.00     0.314 C 
HETATM   26  N   UNL     1       1.165  27.131  48.449  1.00  0.00    -0.352 N 
HETATM   27  O   UNL     1       3.258  27.633  47.783  1.00  0.00    -0.248 OA
HETATM   28  H   UNL     1       0.728  26.595  49.184  1.00  0.00     0.160 HD
HETATM   29  H   UNL     1       1.037  26.755  47.517  1.00  0.00     0.160 HD
HETATM   30  H   UNL     1       1.832  28.018  50.580  1.00  0.00     0.165 HD
ENDBRANCH  19  24
ENDBRANCH   1  19
TORSDOF 7
ENDMDL
MODEL 8
REMARK VINA RESULT:      -7.4      3.892      9.821
REMARK  7 active torsions:
REMARK  status: ('A' for Active; 'I' for Inactive)
REMARK    1  A    between atoms: S_2  and  C_3 
REMARK    2  A    between atoms: C_3  and  C_4 
REMARK    3  A    between atoms: C_4  and  C_5 
REMARK    4  A    between atoms: C_5  and  N_6 
REMARK    5  A    between atoms: C_5  and  C_10 
REMARK       I    between atoms: N_6  and  C_7 
REMARK       I    between atoms: C_7  and  N_8 
REMARK       I    between atoms: C_10  and  N_11 
REMARK    6  A    between atoms: N_11  and  N_12 
REMARK       I    between atoms: N_12  and  C_13 
REMARK    7  A    between atoms: C_13  and  C_14 
ROOT
HETATM    1  C   UNL     1       6.871  28.156  57.001  1.00  0.00     0.259 C 
HETATM    2  N   UNL     1       7.909  28.575  57.805  1.00  0.00    -0.265 N 
HETATM    3  O   UNL     1       5.699  28.479  57.215  1.00  0.00    -0.269 OA
HETATM    4  H   UNL     1       8.895  28.438  57.570  1.00  0.00     0.190 HD
ENDROOT
BRANCH   2   5
HETATM    5  N   UNL     1       7.616  29.421  58.877  1.00  0.00    -0.263 N 
HETATM    6  C   UNL     1       8.320  30.604  59.038  1.00  0.00     0.278 C 
HETATM    7  O   UNL     1       9.207  30.903  58.238  1.00  0.00    -0.265 OA
HETATM    8  H   UNL     1       6.806  29.185  59.448  1.00  0.00     0.190 HD
BRANCH   6   9
HETATM    9  C   UNL     1       7.939  31.416  60.188  1.00  0.00     0.097 A 
HETATM   10  S   UNL     1       6.711  32.606  60.053  1.00  0.00    -0.082 SA
HETATM   11  C   UNL     1       6.806  33.039  61.710  1.00  0.00     0.017 A 
HETATM   12  C   UNL     1       7.785  32.298  62.375  1.00  0.00     0.004 A 
HETATM   13  C   UNL     1       6.026  34.007  62.372  1.00  0.00     0.020 A 
HETATM   14  C   UNL     1       8.432  31.371  61.479  1.00  0.00     0.068 A 
HETATM   15  C   UNL     1       7.973  32.555  63.759  1.00  0.00     0.014 A 
HETATM   16 CL   UNL     1       9.686  30.329  62.033  1.00  0.00    -0.082 Cl
HETATM   17  C   UNL     1       7.201  33.513  64.423  1.00  0.00     0.001 A 
HETATM   18  C   UNL     1       6.236  34.231  63.734  1.00  0.00     0.001 A 
ENDBRANCH   6   9
ENDBRANCH   2   5
BRANCH   1  19
HETATM   19  C   UNL     1       7.288  27.272  55.815  1.00  0.00     0.180 C 
BRANCH  19  20
HETATM   20  C   UNL     1       6.489  27.585  54.541  1.00  0.00     0.045 C 
BRANCH  20  21
HETATM   21  C   UNL     1       5.706  26.431  53.910  1.00  0.00     0.076 C 
BRANCH  21  22
HETATM   22  S   UNL     1       6.557  25.697  52.478  1.00  0.00    -0.173 SA
HETATM   23  C   UNL     1       5.460  26.295  51.168  1.00  0.00     0.089 C 
ENDBRANCH  21  22
ENDBRANCH  20  21
ENDBRANCH  19  20
BRANCH  19  24
HETATM   24  N   UNL     1       7.061  25.891  56.241  1.00  0.00    -0.330 N 
HETATM   25  C   UNL     1       7.920  25.222  57.049  1.00  0.00     0.314 C 
HETATM   26  N   UNL     1       7.514  23.954  57.305  1.00  0.00    -0.352 N 
HETATM   27  O   UNL     1       8.953  25.676  57.514  1.00  0.00    -0.248 OA
HETATM   28  H   UNL     1       6.520  23.802  57.397  1.00  0.00     0.160 HD
HETATM   29  H   UNL     1       8.080  23.491  58.004  1.00  0.00     0.160 HD
HETATM   30  H   UNL     1       6.348  25.366  55.749  1.00  0.00     0.165 HD
ENDBRANCH  19  24
ENDBRANCH   1  19
TORSDOF 7
ENDMDL
MODEL 9
REMARK VINA RESULT:      -7.2      3.494      4.376
REMARK  7 active torsions:
REMARK  status: ('A' for Active; 'I' for Inactive)
REMARK    1  A    between atoms: S_2  and  C_3 
REMARK    2  A    between atoms: C_3  and  C_4 
REMARK    3  A    between atoms: C_4  and  C_5 
REMARK    4  A    between atoms: C_5  and  N_6 
REMARK    5  A    between atoms: C_5  and  C_10 
REMARK       I    between atoms: N_6  and  C_7 
REMARK       I    between atoms: C_7  and  N_8 
REMARK       I    between atoms: C_10  and  N_11 
REMARK    6  A    between atoms: N_11  and  N_12 
REMARK       I    between atoms: N_12  and  C_13 
REMARK    7  A    between atoms: C_13  and  C_14 
ROOT
HETATM    1  C   UNL     1       4.533  28.138  53.903  1.00  0.00     0.259 C 
HETATM    2  N   UNL     1       5.281  27.416  52.998  1.00  0.00    -0.265 N 
HETATM    3  O   UNL     1       4.227  27.689  55.011  1.00  0.00    -0.269 OA
HETATM    4  H   UNL     1       5.663  27.816  52.137  1.00  0.00     0.190 HD
ENDROOT
BRANCH   2   5
HETATM    5  N   UNL     1       5.730  26.147  53.372  1.00  0.00    -0.263 N 
HETATM    6  C   UNL     1       7.066  25.949  53.680  1.00  0.00     0.278 C 
HETATM    7  O   UNL     1       7.857  26.891  53.618  1.00  0.00    -0.265 OA
HETATM    8  H   UNL     1       5.024  25.427  53.512  1.00  0.00     0.190 HD
BRANCH   6   9
HETATM    9  C   UNL     1       7.433  24.589  54.058  1.00  0.00     0.097 A 
HETATM   10  S   UNL     1       7.738  23.399  52.862  1.00  0.00    -0.082 SA
HETATM   11  C   UNL     1       8.133  22.193  54.017  1.00  0.00     0.017 A 
HETATM   12  C   UNL     1       8.018  22.678  55.321  1.00  0.00     0.004 A 
HETATM   13  C   UNL     1       8.530  20.868  53.748  1.00  0.00     0.020 A 
HETATM   14  C   UNL     1       7.606  24.061  55.325  1.00  0.00     0.068 A 
HETATM   15  C   UNL     1       8.315  21.783  56.382  1.00  0.00     0.014 A 
HETATM   16 CL   UNL     1       7.380  24.917  56.803  1.00  0.00    -0.082 Cl
HETATM   17  C   UNL     1       8.712  20.468  56.122  1.00  0.00     0.001 A 
HETATM   18  C   UNL     1       8.819  20.017  54.816  1.00  0.00     0.001 A 
ENDBRANCH   6   9
ENDBRANCH   2   5
BRANCH   1  19
HETATM   19  C   UNL     1       4.127  29.543  53.431  1.00  0.00     0.180 C 
BRANCH  19  20
HETATM   20  C   UNL     1       3.986  30.535  54.597  1.00  0.00     0.045 C 
BRANCH  20  21
HETATM   21  C   UNL     1       5.175  30.654  55.554  1.00  0.00     0.076 C 
BRANCH  21  22
HETATM   22  S   UNL     1       4.689  30.537  57.305  1.00  0.00    -0.173 SA
HETATM   23  C   UNL     1       6.156  31.291  58.050  1.00  0.00     0.089 C 
ENDBRANCH  21  22
ENDBRANCH  20  21
ENDBRANCH  19  20
BRANCH  19  24
HETATM   24  N   UNL     1       2.850  29.382  52.735  1.00  0.00    -0.330 N 
HETATM   25  C   UNL     1       2.769  29.062  51.420  1.00  0.00     0.314 C 
HETATM   26  N   UNL     1       1.489  28.975  50.984  1.00  0.00    -0.352 N 
HETATM   27  O   UNL     1       3.719  28.867  50.678  1.00  0.00    -0.248 OA
HETATM   28  H   UNL     1       0.809  28.603  51.631  1.00  0.00     0.160 HD
HETATM   29  H   UNL     1       1.415  28.615  50.040  1.00  0.00     0.160 HD
HETATM   30  H   UNL     1       2.019  29.720  53.205  1.00  0.00     0.165 HD
ENDBRANCH  19  24
ENDBRANCH   1  19
TORSDOF 7
ENDMDL
MODEL 10
REMARK VINA RESULT:      -7.2      2.520      3.091
REMARK  7 active torsions:
REMARK  status: ('A' for Active; 'I' for Inactive)
REMARK    1  A    between atoms: S_2  and  C_3 
REMARK    2  A    between atoms: C_3  and  C_4 
REMARK    3  A    between atoms: C_4  and  C_5 
REMARK    4  A    between atoms: C_5  and  N_6 
REMARK    5  A    between atoms: C_5  and  C_10 
REMARK       I    between atoms: N_6  and  C_7 
REMARK       I    between atoms: C_7  and  N_8 
REMARK       I    between atoms: C_10  and  N_11 
REMARK    6  A    between atoms: N_11  and  N_12 
REMARK       I    between atoms: N_12  and  C_13 
REMARK    7  A    between atoms: C_13  and  C_14 
ROOT
HETATM    1  C   UNL     1       4.966  29.009  55.796  1.00  0.00     0.259 C 
HETATM    2  N   UNL     1       4.384  27.968  55.106  1.00  0.00    -0.265 N 
HETATM    3  O   UNL     1       6.009  28.871  56.440  1.00  0.00    -0.269 OA
HETATM    4  H   UNL     1       3.603  28.088  54.455  1.00  0.00     0.190 HD
ENDROOT
BRANCH   2   5
HETATM    5  N   UNL     1       5.023  26.726  55.119  1.00  0.00    -0.263 N 
HETATM    6  C   UNL     1       5.978  26.429  54.160  1.00  0.00     0.278 C 
HETATM    7  O   UNL     1       6.257  27.259  53.294  1.00  0.00    -0.265 OA
HETATM    8  H   UNL     1       4.838  26.115  55.913  1.00  0.00     0.190 HD
BRANCH   6   9
HETATM    9  C   UNL     1       6.586  25.107  54.260  1.00  0.00     0.097 A 
HETATM   10  S   UNL     1       6.608  24.262  55.752  1.00  0.00    -0.082 SA
HETATM   11  C   UNL     1       7.375  22.884  55.078  1.00  0.00     0.017 A 
HETATM   12  C   UNL     1       7.638  23.060  53.718  1.00  0.00     0.004 A 
HETATM   13  C   UNL     1       7.719  21.697  55.755  1.00  0.00     0.020 A 
HETATM   14  C   UNL     1       7.182  24.353  53.265  1.00  0.00     0.068 A 
HETATM   15  C   UNL     1       8.274  21.994  53.030  1.00  0.00     0.014 A 
HETATM   16 CL   UNL     1       7.382  24.841  51.626  1.00  0.00    -0.082 Cl
HETATM   17  C   UNL     1       8.616  20.812  53.695  1.00  0.00     0.001 A 
HETATM   18  C   UNL     1       8.340  20.667  55.046  1.00  0.00     0.001 A 
ENDBRANCH   6   9
ENDBRANCH   2   5
BRANCH   1  19
HETATM   19  C   UNL     1       4.226  30.352  55.684  1.00  0.00     0.180 C 
BRANCH  19  20
HETATM   20  C   UNL     1       3.273  30.595  56.865  1.00  0.00     0.045 C 
BRANCH  20  21
HETATM   21  C   UNL     1       3.906  31.014  58.194  1.00  0.00     0.076 C 
BRANCH  21  22
HETATM   22  S   UNL     1       5.017  32.447  58.029  1.00  0.00    -0.173 SA
HETATM   23  C   UNL     1       6.559  31.664  58.562  1.00  0.00     0.089 C 
ENDBRANCH  21  22
ENDBRANCH  20  21
ENDBRANCH  19  20
BRANCH  19  24
HETATM   24  N   UNL     1       3.484  30.300  54.424  1.00  0.00    -0.330 N 
HETATM   25  C   UNL     1       3.535  31.293  53.503  1.00  0.00     0.314 C 
HETATM   26  N   UNL     1       2.763  31.038  52.419  1.00  0.00    -0.352 N 
HETATM   27  O   UNL     1       4.191  32.318  53.601  1.00  0.00    -0.248 OA
HETATM   28  H   UNL     1       2.704  30.077  52.114  1.00  0.00     0.160 HD
HETATM   29  H   UNL     1       2.891  31.711  51.673  1.00  0.00     0.160 HD
HETATM   30  H   UNL     1       2.760  29.597  54.341  1.00  0.00     0.165 HD
ENDBRANCH  19  24
ENDBRANCH   1  19
TORSDOF 7
ENDMDL
