MODEL 1
REMARK VINA RESULT:      -9.3      0.000      0.000
REMARK  5 active torsions:
REMARK  status: ('A' for Active; 'I' for Inactive)
REMARK    1  A    between atoms: C_9  and  C_10 
REMARK    2  A    between atoms: C_10  and  N_11 
REMARK    3  A    between atoms: N_11  and  C_14 
REMARK    4  A    between atoms: C_14  and  C_15 
REMARK    5  A    between atoms: C_16  and  C_17 
ROOT
HETATM    1  C   UNL     1       3.832  27.201  48.899  1.00  0.00    -0.036 A 
HETATM    2  C   UNL     1       2.840  28.183  49.000  1.00  0.00     0.013 A 
HETATM    3  C   UNL     1       1.747  28.170  48.129  1.00  0.00     0.023 A 
HETATM    4  C   UNL     1       1.642  27.180  47.147  1.00  0.00     0.044 A 
HETATM    5  C   UNL     1       0.518  27.166  46.257  1.00  0.00     0.099 C 
HETATM    6  N   UNL     1      -0.395  27.157  45.542  1.00  0.00    -0.191 NA
HETATM    7  C   UNL     1       2.636  26.202  47.040  1.00  0.00     0.023 A 
HETATM    8  C   UNL     1       3.728  26.213  47.914  1.00  0.00     0.013 A 
ENDROOT
BRANCH   1   9
HETATM    9  C   UNL     1       4.960  27.211  49.831  1.00  0.00     0.009 C 
HETATM   10  C   UNL     1       4.964  26.426  50.920  1.00  0.00     0.001 C 
BRANCH  10  11
HETATM   11  C   UNL     1       6.070  26.382  51.917  1.00  0.00     0.259 C 
BRANCH  11  12
HETATM   12  N   UNL     1       7.077  25.359  51.526  1.00  0.00    -0.071 N 
HETATM   13  H   UNL     1       7.711  25.802  50.841  1.00  0.00     0.277 HD
HETATM   14  H   UNL     1       6.587  24.615  51.010  1.00  0.00     0.277 HD
BRANCH  12  15
HETATM   15  C   UNL     1       7.841  24.766  52.670  1.00  0.00     0.242 C 
BRANCH  15  16
HETATM   16  C   UNL     1       6.995  23.820  53.558  1.00  0.00     0.055 C 
HETATM   17  C   UNL     1       7.708  22.520  53.866  1.00  0.00    -0.025 A 
HETATM   18  C   UNL     1       7.734  21.472  52.938  1.00  0.00     0.010 A 
HETATM   19  C   UNL     1       8.390  22.370  55.085  1.00  0.00     0.041 A 
HETATM   20  C   UNL     1       8.438  20.303  53.227  1.00  0.00     0.001 A 
HETATM   21  C   UNL     1       9.122  20.172  54.435  1.00  0.00     0.002 A 
HETATM   22  C   UNL     1       9.104  21.208  55.367  1.00  0.00     0.030 A 
HETATM   23  N   UNL     1       8.418  23.434  55.993  1.00  0.00    -0.327 N 
HETATM   24  C   UNL     1       7.687  24.577  55.823  1.00  0.00     0.222 C 
HETATM   25  H   UNL     1       9.067  23.416  56.774  1.00  0.00     0.169 HD
HETATM   26  O   UNL     1       8.022  25.641  56.331  1.00  0.00    -0.273 OA
HETATM   27  C   UNL     1       6.536  24.479  54.857  1.00  0.00     0.114 C 
ENDBRANCH  15  16
ENDBRANCH  12  15
ENDBRANCH  11  12
ENDBRANCH  10  11
ENDBRANCH   1   9
TORSDOF 5
ENDMDL
MODEL 2
REMARK VINA RESULT:      -9.3      5.001      8.498
REMARK  5 active torsions:
REMARK  status: ('A' for Active; 'I' for Inactive)
REMARK    1  A    between atoms: C_9  and  C_10 
REMARK    2  A    between atoms: C_10  and  N_11 
REMARK    3  A    between atoms: N_11  and  C_14 
REMARK    4  A    between atoms: C_14  and  C_15 
REMARK    5  A    between atoms: C_16  and  C_17 
ROOT
HETATM    1  C   UNL     1       6.937  24.523  54.207  1.00  0.00    -0.036 A 
HETATM    2  C   UNL     1       7.027  23.759  55.375  1.00  0.00     0.013 A 
HETATM    3  C   UNL     1       7.545  22.461  55.329  1.00  0.00     0.023 A 
HETATM    4  C   UNL     1       7.970  21.917  54.112  1.00  0.00     0.044 A 
HETATM    5  C   UNL     1       8.506  20.588  54.067  1.00  0.00     0.099 C 
HETATM    6  N   UNL     1       8.942  19.514  54.036  1.00  0.00    -0.191 NA
HETATM    7  C   UNL     1       7.875  22.678  52.943  1.00  0.00     0.023 A 
HETATM    8  C   UNL     1       7.360  23.977  52.990  1.00  0.00     0.013 A 
ENDROOT
BRANCH   1   9
HETATM    9  C   UNL     1       6.414  25.888  54.272  1.00  0.00     0.009 C 
HETATM   10  C   UNL     1       6.866  26.842  53.443  1.00  0.00     0.001 C 
BRANCH  10  11
HETATM   11  C   UNL     1       6.388  28.253  53.450  1.00  0.00     0.259 C 
BRANCH  11  12
HETATM   12  N   UNL     1       6.779  28.925  54.718  1.00  0.00    -0.071 N 
HETATM   13  H   UNL     1       6.191  28.526  55.468  1.00  0.00     0.277 HD
HETATM   14  H   UNL     1       6.505  29.915  54.648  1.00  0.00     0.277 HD
BRANCH  12  15
HETATM   15  C   UNL     1       8.235  28.823  55.056  1.00  0.00     0.242 C 
BRANCH  15  16
HETATM   16  C   UNL     1       8.505  28.396  56.519  1.00  0.00     0.055 C 
HETATM   17  C   UNL     1       8.962  29.550  57.387  1.00  0.00    -0.025 A 
HETATM   18  C   UNL     1      10.291  29.988  57.367  1.00  0.00     0.010 A 
HETATM   19  C   UNL     1       8.033  30.224  58.198  1.00  0.00     0.041 A 
HETATM   20  C   UNL     1      10.676  31.084  58.140  1.00  0.00     0.001 A 
HETATM   21  C   UNL     1       9.742  31.752  58.931  1.00  0.00     0.002 A 
HETATM   22  C   UNL     1       8.415  31.326  58.959  1.00  0.00     0.030 A 
HETATM   23  N   UNL     1       6.691  29.830  58.179  1.00  0.00    -0.327 N 
HETATM   24  C   UNL     1       6.251  28.717  57.517  1.00  0.00     0.222 C 
HETATM   25  H   UNL     1       5.982  30.427  58.595  1.00  0.00     0.169 HD
HETATM   26  O   UNL     1       5.094  28.612  57.127  1.00  0.00    -0.273 OA
HETATM   27  C   UNL     1       7.309  27.704  57.167  1.00  0.00     0.114 C 
ENDBRANCH  15  16
ENDBRANCH  12  15
ENDBRANCH  11  12
ENDBRANCH  10  11
ENDBRANCH   1   9
TORSDOF 5
ENDMDL
MODEL 3
REMARK VINA RESULT:      -9.3      6.318     10.369
REMARK  5 active torsions:
REMARK  status: ('A' for Active; 'I' for Inactive)
REMARK    1  A    between atoms: C_9  and  C_10 
REMARK    2  A    between atoms: C_10  and  N_11 
REMARK    3  A    between atoms: N_11  and  C_14 
REMARK    4  A    between atoms: C_14  and  C_15 
REMARK    5  A    between atoms: C_16  and  C_17 
ROOT
HETATM    1  C   UNL     1       8.761  31.099  60.037  1.00  0.00    -0.036 A 
HETATM    2  C   UNL     1       7.978  32.257  60.082  1.00  0.00     0.013 A 
HETATM    3  C   UNL     1       7.621  32.817  61.312  1.00  0.00     0.023 A 
HETATM    4  C   UNL     1       8.039  32.217  62.505  1.00  0.00     0.044 A 
HETATM    5  C   UNL     1       7.676  32.796  63.766  1.00  0.00     0.099 C 
HETATM    6  N   UNL     1       7.383  33.268  64.783  1.00  0.00    -0.191 NA
HETATM    7  C   UNL     1       8.817  31.056  62.461  1.00  0.00     0.023 A 
HETATM    8  C   UNL     1       9.177  30.498  61.230  1.00  0.00     0.013 A 
ENDROOT
BRANCH   1   9
HETATM    9  C   UNL     1       9.148  30.536  58.743  1.00  0.00     0.009 C 
HETATM   10  C   UNL     1       8.379  29.621  58.129  1.00  0.00     0.001 C 
BRANCH  10  11
HETATM   11  C   UNL     1       8.706  29.000  56.815  1.00  0.00     0.259 C 
BRANCH  11  12
HETATM   12  N   UNL     1       7.459  28.611  56.103  1.00  0.00    -0.071 N 
HETATM   13  H   UNL     1       7.050  29.476  55.712  1.00  0.00     0.277 HD
HETATM   14  H   UNL     1       6.784  28.279  56.807  1.00  0.00     0.277 HD
BRANCH  12  15
HETATM   15  C   UNL     1       7.643  27.568  55.044  1.00  0.00     0.242 C 
BRANCH  15  16
HETATM   16  C   UNL     1       6.715  26.340  55.213  1.00  0.00     0.055 C 
HETATM   17  C   UNL     1       7.289  25.087  54.585  1.00  0.00    -0.025 A 
HETATM   18  C   UNL     1       7.186  24.858  53.207  1.00  0.00     0.010 A 
HETATM   19  C   UNL     1       7.970  24.154  55.384  1.00  0.00     0.041 A 
HETATM   20  C   UNL     1       7.764  23.719  52.645  1.00  0.00     0.001 A 
HETATM   21  C   UNL     1       8.450  22.807  53.448  1.00  0.00     0.002 A 
HETATM   22  C   UNL     1       8.560  23.025  54.821  1.00  0.00     0.030 A 
HETATM   23  N   UNL     1       8.128  24.406  56.751  1.00  0.00    -0.327 N 
HETATM   24  C   UNL     1       7.522  25.451  57.390  1.00  0.00     0.222 C 
HETATM   25  H   UNL     1       8.784  23.853  57.295  1.00  0.00     0.169 HD
HETATM   26  O   UNL     1       7.978  25.930  58.422  1.00  0.00    -0.273 OA
HETATM   27  C   UNL     1       6.351  26.067  56.671  1.00  0.00     0.114 C 
ENDBRANCH  15  16
ENDBRANCH  12  15
ENDBRANCH  11  12
ENDBRANCH  10  11
ENDBRANCH   1   9
TORSDOF 5
ENDMDL
MODEL 4
REMARK VINA RESULT:      -9.3      4.429      7.561
REMARK  5 active torsions:
REMARK  status: ('A' for Active; 'I' for Inactive)
REMARK    1  A    between atoms: C_9  and  C_10 
REMARK    2  A    between atoms: C_10  and  N_11 
REMARK    3  A    between atoms: N_11  and  C_14 
REMARK    4  A    between atoms: C_14  and  C_15 
REMARK    5  A    between atoms: C_16  and  C_17 
ROOT
HETATM    1  C   UNL     1       7.385  28.820  56.213  1.00  0.00    -0.036 A 
HETATM    2  C   UNL     1       6.683  29.485  57.224  1.00  0.00     0.013 A 
HETATM    3  C   UNL     1       7.357  30.333  58.108  1.00  0.00     0.023 A 
HETATM    4  C   UNL     1       8.739  30.516  57.991  1.00  0.00     0.044 A 
HETATM    5  C   UNL     1       9.428  31.390  58.895  1.00  0.00     0.099 C 
HETATM    6  N   UNL     1       9.980  32.100  59.627  1.00  0.00    -0.191 NA
HETATM    7  C   UNL     1       9.443  29.847  56.985  1.00  0.00     0.023 A 
HETATM    8  C   UNL     1       8.768  29.001  56.098  1.00  0.00     0.013 A 
ENDROOT
BRANCH   1   9
HETATM    9  C   UNL     1       6.665  27.954  55.280  1.00  0.00     0.009 C 
HETATM   10  C   UNL     1       7.154  27.698  54.056  1.00  0.00     0.001 C 
BRANCH  10  11
HETATM   11  C   UNL     1       6.479  26.832  53.049  1.00  0.00     0.259 C 
BRANCH  11  12
HETATM   12  N   UNL     1       7.419  25.794  52.548  1.00  0.00    -0.071 N 
HETATM   13  H   UNL     1       8.143  26.281  51.995  1.00  0.00     0.277 HD
HETATM   14  H   UNL     1       6.908  25.203  51.876  1.00  0.00     0.277 HD
BRANCH  12  15
HETATM   15  C   UNL     1       8.032  24.938  53.613  1.00  0.00     0.242 C 
BRANCH  15  16
HETATM   16  C   UNL     1       7.055  23.896  54.211  1.00  0.00     0.055 C 
HETATM   17  C   UNL     1       7.661  22.510  54.289  1.00  0.00    -0.025 A 
HETATM   18  C   UNL     1       7.711  21.679  53.163  1.00  0.00     0.010 A 
HETATM   19  C   UNL     1       8.218  22.058  55.497  1.00  0.00     0.041 A 
HETATM   20  C   UNL     1       8.316  20.425  53.249  1.00  0.00     0.001 A 
HETATM   21  C   UNL     1       8.878  19.994  54.451  1.00  0.00     0.002 A 
HETATM   22  C   UNL     1       8.835  20.812  55.578  1.00  0.00     0.030 A 
HETATM   23  N   UNL     1       8.225  22.906  56.610  1.00  0.00    -0.327 N 
HETATM   24  C   UNL     1       7.579  24.111  56.632  1.00  0.00     0.222 C 
HETATM   25  H   UNL     1       8.798  22.677  57.417  1.00  0.00     0.169 HD
HETATM   26  O   UNL     1       7.928  25.017  57.380  1.00  0.00    -0.273 OA
HETATM   27  C   UNL     1       6.518  24.303  55.581  1.00  0.00     0.114 C 
ENDBRANCH  15  16
ENDBRANCH  12  15
ENDBRANCH  11  12
ENDBRANCH  10  11
ENDBRANCH   1   9
TORSDOF 5
ENDMDL
MODEL 5
REMARK VINA RESULT:      -9.2      4.967      7.515
REMARK  5 active torsions:
REMARK  status: ('A' for Active; 'I' for Inactive)
REMARK    1  A    between atoms: C_9  and  C_10 
REMARK    2  A    between atoms: C_10  and  N_11 
REMARK    3  A    between atoms: N_11  and  C_14 
REMARK    4  A    between atoms: C_14  and  C_15 
REMARK    5  A    between atoms: C_16  and  C_17 
ROOT
HETATM    1  C   UNL     1       7.757  25.022  53.859  1.00  0.00    -0.036 A 
HETATM    2  C   UNL     1       7.425  24.356  52.674  1.00  0.00     0.013 A 
HETATM    3  C   UNL     1       7.697  22.992  52.533  1.00  0.00     0.023 A 
HETATM    4  C   UNL     1       8.309  22.287  53.575  1.00  0.00     0.044 A 
HETATM    5  C   UNL     1       8.582  20.887  53.431  1.00  0.00     0.099 C 
HETATM    6  N   UNL     1       8.799  19.754  53.311  1.00  0.00    -0.191 NA
HETATM    7  C   UNL     1       8.647  22.952  54.757  1.00  0.00     0.023 A 
HETATM    8  C   UNL     1       8.372  24.316  54.899  1.00  0.00     0.013 A 
ENDROOT
BRANCH   1   9
HETATM    9  C   UNL     1       7.447  26.445  54.003  1.00  0.00     0.009 C 
HETATM   10  C   UNL     1       6.350  26.974  53.437  1.00  0.00     0.001 C 
BRANCH  10  11
HETATM   11  C   UNL     1       5.968  28.410  53.534  1.00  0.00     0.259 C 
BRANCH  11  12
HETATM   12  N   UNL     1       6.610  29.036  54.721  1.00  0.00    -0.071 N 
HETATM   13  H   UNL     1       7.421  29.577  54.379  1.00  0.00     0.277 HD
HETATM   14  H   UNL     1       7.004  28.282  55.301  1.00  0.00     0.277 HD
BRANCH  12  15
HETATM   15  C   UNL     1       5.697  29.889  55.548  1.00  0.00     0.242 C 
BRANCH  15  16
HETATM   16  C   UNL     1       5.535  29.393  57.006  1.00  0.00     0.055 C 
HETATM   17  C   UNL     1       5.829  27.915  57.153  1.00  0.00    -0.025 A 
HETATM   18  C   UNL     1       4.872  26.950  56.817  1.00  0.00     0.010 A 
HETATM   19  C   UNL     1       7.095  27.496  57.597  1.00  0.00     0.041 A 
HETATM   20  C   UNL     1       5.185  25.594  56.917  1.00  0.00     0.001 A 
HETATM   21  C   UNL     1       6.450  25.191  57.346  1.00  0.00     0.002 A 
HETATM   22  C   UNL     1       7.411  26.143  57.683  1.00  0.00     0.030 A 
HETATM   23  N   UNL     1       8.076  28.454  57.879  1.00  0.00    -0.327 N 
HETATM   24  C   UNL     1       7.824  29.797  57.888  1.00  0.00     0.222 C 
HETATM   25  H   UNL     1       9.043  28.167  58.000  1.00  0.00     0.169 HD
HETATM   26  O   UNL     1       8.709  30.622  57.692  1.00  0.00    -0.273 OA
HETATM   27  C   UNL     1       6.374  30.190  58.002  1.00  0.00     0.114 C 
ENDBRANCH  15  16
ENDBRANCH  12  15
ENDBRANCH  11  12
ENDBRANCH  10  11
ENDBRANCH   1   9
TORSDOF 5
ENDMDL
MODEL 6
REMARK VINA RESULT:      -8.9      5.166      8.879
REMARK  5 active torsions:
REMARK  status: ('A' for Active; 'I' for Inactive)
REMARK    1  A    between atoms: C_9  and  C_10 
REMARK    2  A    between atoms: C_10  and  N_11 
REMARK    3  A    between atoms: N_11  and  C_14 
REMARK    4  A    between atoms: C_14  and  C_15 
REMARK    5  A    between atoms: C_16  and  C_17 
ROOT
HETATM    1  C   UNL     1       6.987  24.822  54.365  1.00  0.00    -0.036 A 
HETATM    2  C   UNL     1       7.112  23.860  55.373  1.00  0.00     0.013 A 
HETATM    3  C   UNL     1       7.551  22.570  55.062  1.00  0.00     0.023 A 
HETATM    4  C   UNL     1       7.862  22.232  53.741  1.00  0.00     0.044 A 
HETATM    5  C   UNL     1       8.317  20.910  53.425  1.00  0.00     0.099 C 
HETATM    6  N   UNL     1       8.688  19.840  53.174  1.00  0.00    -0.191 NA
HETATM    7  C   UNL     1       7.731  23.192  52.732  1.00  0.00     0.023 A 
HETATM    8  C   UNL     1       7.295  24.483  53.043  1.00  0.00     0.013 A 
ENDROOT
BRANCH   1   9
HETATM    9  C   UNL     1       6.548  26.176  54.706  1.00  0.00     0.009 C 
HETATM   10  C   UNL     1       5.280  26.565  54.498  1.00  0.00     0.001 C 
BRANCH  10  11
HETATM   11  C   UNL     1       4.758  27.924  54.815  1.00  0.00     0.259 C 
BRANCH  11  12
HETATM   12  N   UNL     1       4.284  27.980  56.224  1.00  0.00    -0.071 N 
HETATM   13  H   UNL     1       3.893  27.051  56.450  1.00  0.00     0.277 HD
HETATM   14  H   UNL     1       3.488  28.633  56.263  1.00  0.00     0.277 HD
BRANCH  12  15
HETATM   15  C   UNL     1       5.326  28.389  57.218  1.00  0.00     0.242 C 
BRANCH  15  16
HETATM   16  C   UNL     1       6.117  29.655  56.805  1.00  0.00     0.055 C 
HETATM   17  C   UNL     1       6.234  30.661  57.931  1.00  0.00    -0.025 A 
HETATM   18  C   UNL     1       5.181  31.532  58.234  1.00  0.00     0.010 A 
HETATM   19  C   UNL     1       7.400  30.700  58.713  1.00  0.00     0.041 A 
HETATM   20  C   UNL     1       5.296  32.417  59.307  1.00  0.00     0.001 A 
HETATM   21  C   UNL     1       6.454  32.436  60.084  1.00  0.00     0.002 A 
HETATM   22  C   UNL     1       7.509  31.573  59.792  1.00  0.00     0.030 A 
HETATM   23  N   UNL     1       8.433  29.792  58.453  1.00  0.00    -0.327 N 
HETATM   24  C   UNL     1       8.434  28.955  57.373  1.00  0.00     0.222 C 
HETATM   25  H   UNL     1       9.183  29.672  59.128  1.00  0.00     0.169 HD
HETATM   26  O   UNL     1       9.059  27.901  57.372  1.00  0.00    -0.273 OA
HETATM   27  C   UNL     1       7.503  29.334  56.251  1.00  0.00     0.114 C 
ENDBRANCH  15  16
ENDBRANCH  12  15
ENDBRANCH  11  12
ENDBRANCH  10  11
ENDBRANCH   1   9
TORSDOF 5
ENDMDL
MODEL 7
REMARK VINA RESULT:      -8.9      4.120      7.949
REMARK  5 active torsions:
REMARK  status: ('A' for Active; 'I' for Inactive)
REMARK    1  A    between atoms: C_9  and  C_10 
REMARK    2  A    between atoms: C_10  and  N_11 
REMARK    3  A    between atoms: N_11  and  C_14 
REMARK    4  A    between atoms: C_14  and  C_15 
REMARK    5  A    between atoms: C_16  and  C_17 
ROOT
HETATM    1  C   UNL     1       7.031  24.150  53.642  1.00  0.00    -0.036 A 
HETATM    2  C   UNL     1       7.062  23.717  54.972  1.00  0.00     0.013 A 
HETATM    3  C   UNL     1       7.581  22.459  55.290  1.00  0.00     0.023 A 
HETATM    4  C   UNL     1       8.066  21.623  54.279  1.00  0.00     0.044 A 
HETATM    5  C   UNL     1       8.603  20.335  54.608  1.00  0.00     0.099 C 
HETATM    6  N   UNL     1       9.040  19.295  54.879  1.00  0.00    -0.191 NA
HETATM    7  C   UNL     1       8.030  22.052  52.949  1.00  0.00     0.023 A 
HETATM    8  C   UNL     1       7.514  23.312  52.631  1.00  0.00     0.013 A 
ENDROOT
BRANCH   1   9
HETATM    9  C   UNL     1       6.506  25.478  53.324  1.00  0.00     0.009 C 
HETATM   10  C   UNL     1       5.242  25.639  52.901  1.00  0.00     0.001 C 
BRANCH  10  11
HETATM   11  C   UNL     1       4.636  26.956  52.554  1.00  0.00     0.259 C 
BRANCH  11  12
HETATM   12  N   UNL     1       3.724  27.406  53.640  1.00  0.00    -0.071 N 
HETATM   13  H   UNL     1       3.683  26.646  54.337  1.00  0.00     0.277 HD
HETATM   14  H   UNL     1       2.775  27.474  53.246  1.00  0.00     0.277 HD
BRANCH  12  15
HETATM   15  C   UNL     1       4.103  28.709  54.274  1.00  0.00     0.242 C 
BRANCH  15  16
HETATM   16  C   UNL     1       3.981  28.707  55.818  1.00  0.00     0.055 C 
HETATM   17  C   UNL     1       5.164  28.047  56.494  1.00  0.00    -0.025 A 
HETATM   18  C   UNL     1       5.255  26.654  56.594  1.00  0.00     0.010 A 
HETATM   19  C   UNL     1       6.210  28.838  56.999  1.00  0.00     0.041 A 
HETATM   20  C   UNL     1       6.378  26.069  57.180  1.00  0.00     0.001 A 
HETATM   21  C   UNL     1       7.416  26.865  57.664  1.00  0.00     0.002 A 
HETATM   22  C   UNL     1       7.338  28.254  57.570  1.00  0.00     0.030 A 
HETATM   23  N   UNL     1       6.154  30.228  56.850  1.00  0.00    -0.327 N 
HETATM   24  C   UNL     1       5.054  30.881  56.367  1.00  0.00     0.222 C 
HETATM   25  H   UNL     1       6.983  30.790  57.022  1.00  0.00     0.169 HD
HETATM   26  O   UNL     1       5.139  31.981  55.831  1.00  0.00    -0.273 OA
HETATM   27  C   UNL     1       3.765  30.103  56.398  1.00  0.00     0.114 C 
ENDBRANCH  15  16
ENDBRANCH  12  15
ENDBRANCH  11  12
ENDBRANCH  10  11
ENDBRANCH   1   9
TORSDOF 5
ENDMDL
MODEL 8
REMARK VINA RESULT:      -8.8      7.371     11.199
REMARK  5 active torsions:
REMARK  status: ('A' for Active; 'I' for Inactive)
REMARK    1  A    between atoms: C_9  and  C_10 
REMARK    2  A    between atoms: C_10  and  N_11 
REMARK    3  A    between atoms: N_11  and  C_14 
REMARK    4  A    between atoms: C_14  and  C_15 
REMARK    5  A    between atoms: C_16  and  C_17 
ROOT
HETATM    1  C   UNL     1       8.711  32.114  60.632  1.00  0.00    -0.036 A 
HETATM    2  C   UNL     1       7.399  32.482  60.310  1.00  0.00     0.013 A 
HETATM    3  C   UNL     1       6.457  32.684  61.323  1.00  0.00     0.023 A 
HETATM    4  C   UNL     1       6.819  32.513  62.663  1.00  0.00     0.044 A 
HETATM    5  C   UNL     1       5.852  32.726  63.701  1.00  0.00     0.099 C 
HETATM    6  N   UNL     1       5.068  32.903  64.537  1.00  0.00    -0.191 NA
HETATM    7  C   UNL     1       8.127  32.140  62.985  1.00  0.00     0.023 A 
HETATM    8  C   UNL     1       9.071  31.941  61.973  1.00  0.00     0.013 A 
ENDROOT
BRANCH   1   9
HETATM    9  C   UNL     1       9.694  31.927  59.564  1.00  0.00     0.009 C 
HETATM   10  C   UNL     1       9.574  30.923  58.682  1.00  0.00     0.001 C 
BRANCH  10  11
HETATM   11  C   UNL     1      10.533  30.665  57.571  1.00  0.00     0.259 C 
BRANCH  11  12
HETATM   12  N   UNL     1      10.035  29.564  56.703  1.00  0.00    -0.071 N 
HETATM   13  H   UNL     1      10.815  28.898  56.579  1.00  0.00     0.277 HD
HETATM   14  H   UNL     1       9.854  29.956  55.769  1.00  0.00     0.277 HD
BRANCH  12  15
HETATM   15  C   UNL     1       8.806  28.875  57.212  1.00  0.00     0.242 C 
BRANCH  15  16
HETATM   16  C   UNL     1       7.700  28.708  56.142  1.00  0.00     0.055 C 
HETATM   17  C   UNL     1       6.972  27.385  56.260  1.00  0.00    -0.025 A 
HETATM   18  C   UNL     1       7.523  26.208  55.740  1.00  0.00     0.010 A 
HETATM   19  C   UNL     1       5.742  27.323  56.936  1.00  0.00     0.041 A 
HETATM   20  C   UNL     1       6.855  24.994  55.904  1.00  0.00     0.001 A 
HETATM   21  C   UNL     1       5.640  24.944  56.589  1.00  0.00     0.002 A 
HETATM   22  C   UNL     1       5.082  26.109  57.112  1.00  0.00     0.030 A 
HETATM   23  N   UNL     1       5.214  28.485  57.509  1.00  0.00    -0.327 N 
HETATM   24  C   UNL     1       5.762  29.723  57.322  1.00  0.00     0.222 C 
HETATM   25  H   UNL     1       4.442  28.419  58.167  1.00  0.00     0.169 HD
HETATM   26  O   UNL     1       5.601  30.631  58.130  1.00  0.00    -0.273 OA
HETATM   27  C   UNL     1       6.692  29.855  56.145  1.00  0.00     0.114 C 
ENDBRANCH  15  16
ENDBRANCH  12  15
ENDBRANCH  11  12
ENDBRANCH  10  11
ENDBRANCH   1   9
TORSDOF 5
ENDMDL
MODEL 9
REMARK VINA RESULT:      -8.7      8.762     12.600
REMARK  5 active torsions:
REMARK  status: ('A' for Active; 'I' for Inactive)
REMARK    1  A    between atoms: C_9  and  C_10 
REMARK    2  A    between atoms: C_10  and  N_11 
REMARK    3  A    between atoms: N_11  and  C_14 
REMARK    4  A    between atoms: C_14  and  C_15 
REMARK    5  A    between atoms: C_16  and  C_17 
ROOT
HETATM    1  C   UNL     1       7.660  32.438  62.870  1.00  0.00    -0.036 A 
HETATM    2  C   UNL     1       6.298  32.233  62.620  1.00  0.00     0.013 A 
HETATM    3  C   UNL     1       5.341  32.676  63.536  1.00  0.00     0.023 A 
HETATM    4  C   UNL     1       5.738  33.322  64.711  1.00  0.00     0.044 A 
HETATM    5  C   UNL     1       4.754  33.780  65.648  1.00  0.00     0.099 C 
HETATM    6  N   UNL     1       3.954  34.153  66.401  1.00  0.00    -0.191 NA
HETATM    7  C   UNL     1       7.098  33.522  64.965  1.00  0.00     0.023 A 
HETATM    8  C   UNL     1       8.057  33.082  64.047  1.00  0.00     0.013 A 
ENDROOT
BRANCH   1   9
HETATM    9  C   UNL     1       8.652  31.990  61.892  1.00  0.00     0.009 C 
HETATM   10  C   UNL     1       8.532  32.304  60.592  1.00  0.00     0.001 C 
BRANCH  10  11
HETATM   11  C   UNL     1       9.497  31.883  59.537  1.00  0.00     0.259 C 
BRANCH  11  12
HETATM   12  N   UNL     1       9.255  30.467  59.152  1.00  0.00    -0.071 N 
HETATM   13  H   UNL     1       9.687  29.875  59.880  1.00  0.00     0.277 HD
HETATM   14  H   UNL     1       9.786  30.279  58.290  1.00  0.00     0.277 HD
BRANCH  12  15
HETATM   15  C   UNL     1       7.814  30.112  58.947  1.00  0.00     0.242 C 
BRANCH  15  16
HETATM   16  C   UNL     1       7.465  29.750  57.483  1.00  0.00     0.055 C 
HETATM   17  C   UNL     1       7.236  28.266  57.290  1.00  0.00    -0.025 A 
HETATM   18  C   UNL     1       8.312  27.380  57.154  1.00  0.00     0.010 A 
HETATM   19  C   UNL     1       5.927  27.756  57.285  1.00  0.00     0.041 A 
HETATM   20  C   UNL     1       8.076  26.011  57.025  1.00  0.00     0.001 A 
HETATM   21  C   UNL     1       6.771  25.517  57.035  1.00  0.00     0.002 A 
HETATM   22  C   UNL     1       5.692  26.388  57.170  1.00  0.00     0.030 A 
HETATM   23  N   UNL     1       4.850  28.627  57.479  1.00  0.00    -0.327 N 
HETATM   24  C   UNL     1       4.991  29.986  57.528  1.00  0.00     0.222 C 
HETATM   25  H   UNL     1       3.927  28.254  57.681  1.00  0.00     0.169 HD
HETATM   26  O   UNL     1       4.185  30.699  58.116  1.00  0.00    -0.273 OA
HETATM   27  C   UNL     1       6.268  30.532  56.946  1.00  0.00     0.114 C 
ENDBRANCH  15  16
ENDBRANCH  12  15
ENDBRANCH  11  12
ENDBRANCH  10  11
ENDBRANCH   1   9
TORSDOF 5
ENDMDL
MODEL 10
REMARK VINA RESULT:      -8.7      8.633     12.586
REMARK  5 active torsions:
REMARK  status: ('A' for Active; 'I' for Inactive)
REMARK    1  A    between atoms: C_9  and  C_10 
REMARK    2  A    between atoms: C_10  and  N_11 
REMARK    3  A    between atoms: N_11  and  C_14 
REMARK    4  A    between atoms: C_14  and  C_15 
REMARK    5  A    between atoms: C_16  and  C_17 
ROOT
HETATM    1  C   UNL     1       7.212  32.470  62.953  1.00  0.00    -0.036 A 
HETATM    2  C   UNL     1       5.815  32.395  62.932  1.00  0.00     0.013 A 
HETATM    3  C   UNL     1       5.068  32.896  64.002  1.00  0.00     0.023 A 
HETATM    4  C   UNL     1       5.713  33.469  65.102  1.00  0.00     0.044 A 
HETATM    5  C   UNL     1       4.944  33.987  66.197  1.00  0.00     0.099 C 
HETATM    6  N   UNL     1       4.318  34.408  67.078  1.00  0.00    -0.191 NA
HETATM    7  C   UNL     1       7.109  33.539  65.128  1.00  0.00     0.023 A 
HETATM    8  C   UNL     1       7.857  33.040  64.056  1.00  0.00     0.013 A 
ENDROOT
BRANCH   1   9
HETATM    9  C   UNL     1       7.982  31.962  61.817  1.00  0.00     0.009 C 
HETATM   10  C   UNL     1       7.443  31.899  60.589  1.00  0.00     0.001 C 
BRANCH  10  11
HETATM   11  C   UNL     1       8.160  31.392  59.386  1.00  0.00     0.259 C 
BRANCH  11  12
HETATM   12  N   UNL     1       8.017  29.915  59.283  1.00  0.00    -0.071 N 
HETATM   13  H   UNL     1       7.537  29.595  60.140  1.00  0.00     0.277 HD
HETATM   14  H   UNL     1       8.961  29.504  59.324  1.00  0.00     0.277 HD
BRANCH  12  15
HETATM   15  C   UNL     1       7.309  29.440  58.052  1.00  0.00     0.242 C 
BRANCH  15  16
HETATM   16  C   UNL     1       7.993  28.230  57.369  1.00  0.00     0.055 C 
HETATM   17  C   UNL     1       7.306  27.824  56.082  1.00  0.00    -0.025 A 
HETATM   18  C   UNL     1       6.146  27.042  56.096  1.00  0.00     0.010 A 
HETATM   19  C   UNL     1       7.814  28.270  54.850  1.00  0.00     0.041 A 
HETATM   20  C   UNL     1       5.505  26.722  54.899  1.00  0.00     0.001 A 
HETATM   21  C   UNL     1       6.013  27.182  53.683  1.00  0.00     0.002 A 
HETATM   22  C   UNL     1       7.167  27.962  53.656  1.00  0.00     0.030 A 
HETATM   23  N   UNL     1       8.940  29.101  54.831  1.00  0.00    -0.327 N 
HETATM   24  C   UNL     1       9.671  29.390  55.949  1.00  0.00     0.222 C 
HETATM   25  H   UNL     1       9.193  29.591  53.977  1.00  0.00     0.169 HD
HETATM   26  O   UNL     1      10.342  30.412  56.037  1.00  0.00    -0.273 OA
HETATM   27  C   UNL     1       9.481  28.454  57.114  1.00  0.00     0.114 C 
ENDBRANCH  15  16
ENDBRANCH  12  15
ENDBRANCH  11  12
ENDBRANCH  10  11
ENDBRANCH   1   9
TORSDOF 5
ENDMDL
