MODEL 1
REMARK VINA RESULT:      -9.3      0.000      0.000
REMARK  3 active torsions:
REMARK  status: ('A' for Active; 'I' for Inactive)
REMARK    1  A    between atoms: C_4  and  N_5 
REMARK       I    between atoms: N_5  and  C_6 
REMARK    2  A    between atoms: C_6  and  C_7 
REMARK    3  A    between atoms: C_7  and  C_8 
ROOT
HETATM    1  C   UNL     1       6.624  27.528  56.173  1.00  0.00     0.286 C 
HETATM    2  N   UNL     1       8.116  27.825  56.050  1.00  0.00    -0.056 N 
HETATM    3  H   UNL     1       8.542  27.529  56.956  1.00  0.00     0.278 HD
HETATM    4  H   UNL     1       8.543  27.226  55.335  1.00  0.00     0.278 HD
HETATM    5  C   UNL     1       8.408  29.281  55.791  1.00  0.00     0.209 C 
HETATM    6  C   UNL     1       7.783  30.137  56.922  1.00  0.00     0.115 C 
HETATM    7  N   UNL     1       6.376  29.812  57.138  1.00  0.00    -0.353 N 
HETATM    8  C   UNL     1       5.861  28.544  57.054  1.00  0.00     0.249 C 
HETATM    9  O   UNL     1       4.786  28.284  57.583  1.00  0.00    -0.271 OA
HETATM   10  C   UNL     1       9.919  29.480  55.674  1.00  0.00     0.035 C 
HETATM   11  C   UNL     1      10.651  29.349  57.008  1.00  0.00     0.002 C 
HETATM   12  C   UNL     1      10.048  30.262  58.069  1.00  0.00     0.002 C 
HETATM   13  C   UNL     1       8.554  30.016  58.246  1.00  0.00     0.027 C 
HETATM   14  H   UNL     1       5.824  30.434  57.727  1.00  0.00     0.163 HD
ENDROOT
BRANCH   1  15
HETATM   15  C   UNL     1       6.374  26.093  56.661  1.00  0.00     0.146 C 
BRANCH  15  16
HETATM   16  C   UNL     1       7.643  25.532  57.260  1.00  0.00     0.224 C 
HETATM   17  N   UNL     1       8.321  24.500  56.700  1.00  0.00    -0.327 N 
HETATM   18  H   UNL     1       9.012  24.099  57.327  1.00  0.00     0.169 HD
HETATM   19  O   UNL     1       8.048  26.019  58.326  1.00  0.00    -0.273 OA
BRANCH  17  20
HETATM   20  C   UNL     1       8.176  23.841  55.467  1.00  0.00     0.035 A 
HETATM   21  C   UNL     1       8.192  22.454  55.310  1.00  0.00     0.036 A 
HETATM   22  C   UNL     1       8.041  21.877  54.039  1.00  0.00    -0.059 A 
HETATM   23  C   UNL     1       8.011  20.386  53.871  1.00  0.00     0.048 C 
HETATM   24  C   UNL     1       7.849  22.705  52.927  1.00  0.00     0.013 A 
HETATM   25  C   UNL     1       7.814  24.095  53.070  1.00  0.00    -0.059 A 
HETATM   26  C   UNL     1       7.949  24.651  54.347  1.00  0.00     0.036 A 
HETATM   27  C   UNL     1       7.582  24.974  51.875  1.00  0.00     0.048 C 
ENDBRANCH  17  20
ENDBRANCH  15  16
ENDBRANCH   1  15
TORSDOF 3
ENDMDL
MODEL 2
REMARK VINA RESULT:      -9.1      0.609      1.933
REMARK  3 active torsions:
REMARK  status: ('A' for Active; 'I' for Inactive)
REMARK    1  A    between atoms: C_4  and  N_5 
REMARK       I    between atoms: N_5  and  C_6 
REMARK    2  A    between atoms: C_6  and  C_7 
REMARK    3  A    between atoms: C_7  and  C_8 
ROOT
HETATM    1  C   UNL     1       6.607  27.204  56.174  1.00  0.00     0.286 C 
HETATM    2  N   UNL     1       7.977  27.762  56.548  1.00  0.00    -0.056 N 
HETATM    3  H   UNL     1       8.023  27.734  57.590  1.00  0.00     0.278 HD
HETATM    4  H   UNL     1       8.721  27.134  56.222  1.00  0.00     0.278 HD
HETATM    5  C   UNL     1       8.195  29.170  56.057  1.00  0.00     0.209 C 
HETATM    6  C   UNL     1       7.074  30.085  56.614  1.00  0.00     0.115 C 
HETATM    7  N   UNL     1       5.745  29.535  56.362  1.00  0.00    -0.353 N 
HETATM    8  C   UNL     1       5.447  28.197  56.416  1.00  0.00     0.249 C 
HETATM    9  O   UNL     1       4.284  27.835  56.550  1.00  0.00    -0.271 OA
HETATM   10  C   UNL     1       9.591  29.639  56.468  1.00  0.00     0.035 C 
HETATM   11  C   UNL     1       9.720  29.912  57.965  1.00  0.00     0.002 C 
HETATM   12  C   UNL     1       8.641  30.872  58.453  1.00  0.00     0.002 C 
HETATM   13  C   UNL     1       7.242  30.373  58.115  1.00  0.00     0.027 C 
HETATM   14  H   UNL     1       4.937  30.135  56.522  1.00  0.00     0.163 HD
ENDROOT
BRANCH   1  15
HETATM   15  C   UNL     1       6.332  25.868  56.879  1.00  0.00     0.146 C 
BRANCH  15  16
HETATM   16  C   UNL     1       7.632  25.282  57.381  1.00  0.00     0.224 C 
HETATM   17  N   UNL     1       8.320  24.338  56.693  1.00  0.00    -0.327 N 
HETATM   18  H   UNL     1       9.039  23.890  57.254  1.00  0.00     0.169 HD
HETATM   19  O   UNL     1       8.053  25.659  58.484  1.00  0.00    -0.273 OA
BRANCH  17  20
HETATM   20  C   UNL     1       8.159  23.815  55.398  1.00  0.00     0.035 A 
HETATM   21  C   UNL     1       7.919  24.588  54.262  1.00  0.00     0.036 A 
HETATM   22  C   UNL     1       7.770  23.984  53.004  1.00  0.00    -0.059 A 
HETATM   23  C   UNL     1       7.558  24.815  51.772  1.00  0.00     0.048 C 
HETATM   24  C   UNL     1       7.887  22.593  52.891  1.00  0.00     0.013 A 
HETATM   25  C   UNL     1       8.144  21.806  54.017  1.00  0.00    -0.059 A 
HETATM   26  C   UNL     1       8.308  22.429  55.259  1.00  0.00     0.036 A 
HETATM   27  C   UNL     1       8.294  20.317  53.883  1.00  0.00     0.048 C 
ENDBRANCH  17  20
ENDBRANCH  15  16
ENDBRANCH   1  15
TORSDOF 3
ENDMDL
MODEL 3
REMARK VINA RESULT:      -8.8      2.173      3.106
REMARK  3 active torsions:
REMARK  status: ('A' for Active; 'I' for Inactive)
REMARK    1  A    between atoms: C_4  and  N_5 
REMARK       I    between atoms: N_5  and  C_6 
REMARK    2  A    between atoms: C_6  and  C_7 
REMARK    3  A    between atoms: C_7  and  C_8 
ROOT
HETATM    1  C   UNL     1       5.213  26.836  55.069  1.00  0.00     0.286 C 
HETATM    2  N   UNL     1       6.217  27.981  54.987  1.00  0.00    -0.056 N 
HETATM    3  H   UNL     1       7.115  27.553  54.670  1.00  0.00     0.278 HD
HETATM    4  H   UNL     1       5.950  28.641  54.249  1.00  0.00     0.278 HD
HETATM    5  C   UNL     1       6.417  28.686  56.305  1.00  0.00     0.209 C 
HETATM    6  C   UNL     1       6.865  27.656  57.374  1.00  0.00     0.115 C 
HETATM    7  N   UNL     1       5.982  26.493  57.415  1.00  0.00    -0.353 N 
HETATM    8  C   UNL     1       5.408  25.928  56.305  1.00  0.00     0.249 C 
HETATM    9  O   UNL     1       4.985  24.778  56.355  1.00  0.00    -0.271 OA
HETATM   10  C   UNL     1       7.427  29.818  56.125  1.00  0.00     0.035 C 
HETATM   11  C   UNL     1       8.859  29.325  55.927  1.00  0.00     0.002 C 
HETATM   12  C   UNL     1       9.281  28.371  57.040  1.00  0.00     0.002 C 
HETATM   13  C   UNL     1       8.319  27.197  57.175  1.00  0.00     0.027 C 
HETATM   14  H   UNL     1       6.075  25.846  58.196  1.00  0.00     0.163 HD
ENDROOT
BRANCH   1  15
HETATM   15  C   UNL     1       5.205  26.001  53.780  1.00  0.00     0.146 C 
BRANCH  15  16
HETATM   16  C   UNL     1       6.446  26.303  52.972  1.00  0.00     0.224 C 
HETATM   17  N   UNL     1       7.552  25.521  53.014  1.00  0.00    -0.327 N 
HETATM   18  H   UNL     1       8.365  25.968  52.600  1.00  0.00     0.169 HD
HETATM   19  O   UNL     1       6.453  27.330  52.279  1.00  0.00    -0.273 OA
BRANCH  17  20
HETATM   20  C   UNL     1       7.793  24.265  53.598  1.00  0.00     0.035 A 
HETATM   21  C   UNL     1       7.862  23.067  52.887  1.00  0.00     0.036 A 
HETATM   22  C   UNL     1       8.107  21.855  53.551  1.00  0.00    -0.059 A 
HETATM   23  C   UNL     1       8.227  20.570  52.785  1.00  0.00     0.048 C 
HETATM   24  C   UNL     1       8.306  21.858  54.936  1.00  0.00     0.013 A 
HETATM   25  C   UNL     1       8.258  23.052  55.661  1.00  0.00    -0.059 A 
HETATM   26  C   UNL     1       8.030  24.253  54.979  1.00  0.00     0.036 A 
HETATM   27  C   UNL     1       8.499  23.050  57.143  1.00  0.00     0.048 C 
ENDBRANCH  17  20
ENDBRANCH  15  16
ENDBRANCH   1  15
TORSDOF 3
ENDMDL
MODEL 4
REMARK VINA RESULT:      -8.6      4.122      5.623
REMARK  3 active torsions:
REMARK  status: ('A' for Active; 'I' for Inactive)
REMARK    1  A    between atoms: C_4  and  N_5 
REMARK       I    between atoms: N_5  and  C_6 
REMARK    2  A    between atoms: C_6  and  C_7 
REMARK    3  A    between atoms: C_7  and  C_8 
ROOT
HETATM    1  C   UNL     1       4.587  27.074  53.268  1.00  0.00     0.286 C 
HETATM    2  N   UNL     1       3.687  27.552  52.133  1.00  0.00    -0.056 N 
HETATM    3  H   UNL     1       4.183  27.303  51.250  1.00  0.00     0.278 HD
HETATM    4  H   UNL     1       2.812  27.016  52.119  1.00  0.00     0.278 HD
HETATM    5  C   UNL     1       3.419  29.035  52.176  1.00  0.00     0.209 C 
HETATM    6  C   UNL     1       4.768  29.799  52.148  1.00  0.00     0.115 C 
HETATM    7  N   UNL     1       5.697  29.303  53.160  1.00  0.00    -0.353 N 
HETATM    8  C   UNL     1       5.815  27.982  53.509  1.00  0.00     0.249 C 
HETATM    9  O   UNL     1       6.827  27.588  54.079  1.00  0.00    -0.271 OA
HETATM   10  C   UNL     1       2.506  29.419  51.012  1.00  0.00     0.035 C 
HETATM   11  C   UNL     1       3.203  29.367  49.655  1.00  0.00     0.002 C 
HETATM   12  C   UNL     1       4.486  30.190  49.653  1.00  0.00     0.002 C 
HETATM   13  C   UNL     1       5.437  29.762  50.765  1.00  0.00     0.027 C 
HETATM   14  H   UNL     1       6.537  29.848  53.350  1.00  0.00     0.163 HD
ENDROOT
BRANCH   1  15
HETATM   15  C   UNL     1       5.022  25.616  53.065  1.00  0.00     0.146 C 
BRANCH  15  16
HETATM   16  C   UNL     1       6.031  25.539  51.943  1.00  0.00     0.224 C 
HETATM   17  N   UNL     1       7.218  24.897  52.072  1.00  0.00    -0.327 N 
HETATM   18  H   UNL     1       7.868  25.120  51.324  1.00  0.00     0.169 HD
HETATM   19  O   UNL     1       5.767  26.123  50.882  1.00  0.00    -0.273 OA
BRANCH  17  20
HETATM   20  C   UNL     1       7.732  24.066  53.083  1.00  0.00     0.035 A 
HETATM   21  C   UNL     1       8.030  24.496  54.377  1.00  0.00     0.036 A 
HETATM   22  C   UNL     1       8.542  23.599  55.327  1.00  0.00    -0.059 A 
HETATM   23  C   UNL     1       8.821  24.045  56.733  1.00  0.00     0.048 C 
HETATM   24  C   UNL     1       8.730  22.257  54.975  1.00  0.00     0.013 A 
HETATM   25  C   UNL     1       8.420  21.807  53.688  1.00  0.00    -0.059 A 
HETATM   26  C   UNL     1       7.894  22.713  52.760  1.00  0.00     0.036 A 
HETATM   27  C   UNL     1       8.601  20.361  53.326  1.00  0.00     0.048 C 
ENDBRANCH  17  20
ENDBRANCH  15  16
ENDBRANCH   1  15
TORSDOF 3
ENDMDL
MODEL 5
REMARK VINA RESULT:      -8.6      1.952      3.309
REMARK  3 active torsions:
REMARK  status: ('A' for Active; 'I' for Inactive)
REMARK    1  A    between atoms: C_4  and  N_5 
REMARK       I    between atoms: N_5  and  C_6 
REMARK    2  A    between atoms: C_6  and  C_7 
REMARK    3  A    between atoms: C_7  and  C_8 
ROOT
HETATM    1  C   UNL     1       6.504  27.637  56.218  1.00  0.00     0.286 C 
HETATM    2  N   UNL     1       6.277  28.693  57.296  1.00  0.00    -0.056 N 
HETATM    3  H   UNL     1       5.329  28.503  57.688  1.00  0.00     0.278 HD
HETATM    4  H   UNL     1       6.931  28.556  58.075  1.00  0.00     0.278 HD
HETATM    5  C   UNL     1       6.345  30.102  56.764  1.00  0.00     0.209 C 
HETATM    6  C   UNL     1       5.308  30.270  55.624  1.00  0.00     0.115 C 
HETATM    7  N   UNL     1       5.428  29.218  54.619  1.00  0.00    -0.353 N 
HETATM    8  C   UNL     1       5.727  27.911  54.909  1.00  0.00     0.249 C 
HETATM    9  O   UNL     1       5.466  27.029  54.099  1.00  0.00    -0.271 OA
HETATM   10  C   UNL     1       6.118  31.086  57.911  1.00  0.00     0.035 C 
HETATM   11  C   UNL     1       4.673  31.114  58.406  1.00  0.00     0.002 C 
HETATM   12  C   UNL     1       3.695  31.353  57.261  1.00  0.00     0.002 C 
HETATM   13  C   UNL     1       3.864  30.328  56.146  1.00  0.00     0.027 C 
HETATM   14  H   UNL     1       4.923  29.331  53.741  1.00  0.00     0.163 HD
ENDROOT
BRANCH   1  15
HETATM   15  C   UNL     1       6.203  26.225  56.741  1.00  0.00     0.146 C 
BRANCH  15  16
HETATM   16  C   UNL     1       7.458  25.624  57.331  1.00  0.00     0.224 C 
HETATM   17  N   UNL     1       8.139  24.620  56.727  1.00  0.00    -0.327 N 
HETATM   18  H   UNL     1       8.817  24.180  57.343  1.00  0.00     0.169 HD
HETATM   19  O   UNL     1       7.846  26.049  58.429  1.00  0.00    -0.273 OA
BRANCH  17  20
HETATM   20  C   UNL     1       8.013  24.030  55.457  1.00  0.00     0.035 A 
HETATM   21  C   UNL     1       7.892  24.746  54.266  1.00  0.00     0.036 A 
HETATM   22  C   UNL     1       7.770  24.076  53.039  1.00  0.00    -0.059 A 
HETATM   23  C   UNL     1       7.686  24.841  51.750  1.00  0.00     0.048 C 
HETATM   24  C   UNL     1       7.793  22.676  53.014  1.00  0.00     0.013 A 
HETATM   25  C   UNL     1       7.931  21.944  54.197  1.00  0.00    -0.059 A 
HETATM   26  C   UNL     1       8.070  22.631  55.409  1.00  0.00     0.036 A 
HETATM   27  C   UNL     1       7.982  20.444  54.159  1.00  0.00     0.048 C 
ENDBRANCH  17  20
ENDBRANCH  15  16
ENDBRANCH   1  15
TORSDOF 3
ENDMDL
MODEL 6
REMARK VINA RESULT:      -8.6      2.097      6.819
REMARK  3 active torsions:
REMARK  status: ('A' for Active; 'I' for Inactive)
REMARK    1  A    between atoms: C_4  and  N_5 
REMARK       I    between atoms: N_5  and  C_6 
REMARK    2  A    between atoms: C_6  and  C_7 
REMARK    3  A    between atoms: C_7  and  C_8 
ROOT
HETATM    1  C   UNL     1       7.013  24.727  54.539  1.00  0.00     0.286 C 
HETATM    2  N   UNL     1       7.234  23.371  53.875  1.00  0.00    -0.056 N 
HETATM    3  H   UNL     1       6.518  22.732  54.285  1.00  0.00     0.278 HD
HETATM    4  H   UNL     1       7.017  23.423  52.873  1.00  0.00     0.278 HD
HETATM    5  C   UNL     1       8.617  22.819  54.108  1.00  0.00     0.209 C 
HETATM    6  C   UNL     1       8.877  22.717  55.633  1.00  0.00     0.115 C 
HETATM    7  N   UNL     1       8.581  23.971  56.322  1.00  0.00    -0.353 N 
HETATM    8  C   UNL     1       7.540  24.799  55.991  1.00  0.00     0.249 C 
HETATM    9  O   UNL     1       7.132  25.623  56.802  1.00  0.00    -0.271 OA
HETATM   10  C   UNL     1       8.748  21.470  53.401  1.00  0.00     0.035 C 
HETATM   11  C   UNL     1       7.956  20.354  54.078  1.00  0.00     0.002 C 
HETATM   12  C   UNL     1       8.297  20.244  55.559  1.00  0.00     0.002 C 
HETATM   13  C   UNL     1       8.095  21.567  56.288  1.00  0.00     0.027 C 
HETATM   14  H   UNL     1       8.887  24.071  57.289  1.00  0.00     0.163 HD
ENDROOT
BRANCH   1  15
HETATM   15  C   UNL     1       5.538  25.150  54.477  1.00  0.00     0.146 C 
BRANCH  15  16
HETATM   16  C   UNL     1       5.346  26.162  53.371  1.00  0.00     0.224 C 
HETATM   17  N   UNL     1       5.578  27.487  53.546  1.00  0.00    -0.327 N 
HETATM   18  H   UNL     1       5.196  28.054  52.794  1.00  0.00     0.169 HD
HETATM   19  O   UNL     1       4.923  25.757  52.279  1.00  0.00    -0.273 OA
BRANCH  17  20
HETATM   20  C   UNL     1       6.159  28.207  54.604  1.00  0.00     0.035 A 
HETATM   21  C   UNL     1       7.530  28.416  54.753  1.00  0.00     0.036 A 
HETATM   22  C   UNL     1       8.027  29.149  55.843  1.00  0.00    -0.059 A 
HETATM   23  C   UNL     1       9.497  29.416  55.983  1.00  0.00     0.048 C 
HETATM   24  C   UNL     1       7.131  29.692  56.772  1.00  0.00     0.013 A 
HETATM   25  C   UNL     1       5.753  29.506  56.627  1.00  0.00    -0.059 A 
HETATM   26  C   UNL     1       5.277  28.788  55.524  1.00  0.00     0.036 A 
HETATM   27  C   UNL     1       4.798  30.113  57.613  1.00  0.00     0.048 C 
ENDBRANCH  17  20
ENDBRANCH  15  16
ENDBRANCH   1  15
TORSDOF 3
ENDMDL
MODEL 7
REMARK VINA RESULT:      -8.6      2.376      3.358
REMARK  3 active torsions:
REMARK  status: ('A' for Active; 'I' for Inactive)
REMARK    1  A    between atoms: C_4  and  N_5 
REMARK       I    between atoms: N_5  and  C_6 
REMARK    2  A    between atoms: C_6  and  C_7 
REMARK    3  A    between atoms: C_7  and  C_8 
ROOT
HETATM    1  C   UNL     1       6.123  27.705  53.754  1.00  0.00     0.286 C 
HETATM    2  N   UNL     1       7.360  27.673  54.646  1.00  0.00    -0.056 N 
HETATM    3  H   UNL     1       7.121  27.043  55.444  1.00  0.00     0.278 HD
HETATM    4  H   UNL     1       8.141  27.219  54.160  1.00  0.00     0.278 HD
HETATM    5  C   UNL     1       7.752  29.035  55.160  1.00  0.00     0.209 C 
HETATM    6  C   UNL     1       6.556  29.657  55.926  1.00  0.00     0.115 C 
HETATM    7  N   UNL     1       5.326  29.617  55.140  1.00  0.00    -0.353 N 
HETATM    8  C   UNL     1       4.977  28.578  54.315  1.00  0.00     0.249 C 
HETATM    9  O   UNL     1       3.808  28.434  53.973  1.00  0.00    -0.271 OA
HETATM   10  C   UNL     1       9.001  28.905  56.032  1.00  0.00     0.035 C 
HETATM   11  C   UNL     1       8.730  28.238  57.379  1.00  0.00     0.002 C 
HETATM   12  C   UNL     1       7.595  28.928  58.127  1.00  0.00     0.002 C 
HETATM   13  C   UNL     1       6.322  28.992  57.292  1.00  0.00     0.027 C 
HETATM   14  H   UNL     1       4.527  30.157  55.469  1.00  0.00     0.163 HD
ENDROOT
BRANCH   1  15
HETATM   15  C   UNL     1       5.620  26.289  53.438  1.00  0.00     0.146 C 
BRANCH  15  16
HETATM   16  C   UNL     1       6.241  25.806  52.147  1.00  0.00     0.224 C 
HETATM   17  N   UNL     1       7.211  24.860  52.113  1.00  0.00    -0.327 N 
HETATM   18  H   UNL     1       7.676  24.806  51.211  1.00  0.00     0.169 HD
HETATM   19  O   UNL     1       5.867  26.333  51.089  1.00  0.00    -0.273 OA
BRANCH  17  20
HETATM   20  C   UNL     1       7.741  24.021  53.109  1.00  0.00     0.035 A 
HETATM   21  C   UNL     1       8.034  24.434  54.410  1.00  0.00     0.036 A 
HETATM   22  C   UNL     1       8.562  23.529  55.344  1.00  0.00    -0.059 A 
HETATM   23  C   UNL     1       8.836  23.955  56.757  1.00  0.00     0.048 C 
HETATM   24  C   UNL     1       8.771  22.197  54.969  1.00  0.00     0.013 A 
HETATM   25  C   UNL     1       8.467  21.764  53.675  1.00  0.00    -0.059 A 
HETATM   26  C   UNL     1       7.924  22.677  52.763  1.00  0.00     0.036 A 
HETATM   27  C   UNL     1       8.670  20.327  53.288  1.00  0.00     0.048 C 
ENDBRANCH  17  20
ENDBRANCH  15  16
ENDBRANCH   1  15
TORSDOF 3
ENDMDL
MODEL 8
REMARK VINA RESULT:      -8.3      4.013      5.150
REMARK  3 active torsions:
REMARK  status: ('A' for Active; 'I' for Inactive)
REMARK    1  A    between atoms: C_4  and  N_5 
REMARK       I    between atoms: N_5  and  C_6 
REMARK    2  A    between atoms: C_6  and  C_7 
REMARK    3  A    between atoms: C_7  and  C_8 
ROOT
HETATM    1  C   UNL     1       5.713  25.526  51.668  1.00  0.00     0.286 C 
HETATM    2  N   UNL     1       5.849  26.778  50.806  1.00  0.00    -0.056 N 
HETATM    3  H   UNL     1       6.551  27.382  51.288  1.00  0.00     0.278 HD
HETATM    4  H   UNL     1       6.264  26.544  49.897  1.00  0.00     0.278 HD
HETATM    5  C   UNL     1       4.550  27.524  50.640  1.00  0.00     0.209 C 
HETATM    6  C   UNL     1       3.990  27.894  52.037  1.00  0.00     0.115 C 
HETATM    7  N   UNL     1       3.936  26.737  52.927  1.00  0.00    -0.353 N 
HETATM    8  C   UNL     1       4.884  25.747  52.954  1.00  0.00     0.249 C 
HETATM    9  O   UNL     1       4.978  25.017  53.935  1.00  0.00    -0.271 OA
HETATM   10  C   UNL     1       4.781  28.751  49.758  1.00  0.00     0.035 C 
HETATM   11  C   UNL     1       5.573  29.855  50.455  1.00  0.00     0.002 C 
HETATM   12  C   UNL     1       4.945  30.236  51.790  1.00  0.00     0.002 C 
HETATM   13  C   UNL     1       4.782  29.029  52.706  1.00  0.00     0.027 C 
HETATM   14  H   UNL     1       3.420  26.827  53.801  1.00  0.00     0.163 HD
ENDROOT
BRANCH   1  15
HETATM   15  C   UNL     1       7.084  24.923  52.004  1.00  0.00     0.146 C 
BRANCH  15  16
HETATM   16  C   UNL     1       7.691  25.661  53.175  1.00  0.00     0.224 C 
HETATM   17  N   UNL     1       8.065  25.036  54.318  1.00  0.00    -0.327 N 
HETATM   18  H   UNL     1       8.242  25.684  55.080  1.00  0.00     0.169 HD
HETATM   19  O   UNL     1       7.809  26.892  53.089  1.00  0.00    -0.273 OA
BRANCH  17  20
HETATM   20  C   UNL     1       8.160  23.675  54.656  1.00  0.00     0.035 A 
HETATM   21  C   UNL     1       8.188  23.189  55.964  1.00  0.00     0.036 A 
HETATM   22  C   UNL     1       8.285  21.811  56.213  1.00  0.00    -0.059 A 
HETATM   23  C   UNL     1       8.269  21.281  57.617  1.00  0.00     0.048 C 
HETATM   24  C   UNL     1       8.330  20.919  55.134  1.00  0.00     0.013 A 
HETATM   25  C   UNL     1       8.286  21.389  53.818  1.00  0.00    -0.059 A 
HETATM   26  C   UNL     1       8.171  22.765  53.591  1.00  0.00     0.036 A 
HETATM   27  C   UNL     1       8.309  20.424  52.668  1.00  0.00     0.048 C 
ENDBRANCH  17  20
ENDBRANCH  15  16
ENDBRANCH   1  15
TORSDOF 3
ENDMDL
MODEL 9
REMARK VINA RESULT:      -8.3      8.254     11.083
REMARK  3 active torsions:
REMARK  status: ('A' for Active; 'I' for Inactive)
REMARK    1  A    between atoms: C_4  and  N_5 
REMARK       I    between atoms: N_5  and  C_6 
REMARK    2  A    between atoms: C_6  and  C_7 
REMARK    3  A    between atoms: C_7  and  C_8 
ROOT
HETATM    1  C   UNL     1       2.936  34.565  61.717  1.00  0.00     0.286 C 
HETATM    2  N   UNL     1       3.817  35.690  61.182  1.00  0.00    -0.056 N 
HETATM    3  H   UNL     1       4.801  35.396  61.366  1.00  0.00     0.278 HD
HETATM    4  H   UNL     1       3.734  35.756  60.161  1.00  0.00     0.278 HD
HETATM    5  C   UNL     1       3.541  37.018  61.840  1.00  0.00     0.209 C 
HETATM    6  C   UNL     1       3.724  36.877  63.373  1.00  0.00     0.115 C 
HETATM    7  N   UNL     1       2.972  35.746  63.911  1.00  0.00    -0.353 N 
HETATM    8  C   UNL     1       2.817  34.550  63.258  1.00  0.00     0.249 C 
HETATM    9  O   UNL     1       2.499  33.547  63.887  1.00  0.00    -0.271 OA
HETATM   10  C   UNL     1       4.458  38.082  61.237  1.00  0.00     0.035 C 
HETATM   11  C   UNL     1       5.918  37.931  61.661  1.00  0.00     0.002 C 
HETATM   12  C   UNL     1       6.055  37.870  63.178  1.00  0.00     0.002 C 
HETATM   13  C   UNL     1       5.202  36.761  63.781  1.00  0.00     0.027 C 
HETATM   14  H   UNL     1       2.876  35.671  64.922  1.00  0.00     0.163 HD
ENDROOT
BRANCH   1  15
HETATM   15  C   UNL     1       3.396  33.195  61.196  1.00  0.00     0.146 C 
BRANCH  15  16
HETATM   16  C   UNL     1       4.331  33.385  60.024  1.00  0.00     0.224 C 
HETATM   17  N   UNL     1       5.680  33.353  60.153  1.00  0.00    -0.327 N 
HETATM   18  H   UNL     1       6.161  33.714  59.335  1.00  0.00     0.169 HD
HETATM   19  O   UNL     1       3.832  33.618  58.913  1.00  0.00    -0.273 OA
BRANCH  17  20
HETATM   20  C   UNL     1       6.512  33.004  61.231  1.00  0.00     0.035 A 
HETATM   21  C   UNL     1       6.451  33.593  62.495  1.00  0.00     0.036 A 
HETATM   22  C   UNL     1       7.321  33.183  63.517  1.00  0.00    -0.059 A 
HETATM   23  C   UNL     1       7.229  33.781  64.891  1.00  0.00     0.048 C 
HETATM   24  C   UNL     1       8.240  32.157  63.267  1.00  0.00     0.013 A 
HETATM   25  C   UNL     1       8.302  31.545  62.012  1.00  0.00    -0.059 A 
HETATM   26  C   UNL     1       7.414  31.955  61.011  1.00  0.00     0.036 A 
HETATM   27  C   UNL     1       9.273  30.427  61.761  1.00  0.00     0.048 C 
ENDBRANCH  17  20
ENDBRANCH  15  16
ENDBRANCH   1  15
TORSDOF 3
ENDMDL
MODEL 10
REMARK VINA RESULT:      -8.2      2.639      7.746
REMARK  3 active torsions:
REMARK  status: ('A' for Active; 'I' for Inactive)
REMARK    1  A    between atoms: C_4  and  N_5 
REMARK       I    between atoms: N_5  and  C_6 
REMARK    2  A    between atoms: C_6  and  C_7 
REMARK    3  A    between atoms: C_7  and  C_8 
ROOT
HETATM    1  C   UNL     1       6.828  27.900  57.354  1.00  0.00     0.286 C 
HETATM    2  N   UNL     1       7.643  26.689  56.908  1.00  0.00    -0.056 N 
HETATM    3  H   UNL     1       7.816  26.821  55.888  1.00  0.00     0.278 HD
HETATM    4  H   UNL     1       8.569  26.698  57.350  1.00  0.00     0.278 HD
HETATM    5  C   UNL     1       6.934  25.380  57.148  1.00  0.00     0.209 C 
HETATM    6  C   UNL     1       5.564  25.400  56.424  1.00  0.00     0.115 C 
HETATM    7  N   UNL     1       4.792  26.596  56.749  1.00  0.00    -0.353 N 
HETATM    8  C   UNL     1       5.344  27.839  56.926  1.00  0.00     0.249 C 
HETATM    9  O   UNL     1       4.639  28.839  56.840  1.00  0.00    -0.271 OA
HETATM   10  C   UNL     1       7.826  24.230  56.682  1.00  0.00     0.035 C 
HETATM   11  C   UNL     1       7.943  24.134  55.162  1.00  0.00     0.002 C 
HETATM   12  C   UNL     1       6.572  24.083  54.498  1.00  0.00     0.002 C 
HETATM   13  C   UNL     1       5.703  25.269  54.899  1.00  0.00     0.027 C 
HETATM   14  H   UNL     1       3.811  26.625  56.475  1.00  0.00     0.163 HD
ENDROOT
BRANCH   1  15
HETATM   15  C   UNL     1       7.473  29.214  56.890  1.00  0.00     0.146 C 
BRANCH  15  16
HETATM   16  C   UNL     1       8.840  29.358  57.517  1.00  0.00     0.224 C 
HETATM   17  N   UNL     1       9.094  30.234  58.521  1.00  0.00    -0.327 N 
HETATM   18  H   UNL     1      10.088  30.372  58.679  1.00  0.00     0.169 HD
HETATM   19  O   UNL     1       9.765  28.671  57.061  1.00  0.00    -0.273 OA
BRANCH  17  20
HETATM   20  C   UNL     1       8.246  31.037  59.303  1.00  0.00     0.035 A 
HETATM   21  C   UNL     1       7.072  31.629  58.835  1.00  0.00     0.036 A 
HETATM   22  C   UNL     1       6.282  32.419  59.685  1.00  0.00    -0.059 A 
HETATM   23  C   UNL     1       4.995  33.020  59.200  1.00  0.00     0.048 C 
HETATM   24  C   UNL     1       6.669  32.591  61.020  1.00  0.00     0.013 A 
HETATM   25  C   UNL     1       7.833  31.991  61.508  1.00  0.00    -0.059 A 
HETATM   26  C   UNL     1       8.597  31.192  60.650  1.00  0.00     0.036 A 
HETATM   27  C   UNL     1       8.226  32.159  62.948  1.00  0.00     0.048 C 
ENDBRANCH  17  20
ENDBRANCH  15  16
ENDBRANCH   1  15
TORSDOF 3
ENDMDL
