MODEL 1
REMARK VINA RESULT:     -12.1      0.000      0.000
REMARK  6 active torsions:
REMARK  status: ('A' for Active; 'I' for Inactive)
REMARK       I    between atoms: N_1  and  C_2 
REMARK    1  A    between atoms: C_2  and  C_4 
REMARK    2  A    between atoms: C_7  and  N_8 
REMARK       I    between atoms: N_8  and  C_9 
REMARK       I    between atoms: C_9  and  N_11 
REMARK    3  A    between atoms: N_11  and  C_12 
REMARK    4  A    between atoms: C_12  and  C_13 
REMARK    5  A    between atoms: C_17  and  C_19 
REMARK       I    between atoms: C_19  and  N_21 
REMARK    6  A    between atoms: N_21  and  C_22 
ROOT
HETATM    1  C   UNL     1       7.815  29.602  56.603  1.00  0.00    -0.040 A 
HETATM    2  C   UNL     1       9.127  29.289  56.222  1.00  0.00     0.009 A 
HETATM    3  C   UNL     1      10.209  29.802  56.935  1.00  0.00     0.002 A 
HETATM    4  C   UNL     1       9.986  30.618  58.044  1.00  0.00     0.017 A 
HETATM    5  C   UNL     1       8.682  30.928  58.457  1.00  0.00     0.032 A 
HETATM    6  C   UNL     1       7.599  30.424  57.724  1.00  0.00     0.026 A 
ENDROOT
BRANCH   1   7
HETATM    7  C   UNL     1       6.645  29.035  55.840  1.00  0.00     0.162 C 
BRANCH   7   8
HETATM    8  N   UNL     1       6.466  27.630  56.130  1.00  0.00    -0.339 N 
HETATM    9  C   UNL     1       6.989  26.658  55.303  1.00  0.00     0.320 C 
HETATM   10  N   UNL     1       6.725  25.401  55.802  1.00  0.00    -0.309 N 
HETATM   11  O   UNL     1       7.625  26.928  54.293  1.00  0.00    -0.247 OA
HETATM   12  H   UNL     1       6.279  25.375  56.706  1.00  0.00     0.170 HD
HETATM   13  H   UNL     1       5.642  27.385  56.658  1.00  0.00     0.164 HD
BRANCH  10  14
HETATM   14  C   UNL     1       7.132  24.158  55.274  1.00  0.00     0.036 A 
HETATM   15  C   UNL     1       7.035  23.813  53.924  1.00  0.00     0.030 A 
HETATM   16  C   UNL     1       7.489  22.568  53.471  1.00  0.00     0.019 A 
HETATM   17  C   UNL     1       8.049  21.652  54.368  1.00  0.00     0.032 A 
HETATM   18  C   UNL     1       8.119  21.982  55.725  1.00  0.00     0.019 A 
HETATM   19  C   UNL     1       7.667  23.227  56.173  1.00  0.00     0.030 A 
BRANCH  17  20
HETATM   20  C   UNL     1       8.560  20.324  53.935  1.00  0.00     0.249 C 
HETATM   21  N   UNL     1       9.084  19.504  54.895  1.00  0.00    -0.366 N 
HETATM   22  H   UNL     1       9.326  18.567  54.598  1.00  0.00     0.159 HD
HETATM   23  H   UNL     1       8.953  19.663  55.883  1.00  0.00     0.159 HD
HETATM   24  O   UNL     1       8.480  19.955  52.770  1.00  0.00    -0.268 OA
ENDBRANCH  17  20
ENDBRANCH  10  14
ENDBRANCH   7   8
ENDBRANCH   1   7
BRANCH   5  25
HETATM   25  C   UNL     1       8.526  31.806  59.660  1.00  0.00     0.256 C 
HETATM   26  O   UNL     1       9.243  32.798  59.732  1.00  0.00    -0.267 OA
HETATM   27  N   UNL     1       7.593  31.402  60.600  1.00  0.00    -0.323 N 
HETATM   28  H   UNL     1       7.080  30.550  60.422  1.00  0.00     0.169 HD
BRANCH  27  29
HETATM   29  C   UNL     1       7.306  32.025  61.836  1.00  0.00     0.035 A 
HETATM   30  C   UNL     1       8.247  32.224  62.846  1.00  0.00     0.030 A 
HETATM   31  C   UNL     1       7.881  32.829  64.053  1.00  0.00     0.010 A 
HETATM   32  C   UNL     1       6.569  33.263  64.261  1.00  0.00    -0.048 A 
HETATM   33  C   UNL     1       6.171  33.870  65.583  1.00  0.00     0.069 C 
HETATM   34  C   UNL     1       5.607  33.065  63.259  1.00  0.00    -0.022 A 
HETATM   35  C   UNL     1       4.845  34.633  65.494  1.00  0.00     0.274 C 
HETATM   36  N   UNL     1       3.817  33.827  64.829  1.00  0.00     0.087 N 
HETATM   37  C   UNL     1       4.194  33.575  63.432  1.00  0.00     0.308 C 
HETATM   38  H   UNL     1       2.931  34.329  64.843  1.00  0.00     0.316 HD
HETATM   39  C   UNL     1       5.987  32.453  62.051  1.00  0.00     0.039 A 
ENDBRANCH  27  29
ENDBRANCH   5  25
TORSDOF 6
ENDMDL
MODEL 2
REMARK VINA RESULT:     -12.1      1.958     12.323
REMARK  6 active torsions:
REMARK  status: ('A' for Active; 'I' for Inactive)
REMARK       I    between atoms: N_1  and  C_2 
REMARK    1  A    between atoms: C_2  and  C_4 
REMARK    2  A    between atoms: C_7  and  N_8 
REMARK       I    between atoms: N_8  and  C_9 
REMARK       I    between atoms: C_9  and  N_11 
REMARK    3  A    between atoms: N_11  and  C_12 
REMARK    4  A    between atoms: C_12  and  C_13 
REMARK    5  A    between atoms: C_17  and  C_19 
REMARK       I    between atoms: C_19  and  N_21 
REMARK    6  A    between atoms: N_21  and  C_22 
ROOT
HETATM    1  C   UNL     1       7.134  29.597  57.475  1.00  0.00    -0.040 A 
HETATM    2  C   UNL     1       5.964  30.334  57.248  1.00  0.00     0.009 A 
HETATM    3  C   UNL     1       4.893  29.761  56.565  1.00  0.00     0.002 A 
HETATM    4  C   UNL     1       4.977  28.442  56.120  1.00  0.00     0.017 A 
HETATM    5  C   UNL     1       6.129  27.678  56.355  1.00  0.00     0.032 A 
HETATM    6  C   UNL     1       7.210  28.267  57.025  1.00  0.00     0.026 A 
ENDROOT
BRANCH   1   7
HETATM    7  C   UNL     1       8.288  30.212  58.226  1.00  0.00     0.162 C 
BRANCH   7   8
HETATM    8  N   UNL     1       8.064  30.166  59.654  1.00  0.00    -0.339 N 
HETATM    9  C   UNL     1       7.650  31.283  60.348  1.00  0.00     0.320 C 
HETATM   10  N   UNL     1       7.466  30.987  61.682  1.00  0.00    -0.309 N 
HETATM   11  O   UNL     1       7.452  32.360  59.802  1.00  0.00    -0.247 OA
HETATM   12  H   UNL     1       7.576  30.016  61.932  1.00  0.00     0.170 HD
HETATM   13  H   UNL     1       8.598  29.481  60.166  1.00  0.00     0.164 HD
BRANCH  10  14
HETATM   14  C   UNL     1       7.005  31.844  62.702  1.00  0.00     0.036 A 
HETATM   15  C   UNL     1       5.656  32.040  63.006  1.00  0.00     0.030 A 
HETATM   16  C   UNL     1       5.276  32.887  64.055  1.00  0.00     0.019 A 
HETATM   17  C   UNL     1       6.247  33.546  64.816  1.00  0.00     0.032 A 
HETATM   18  C   UNL     1       7.597  33.376  64.496  1.00  0.00     0.019 A 
HETATM   19  C   UNL     1       7.972  32.528  63.448  1.00  0.00     0.030 A 
BRANCH  17  20
HETATM   20  C   UNL     1       5.897  34.442  65.951  1.00  0.00     0.249 C 
HETATM   21  N   UNL     1       6.666  34.365  67.078  1.00  0.00    -0.366 N 
HETATM   22  H   UNL     1       6.479  35.055  67.794  1.00  0.00     0.159 HD
HETATM   23  H   UNL     1       7.560  33.896  67.102  1.00  0.00     0.159 HD
HETATM   24  O   UNL     1       4.982  35.251  65.870  1.00  0.00    -0.268 OA
ENDBRANCH  17  20
ENDBRANCH  10  14
ENDBRANCH   7   8
ENDBRANCH   1   7
BRANCH   5  25
HETATM   25  C   UNL     1       6.141  26.268  55.851  1.00  0.00     0.256 C 
HETATM   26  O   UNL     1       5.189  25.553  56.147  1.00  0.00    -0.267 OA
HETATM   27  N   UNL     1       7.246  25.890  55.107  1.00  0.00    -0.323 N 
HETATM   28  H   UNL     1       7.969  26.577  54.951  1.00  0.00     0.169 HD
BRANCH  27  29
HETATM   29  C   UNL     1       7.514  24.608  54.574  1.00  0.00     0.035 A 
HETATM   30  C   UNL     1       7.385  24.282  53.224  1.00  0.00     0.030 A 
HETATM   31  C   UNL     1       7.647  22.983  52.775  1.00  0.00     0.010 A 
HETATM   32  C   UNL     1       8.061  21.993  53.670  1.00  0.00    -0.048 A 
HETATM   33  C   UNL     1       8.294  20.583  53.188  1.00  0.00     0.069 C 
HETATM   34  C   UNL     1       8.190  22.301  55.033  1.00  0.00    -0.022 A 
HETATM   35  C   UNL     1       9.107  19.756  54.189  1.00  0.00     0.274 C 
HETATM   36  N   UNL     1       8.561  19.882  55.543  1.00  0.00     0.087 N 
HETATM   37  C   UNL     1       8.690  21.266  56.015  1.00  0.00     0.308 C 
HETATM   38  H   UNL     1       9.076  19.271  56.174  1.00  0.00     0.316 HD
HETATM   39  C   UNL     1       7.920  23.610  55.472  1.00  0.00     0.039 A 
ENDBRANCH  27  29
ENDBRANCH   5  25
TORSDOF 6
ENDMDL
MODEL 3
REMARK VINA RESULT:     -11.2      3.629      4.679
REMARK  6 active torsions:
REMARK  status: ('A' for Active; 'I' for Inactive)
REMARK       I    between atoms: N_1  and  C_2 
REMARK    1  A    between atoms: C_2  and  C_4 
REMARK    2  A    between atoms: C_7  and  N_8 
REMARK       I    between atoms: N_8  and  C_9 
REMARK       I    between atoms: C_9  and  N_11 
REMARK    3  A    between atoms: N_11  and  C_12 
REMARK    4  A    between atoms: C_12  and  C_13 
REMARK    5  A    between atoms: C_17  and  C_19 
REMARK       I    between atoms: C_19  and  N_21 
REMARK    6  A    between atoms: N_21  and  C_22 
ROOT
HETATM    1  C   UNL     1       8.103  29.284  56.676  1.00  0.00    -0.040 A 
HETATM    2  C   UNL     1       9.410  29.208  56.174  1.00  0.00     0.009 A 
HETATM    3  C   UNL     1      10.434  29.948  56.762  1.00  0.00     0.002 A 
HETATM    4  C   UNL     1      10.163  30.756  57.866  1.00  0.00     0.017 A 
HETATM    5  C   UNL     1       8.868  30.831  58.400  1.00  0.00     0.032 A 
HETATM    6  C   UNL     1       7.839  30.099  57.792  1.00  0.00     0.026 A 
ENDROOT
BRANCH   1   7
HETATM    7  C   UNL     1       6.998  28.472  56.050  1.00  0.00     0.162 C 
BRANCH   7   8
HETATM    8  N   UNL     1       6.917  28.713  54.627  1.00  0.00    -0.339 N 
HETATM    9  C   UNL     1       5.977  28.072  53.847  1.00  0.00     0.320 C 
HETATM   10  N   UNL     1       6.066  28.489  52.536  1.00  0.00    -0.309 N 
HETATM   11  O   UNL     1       5.171  27.276  54.311  1.00  0.00    -0.247 OA
HETATM   12  H   UNL     1       6.723  29.234  52.359  1.00  0.00     0.170 HD
HETATM   13  H   UNL     1       7.772  28.993  54.173  1.00  0.00     0.164 HD
BRANCH  10  14
HETATM   14  C   UNL     1       5.253  28.106  51.450  1.00  0.00     0.036 A 
HETATM   15  C   UNL     1       4.231  28.898  50.923  1.00  0.00     0.030 A 
HETATM   16  C   UNL     1       3.483  28.459  49.821  1.00  0.00     0.019 A 
HETATM   17  C   UNL     1       3.755  27.220  49.233  1.00  0.00     0.032 A 
HETATM   18  C   UNL     1       4.758  26.411  49.777  1.00  0.00     0.019 A 
HETATM   19  C   UNL     1       5.503  26.853  50.876  1.00  0.00     0.030 A 
BRANCH  17  20
HETATM   20  C   UNL     1       3.004  26.716  48.053  1.00  0.00     0.249 C 
HETATM   21  N   UNL     1       1.654  26.547  48.186  1.00  0.00    -0.366 N 
HETATM   22  H   UNL     1       1.148  26.308  47.343  1.00  0.00     0.159 HD
HETATM   23  H   UNL     1       1.127  26.935  48.955  1.00  0.00     0.159 HD
HETATM   24  O   UNL     1       3.560  26.498  46.984  1.00  0.00    -0.268 OA
ENDBRANCH  17  20
ENDBRANCH  10  14
ENDBRANCH   7   8
ENDBRANCH   1   7
BRANCH   5  25
HETATM   25  C   UNL     1       8.659  31.716  59.589  1.00  0.00     0.256 C 
HETATM   26  O   UNL     1       9.346  32.729  59.668  1.00  0.00    -0.267 OA
HETATM   27  N   UNL     1       7.714  31.295  60.511  1.00  0.00    -0.323 N 
HETATM   28  H   UNL     1       7.229  30.428  60.329  1.00  0.00     0.169 HD
BRANCH  27  29
HETATM   29  C   UNL     1       7.380  31.923  61.733  1.00  0.00     0.035 A 
HETATM   30  C   UNL     1       8.283  32.130  62.776  1.00  0.00     0.030 A 
HETATM   31  C   UNL     1       7.872  32.739  63.966  1.00  0.00     0.010 A 
HETATM   32  C   UNL     1       6.551  33.168  64.125  1.00  0.00    -0.048 A 
HETATM   33  C   UNL     1       6.103  33.779  65.428  1.00  0.00     0.069 C 
HETATM   34  C   UNL     1       5.627  32.962  63.089  1.00  0.00    -0.022 A 
HETATM   35  C   UNL     1       4.779  34.536  65.288  1.00  0.00     0.274 C 
HETATM   36  N   UNL     1       3.779  33.724  64.589  1.00  0.00     0.087 N 
HETATM   37  C   UNL     1       4.207  33.467  63.209  1.00  0.00     0.308 C 
HETATM   38  H   UNL     1       2.891  34.222  64.570  1.00  0.00     0.316 HD
HETATM   39  C   UNL     1       6.053  32.346  61.898  1.00  0.00     0.039 A 
ENDBRANCH  27  29
ENDBRANCH   5  25
TORSDOF 6
ENDMDL
MODEL 4
REMARK VINA RESULT:     -10.9      1.702      2.452
REMARK  6 active torsions:
REMARK  status: ('A' for Active; 'I' for Inactive)
REMARK       I    between atoms: N_1  and  C_2 
REMARK    1  A    between atoms: C_2  and  C_4 
REMARK    2  A    between atoms: C_7  and  N_8 
REMARK       I    between atoms: N_8  and  C_9 
REMARK       I    between atoms: C_9  and  N_11 
REMARK    3  A    between atoms: N_11  and  C_12 
REMARK    4  A    between atoms: C_12  and  C_13 
REMARK    5  A    between atoms: C_17  and  C_19 
REMARK       I    between atoms: C_19  and  N_21 
REMARK    6  A    between atoms: N_21  and  C_22 
ROOT
HETATM    1  C   UNL     1       5.302  29.912  56.190  1.00  0.00    -0.040 A 
HETATM    2  C   UNL     1       3.905  30.010  56.121  1.00  0.00     0.009 A 
HETATM    3  C   UNL     1       3.200  30.720  57.091  1.00  0.00     0.002 A 
HETATM    4  C   UNL     1       3.888  31.352  58.127  1.00  0.00     0.017 A 
HETATM    5  C   UNL     1       5.287  31.288  58.204  1.00  0.00     0.032 A 
HETATM    6  C   UNL     1       5.988  30.555  57.236  1.00  0.00     0.026 A 
ENDROOT
BRANCH   1   7
HETATM    7  C   UNL     1       6.065  29.156  55.132  1.00  0.00     0.162 C 
BRANCH   7   8
HETATM    8  N   UNL     1       5.704  27.757  55.129  1.00  0.00    -0.339 N 
HETATM    9  C   UNL     1       6.634  26.780  54.842  1.00  0.00     0.320 C 
HETATM   10  N   UNL     1       6.069  25.526  54.938  1.00  0.00    -0.309 N 
HETATM   11  O   UNL     1       7.801  27.041  54.579  1.00  0.00    -0.247 OA
HETATM   12  H   UNL     1       5.118  25.501  55.272  1.00  0.00     0.170 HD
HETATM   13  H   UNL     1       4.741  27.546  54.918  1.00  0.00     0.164 HD
BRANCH  10  14
HETATM   14  C   UNL     1       6.701  24.278  54.768  1.00  0.00     0.036 A 
HETATM   15  C   UNL     1       7.142  23.476  55.823  1.00  0.00     0.030 A 
HETATM   16  C   UNL     1       7.737  22.232  55.574  1.00  0.00     0.019 A 
HETATM   17  C   UNL     1       7.894  21.775  54.261  1.00  0.00     0.032 A 
HETATM   18  C   UNL     1       7.481  22.588  53.202  1.00  0.00     0.019 A 
HETATM   19  C   UNL     1       6.887  23.829  53.454  1.00  0.00     0.030 A 
BRANCH  17  20
HETATM   20  C   UNL     1       8.503  20.456  53.944  1.00  0.00     0.249 C 
HETATM   21  N   UNL     1       8.983  19.713  54.986  1.00  0.00    -0.366 N 
HETATM   22  H   UNL     1       9.294  18.776  54.762  1.00  0.00     0.159 HD
HETATM   23  H   UNL     1       8.763  19.915  55.951  1.00  0.00     0.159 HD
HETATM   24  O   UNL     1       8.538  20.025  52.799  1.00  0.00    -0.268 OA
ENDBRANCH  17  20
ENDBRANCH  10  14
ENDBRANCH   7   8
ENDBRANCH   1   7
BRANCH   5  25
HETATM   25  C   UNL     1       5.952  31.997  59.342  1.00  0.00     0.256 C 
HETATM   26  O   UNL     1       6.894  32.736  59.076  1.00  0.00    -0.267 OA
HETATM   27  N   UNL     1       5.452  31.735  60.607  1.00  0.00    -0.323 N 
HETATM   28  H   UNL     1       4.679  31.089  60.686  1.00  0.00     0.169 HD
BRANCH  27  29
HETATM   29  C   UNL     1       5.943  32.233  61.836  1.00  0.00     0.035 A 
HETATM   30  C   UNL     1       7.298  32.324  62.155  1.00  0.00     0.030 A 
HETATM   31  C   UNL     1       7.706  32.807  63.402  1.00  0.00     0.010 A 
HETATM   32  C   UNL     1       6.763  33.225  64.346  1.00  0.00    -0.048 A 
HETATM   33  C   UNL     1       7.209  33.700  65.706  1.00  0.00     0.069 C 
HETATM   34  C   UNL     1       5.395  33.136  64.044  1.00  0.00    -0.022 A 
HETATM   35  C   UNL     1       6.109  34.476  66.437  1.00  0.00     0.274 C 
HETATM   36  N   UNL     1       4.837  33.747  66.403  1.00  0.00     0.087 N 
HETATM   37  C   UNL     1       4.354  33.634  65.021  1.00  0.00     0.308 C 
HETATM   38  H   UNL     1       4.143  34.250  66.952  1.00  0.00     0.316 HD
HETATM   39  C   UNL     1       4.998  32.645  62.787  1.00  0.00     0.039 A 
ENDBRANCH  27  29
ENDBRANCH   5  25
TORSDOF 6
ENDMDL
MODEL 5
REMARK VINA RESULT:     -10.8      2.320     12.736
REMARK  6 active torsions:
REMARK  status: ('A' for Active; 'I' for Inactive)
REMARK       I    between atoms: N_1  and  C_2 
REMARK    1  A    between atoms: C_2  and  C_4 
REMARK    2  A    between atoms: C_7  and  N_8 
REMARK       I    between atoms: N_8  and  C_9 
REMARK       I    between atoms: C_9  and  N_11 
REMARK    3  A    between atoms: N_11  and  C_12 
REMARK    4  A    between atoms: C_12  and  C_13 
REMARK    5  A    between atoms: C_17  and  C_19 
REMARK       I    between atoms: C_19  and  N_21 
REMARK    6  A    between atoms: N_21  and  C_22 
ROOT
HETATM    1  C   UNL     1       7.180  30.254  58.185  1.00  0.00    -0.040 A 
HETATM    2  C   UNL     1       6.183  30.817  57.377  1.00  0.00     0.009 A 
HETATM    3  C   UNL     1       5.696  30.120  56.272  1.00  0.00     0.002 A 
HETATM    4  C   UNL     1       6.190  28.850  55.978  1.00  0.00     0.017 A 
HETATM    5  C   UNL     1       7.172  28.257  56.785  1.00  0.00     0.032 A 
HETATM    6  C   UNL     1       7.671  28.971  57.883  1.00  0.00     0.026 A 
ENDROOT
BRANCH   1   7
HETATM    7  C   UNL     1       7.696  31.001  59.389  1.00  0.00     0.162 C 
BRANCH   7   8
HETATM    8  N   UNL     1       6.786  32.054  59.779  1.00  0.00    -0.339 N 
HETATM    9  C   UNL     1       6.496  32.292  61.106  1.00  0.00     0.320 C 
HETATM   10  N   UNL     1       5.640  33.364  61.233  1.00  0.00    -0.309 N 
HETATM   11  O   UNL     1       6.988  31.634  62.014  1.00  0.00    -0.247 OA
HETATM   12  H   UNL     1       5.423  33.852  60.377  1.00  0.00     0.170 HD
HETATM   13  H   UNL     1       6.078  32.302  59.105  1.00  0.00     0.164 HD
BRANCH  10  14
HETATM   14  C   UNL     1       5.151  33.945  62.421  1.00  0.00     0.036 A 
HETATM   15  C   UNL     1       3.897  33.667  62.967  1.00  0.00     0.030 A 
HETATM   16  C   UNL     1       3.493  34.264  64.169  1.00  0.00     0.019 A 
HETATM   17  C   UNL     1       4.346  35.146  64.840  1.00  0.00     0.032 A 
HETATM   18  C   UNL     1       5.591  35.450  64.280  1.00  0.00     0.019 A 
HETATM   19  C   UNL     1       5.991  34.851  63.081  1.00  0.00     0.030 A 
BRANCH  17  20
HETATM   20  C   UNL     1       3.973  35.792  66.126  1.00  0.00     0.249 C 
HETATM   21  N   UNL     1       4.881  36.640  66.696  1.00  0.00    -0.366 N 
HETATM   22  H   UNL     1       4.566  37.150  67.511  1.00  0.00     0.159 HD
HETATM   23  H   UNL     1       5.681  37.002  66.198  1.00  0.00     0.159 HD
HETATM   24  O   UNL     1       2.877  35.609  66.641  1.00  0.00    -0.268 OA
ENDBRANCH  17  20
ENDBRANCH  10  14
ENDBRANCH   7   8
ENDBRANCH   1   7
BRANCH   5  25
HETATM   25  C   UNL     1       7.647  26.889  56.406  1.00  0.00     0.256 C 
HETATM   26  O   UNL     1       8.509  26.374  57.110  1.00  0.00    -0.267 OA
HETATM   27  N   UNL     1       7.080  26.332  55.272  1.00  0.00    -0.323 N 
HETATM   28  H   UNL     1       6.389  26.875  54.774  1.00  0.00     0.169 HD
BRANCH  27  29
HETATM   29  C   UNL     1       7.402  25.088  54.683  1.00  0.00     0.035 A 
HETATM   30  C   UNL     1       7.636  24.907  53.320  1.00  0.00     0.030 A 
HETATM   31  C   UNL     1       7.927  23.639  52.808  1.00  0.00     0.010 A 
HETATM   32  C   UNL     1       8.006  22.531  53.656  1.00  0.00    -0.048 A 
HETATM   33  C   UNL     1       8.273  21.159  53.090  1.00  0.00     0.069 C 
HETATM   34  C   UNL     1       7.767  22.693  55.029  1.00  0.00    -0.022 A 
HETATM   35  C   UNL     1       8.714  20.164  54.168  1.00  0.00     0.274 C 
HETATM   36  N   UNL     1       7.820  20.211  55.328  1.00  0.00     0.087 N 
HETATM   37  C   UNL     1       7.902  21.524  55.980  1.00  0.00     0.308 C 
HETATM   38  H   UNL     1       8.095  19.495  55.998  1.00  0.00     0.316 HD
HETATM   39  C   UNL     1       7.472  23.973  55.531  1.00  0.00     0.039 A 
ENDBRANCH  27  29
ENDBRANCH   5  25
TORSDOF 6
ENDMDL
MODEL 6
REMARK VINA RESULT:     -10.7      2.076      3.113
REMARK  6 active torsions:
REMARK  status: ('A' for Active; 'I' for Inactive)
REMARK       I    between atoms: N_1  and  C_2 
REMARK    1  A    between atoms: C_2  and  C_4 
REMARK    2  A    between atoms: C_7  and  N_8 
REMARK       I    between atoms: N_8  and  C_9 
REMARK       I    between atoms: C_9  and  N_11 
REMARK    3  A    between atoms: N_11  and  C_12 
REMARK    4  A    between atoms: C_12  and  C_13 
REMARK    5  A    between atoms: C_17  and  C_19 
REMARK       I    between atoms: C_19  and  N_21 
REMARK    6  A    between atoms: N_21  and  C_22 
ROOT
HETATM    1  C   UNL     1       4.566  29.586  54.285  1.00  0.00    -0.040 A 
HETATM    2  C   UNL     1       3.824  30.731  53.966  1.00  0.00     0.009 A 
HETATM    3  C   UNL     1       3.808  31.824  54.832  1.00  0.00     0.002 A 
HETATM    4  C   UNL     1       4.548  31.786  56.013  1.00  0.00     0.017 A 
HETATM    5  C   UNL     1       5.317  30.659  56.343  1.00  0.00     0.032 A 
HETATM    6  C   UNL     1       5.312  29.556  55.477  1.00  0.00     0.026 A 
ENDROOT
BRANCH   1   7
HETATM    7  C   UNL     1       4.594  28.410  53.342  1.00  0.00     0.162 C 
BRANCH   7   8
HETATM    8  N   UNL     1       5.836  27.678  53.458  1.00  0.00    -0.339 N 
HETATM    9  C   UNL     1       5.845  26.328  53.738  1.00  0.00     0.320 C 
HETATM   10  N   UNL     1       7.135  25.844  53.761  1.00  0.00    -0.309 N 
HETATM   11  O   UNL     1       4.817  25.684  53.899  1.00  0.00    -0.247 OA
HETATM   12  H   UNL     1       7.852  26.503  53.498  1.00  0.00     0.170 HD
HETATM   13  H   UNL     1       6.640  28.211  53.751  1.00  0.00     0.164 HD
BRANCH  10  14
HETATM   14  C   UNL     1       7.557  24.514  53.962  1.00  0.00     0.036 A 
HETATM   15  C   UNL     1       7.796  23.952  55.218  1.00  0.00     0.030 A 
HETATM   16  C   UNL     1       8.186  22.612  55.338  1.00  0.00     0.019 A 
HETATM   17  C   UNL     1       8.338  21.816  54.197  1.00  0.00     0.032 A 
HETATM   18  C   UNL     1       8.129  22.384  52.937  1.00  0.00     0.019 A 
HETATM   19  C   UNL     1       7.738  23.722  52.821  1.00  0.00     0.030 A 
BRANCH  17  20
HETATM   20  C   UNL     1       8.733  20.385  54.271  1.00  0.00     0.249 C 
HETATM   21  N   UNL     1       9.024  19.871  55.504  1.00  0.00    -0.366 N 
HETATM   22  H   UNL     1       9.185  18.873  55.545  1.00  0.00     0.159 HD
HETATM   23  H   UNL     1       8.788  20.343  56.364  1.00  0.00     0.159 HD
HETATM   24  O   UNL     1       8.758  19.674  53.274  1.00  0.00    -0.268 OA
ENDBRANCH  17  20
ENDBRANCH  10  14
ENDBRANCH   7   8
ENDBRANCH   1   7
BRANCH   5  25
HETATM   25  C   UNL     1       6.087  30.697  57.625  1.00  0.00     0.256 C 
HETATM   26  O   UNL     1       6.749  29.707  57.917  1.00  0.00    -0.267 OA
HETATM   27  N   UNL     1       5.964  31.850  58.383  1.00  0.00    -0.323 N 
HETATM   28  H   UNL     1       5.370  32.587  58.031  1.00  0.00     0.169 HD
BRANCH  27  29
HETATM   29  C   UNL     1       6.542  32.101  59.649  1.00  0.00     0.035 A 
HETATM   30  C   UNL     1       7.909  32.012  59.914  1.00  0.00     0.030 A 
HETATM   31  C   UNL     1       8.403  32.254  61.200  1.00  0.00     0.010 A 
HETATM   32  C   UNL     1       7.538  32.607  62.239  1.00  0.00    -0.048 A 
HETATM   33  C   UNL     1       8.072  32.818  63.633  1.00  0.00     0.069 C 
HETATM   34  C   UNL     1       6.159  32.695  61.992  1.00  0.00    -0.022 A 
HETATM   35  C   UNL     1       7.080  33.571  64.526  1.00  0.00     0.274 C 
HETATM   36  N   UNL     1       5.741  32.980  64.441  1.00  0.00     0.087 N 
HETATM   37  C   UNL     1       5.205  33.131  63.082  1.00  0.00     0.308 C 
HETATM   38  H   UNL     1       5.119  33.455  65.092  1.00  0.00     0.316 HD
HETATM   39  C   UNL     1       5.674  32.447  60.695  1.00  0.00     0.039 A 
ENDBRANCH  27  29
ENDBRANCH   5  25
TORSDOF 6
ENDMDL
MODEL 7
REMARK VINA RESULT:     -10.6      3.103     11.008
REMARK  6 active torsions:
REMARK  status: ('A' for Active; 'I' for Inactive)
REMARK       I    between atoms: N_1  and  C_2 
REMARK    1  A    between atoms: C_2  and  C_4 
REMARK    2  A    between atoms: C_7  and  N_8 
REMARK       I    between atoms: N_8  and  C_9 
REMARK       I    between atoms: C_9  and  N_11 
REMARK    3  A    between atoms: N_11  and  C_12 
REMARK    4  A    between atoms: C_12  and  C_13 
REMARK    5  A    between atoms: C_17  and  C_19 
REMARK       I    between atoms: C_19  and  N_21 
REMARK    6  A    between atoms: N_21  and  C_22 
ROOT
HETATM    1  C   UNL     1       4.180  29.449  53.432  1.00  0.00    -0.040 A 
HETATM    2  C   UNL     1       4.492  29.942  52.157  1.00  0.00     0.009 A 
HETATM    3  C   UNL     1       5.075  29.108  51.204  1.00  0.00     0.002 A 
HETATM    4  C   UNL     1       5.334  27.773  51.513  1.00  0.00     0.017 A 
HETATM    5  C   UNL     1       5.009  27.252  52.774  1.00  0.00     0.032 A 
HETATM    6  C   UNL     1       4.441  28.101  53.734  1.00  0.00     0.026 A 
ENDROOT
BRANCH   1   7
HETATM    7  C   UNL     1       3.536  30.347  54.458  1.00  0.00     0.162 C 
BRANCH   7   8
HETATM    8  N   UNL     1       4.532  31.056  55.229  1.00  0.00    -0.339 N 
HETATM    9  C   UNL     1       4.920  30.611  56.475  1.00  0.00     0.320 C 
HETATM   10  N   UNL     1       5.904  31.422  56.997  1.00  0.00    -0.309 N 
HETATM   11  O   UNL     1       4.450  29.604  56.989  1.00  0.00    -0.247 OA
HETATM   12  H   UNL     1       6.244  32.146  56.382  1.00  0.00     0.170 HD
HETATM   13  H   UNL     1       4.610  32.045  55.053  1.00  0.00     0.164 HD
BRANCH  10  14
HETATM   14  C   UNL     1       6.590  31.272  58.220  1.00  0.00     0.036 A 
HETATM   15  C   UNL     1       7.627  30.359  58.426  1.00  0.00     0.030 A 
HETATM   16  C   UNL     1       8.281  30.289  59.664  1.00  0.00     0.019 A 
HETATM   17  C   UNL     1       7.903  31.137  60.710  1.00  0.00     0.032 A 
HETATM   18  C   UNL     1       6.845  32.031  60.516  1.00  0.00     0.019 A 
HETATM   19  C   UNL     1       6.196  32.099  59.279  1.00  0.00     0.030 A 
BRANCH  17  20
HETATM   20  C   UNL     1       8.575  31.115  62.036  1.00  0.00     0.249 C 
HETATM   21  N   UNL     1       9.082  29.921  62.470  1.00  0.00    -0.366 N 
HETATM   22  H   UNL     1       9.627  29.950  63.321  1.00  0.00     0.159 HD
HETATM   23  H   UNL     1       9.204  29.125  61.862  1.00  0.00     0.159 HD
HETATM   24  O   UNL     1       8.712  32.132  62.703  1.00  0.00    -0.268 OA
ENDBRANCH  17  20
ENDBRANCH  10  14
ENDBRANCH   7   8
ENDBRANCH   1   7
BRANCH   5  25
HETATM   25  C   UNL     1       5.313  25.808  53.026  1.00  0.00     0.256 C 
HETATM   26  O   UNL     1       4.371  25.022  53.021  1.00  0.00    -0.267 OA
HETATM   27  N   UNL     1       6.639  25.491  53.267  1.00  0.00    -0.323 N 
HETATM   28  H   UNL     1       7.314  26.242  53.258  1.00  0.00     0.169 HD
BRANCH  27  29
HETATM   29  C   UNL     1       7.165  24.218  53.585  1.00  0.00     0.035 A 
HETATM   30  C   UNL     1       7.420  23.221  52.644  1.00  0.00     0.030 A 
HETATM   31  C   UNL     1       7.920  21.977  53.039  1.00  0.00     0.010 A 
HETATM   32  C   UNL     1       8.191  21.715  54.385  1.00  0.00    -0.048 A 
HETATM   33  C   UNL     1       8.684  20.355  54.810  1.00  0.00     0.069 C 
HETATM   34  C   UNL     1       7.935  22.704  55.348  1.00  0.00    -0.022 A 
HETATM   35  C   UNL     1       9.294  20.373  56.215  1.00  0.00     0.274 C 
HETATM   36  N   UNL     1       8.411  21.055  57.165  1.00  0.00     0.087 N 
HETATM   37  C   UNL     1       8.272  22.471  56.803  1.00  0.00     0.308 C 
HETATM   38  H   UNL     1       8.807  20.993  58.101  1.00  0.00     0.316 HD
HETATM   39  C   UNL     1       7.429  23.950  54.937  1.00  0.00     0.039 A 
ENDBRANCH  27  29
ENDBRANCH   5  25
TORSDOF 6
ENDMDL
MODEL 8
REMARK VINA RESULT:     -10.3      4.703     10.005
REMARK  6 active torsions:
REMARK  status: ('A' for Active; 'I' for Inactive)
REMARK       I    between atoms: N_1  and  C_2 
REMARK    1  A    between atoms: C_2  and  C_4 
REMARK    2  A    between atoms: C_7  and  N_8 
REMARK       I    between atoms: N_8  and  C_9 
REMARK       I    between atoms: C_9  and  N_11 
REMARK    3  A    between atoms: N_11  and  C_12 
REMARK    4  A    between atoms: C_12  and  C_13 
REMARK    5  A    between atoms: C_17  and  C_19 
REMARK       I    between atoms: C_19  and  N_21 
REMARK    6  A    between atoms: N_21  and  C_22 
ROOT
HETATM    1  C   UNL     1       5.642  30.111  56.329  1.00  0.00    -0.040 A 
HETATM    2  C   UNL     1       6.182  30.720  57.469  1.00  0.00     0.009 A 
HETATM    3  C   UNL     1       7.147  30.062  58.230  1.00  0.00     0.002 A 
HETATM    4  C   UNL     1       7.591  28.797  57.846  1.00  0.00     0.017 A 
HETATM    5  C   UNL     1       7.081  28.176  56.696  1.00  0.00     0.032 A 
HETATM    6  C   UNL     1       6.096  28.836  55.947  1.00  0.00     0.026 A 
ENDROOT
BRANCH   1   7
HETATM    7  C   UNL     1       4.609  30.829  55.498  1.00  0.00     0.162 C 
BRANCH   7   8
HETATM    8  N   UNL     1       4.886  30.688  54.086  1.00  0.00    -0.339 N 
HETATM    9  C   UNL     1       4.257  29.724  53.328  1.00  0.00     0.320 C 
HETATM   10  N   UNL     1       4.649  29.807  52.010  1.00  0.00    -0.309 N 
HETATM   11  O   UNL     1       3.440  28.945  53.803  1.00  0.00    -0.247 OA
HETATM   12  H   UNL     1       5.252  30.584  51.783  1.00  0.00     0.170 HD
HETATM   13  H   UNL     1       5.799  30.986  53.780  1.00  0.00     0.164 HD
BRANCH  10  14
HETATM   14  C   UNL     1       4.197  29.033  50.922  1.00  0.00     0.036 A 
HETATM   15  C   UNL     1       4.978  28.079  50.265  1.00  0.00     0.030 A 
HETATM   16  C   UNL     1       4.447  27.327  49.208  1.00  0.00     0.019 A 
HETATM   17  C   UNL     1       3.124  27.522  48.799  1.00  0.00     0.032 A 
HETATM   18  C   UNL     1       2.349  28.496  49.435  1.00  0.00     0.019 A 
HETATM   19  C   UNL     1       2.882  29.244  50.491  1.00  0.00     0.030 A 
BRANCH  17  20
HETATM   20  C   UNL     1       2.508  26.738  47.695  1.00  0.00     0.249 C 
HETATM   21  N   UNL     1       1.146  26.629  47.680  1.00  0.00    -0.366 N 
HETATM   22  H   UNL     1       0.742  26.185  46.865  1.00  0.00     0.159 HD
HETATM   23  H   UNL     1       0.543  27.210  48.243  1.00  0.00     0.159 HD
HETATM   24  O   UNL     1       3.187  26.242  46.805  1.00  0.00    -0.268 OA
ENDBRANCH  17  20
ENDBRANCH  10  14
ENDBRANCH   7   8
ENDBRANCH   1   7
BRANCH   5  25
HETATM   25  C   UNL     1       7.611  26.820  56.347  1.00  0.00     0.256 C 
HETATM   26  O   UNL     1       8.515  26.370  57.043  1.00  0.00    -0.267 OA
HETATM   27  N   UNL     1       7.043  26.201  55.247  1.00  0.00    -0.323 N 
HETATM   28  H   UNL     1       6.314  26.694  54.750  1.00  0.00     0.169 HD
BRANCH  27  29
HETATM   29  C   UNL     1       7.409  24.954  54.688  1.00  0.00     0.035 A 
HETATM   30  C   UNL     1       7.708  24.761  53.340  1.00  0.00     0.030 A 
HETATM   31  C   UNL     1       8.040  23.492  52.857  1.00  0.00     0.010 A 
HETATM   32  C   UNL     1       8.096  22.395  53.722  1.00  0.00    -0.048 A 
HETATM   33  C   UNL     1       8.408  21.021  53.186  1.00  0.00     0.069 C 
HETATM   34  C   UNL     1       7.792  22.569  55.081  1.00  0.00    -0.022 A 
HETATM   35  C   UNL     1       8.814  20.045  54.296  1.00  0.00     0.274 C 
HETATM   36  N   UNL     1       7.867  20.092  55.413  1.00  0.00     0.087 N 
HETATM   37  C   UNL     1       7.900  21.414  56.051  1.00  0.00     0.308 C 
HETATM   38  H   UNL     1       8.121  19.389  56.103  1.00  0.00     0.316 HD
HETATM   39  C   UNL     1       7.456  23.851  55.553  1.00  0.00     0.039 A 
ENDBRANCH  27  29
ENDBRANCH   5  25
TORSDOF 6
ENDMDL
MODEL 9
REMARK VINA RESULT:     -10.0      2.923     12.003
REMARK  6 active torsions:
REMARK  status: ('A' for Active; 'I' for Inactive)
REMARK       I    between atoms: N_1  and  C_2 
REMARK    1  A    between atoms: C_2  and  C_4 
REMARK    2  A    between atoms: C_7  and  N_8 
REMARK       I    between atoms: N_8  and  C_9 
REMARK       I    between atoms: C_9  and  N_11 
REMARK    3  A    between atoms: N_11  and  C_12 
REMARK    4  A    between atoms: C_12  and  C_13 
REMARK    5  A    between atoms: C_17  and  C_19 
REMARK       I    between atoms: C_19  and  N_21 
REMARK    6  A    between atoms: N_21  and  C_22 
ROOT
HETATM    1  C   UNL     1       3.943  29.860  55.762  1.00  0.00    -0.040 A 
HETATM    2  C   UNL     1       3.506  30.298  54.504  1.00  0.00     0.009 A 
HETATM    3  C   UNL     1       3.991  29.700  53.343  1.00  0.00     0.002 A 
HETATM    4  C   UNL     1       4.903  28.649  53.430  1.00  0.00     0.017 A 
HETATM    5  C   UNL     1       5.339  28.179  54.678  1.00  0.00     0.032 A 
HETATM    6  C   UNL     1       4.862  28.798  55.842  1.00  0.00     0.026 A 
ENDROOT
BRANCH   1   7
HETATM    7  C   UNL     1       3.407  30.497  57.019  1.00  0.00     0.162 C 
BRANCH   7   8
HETATM    8  N   UNL     1       4.482  30.922  57.887  1.00  0.00    -0.339 N 
HETATM    9  C   UNL     1       4.237  31.703  58.996  1.00  0.00     0.320 C 
HETATM   10  N   UNL     1       5.404  31.948  59.688  1.00  0.00    -0.309 N 
HETATM   11  O   UNL     1       3.111  32.074  59.303  1.00  0.00    -0.247 OA
HETATM   12  H   UNL     1       6.223  31.470  59.343  1.00  0.00     0.170 HD
HETATM   13  H   UNL     1       5.392  31.007  57.460  1.00  0.00     0.164 HD
BRANCH  10  14
HETATM   14  C   UNL     1       5.562  32.661  60.894  1.00  0.00     0.036 A 
HETATM   15  C   UNL     1       5.039  33.935  61.121  1.00  0.00     0.030 A 
HETATM   16  C   UNL     1       5.214  34.569  62.359  1.00  0.00     0.019 A 
HETATM   17  C   UNL     1       5.915  33.929  63.386  1.00  0.00     0.032 A 
HETATM   18  C   UNL     1       6.466  32.665  63.151  1.00  0.00     0.019 A 
HETATM   19  C   UNL     1       6.288  32.036  61.915  1.00  0.00     0.030 A 
BRANCH  17  20
HETATM   20  C   UNL     1       6.114  34.550  64.722  1.00  0.00     0.249 C 
HETATM   21  N   UNL     1       7.242  34.213  65.416  1.00  0.00    -0.366 N 
HETATM   22  H   UNL     1       7.411  34.726  66.271  1.00  0.00     0.159 HD
HETATM   23  H   UNL     1       8.026  33.740  64.990  1.00  0.00     0.159 HD
HETATM   24  O   UNL     1       5.321  35.366  65.174  1.00  0.00    -0.268 OA
ENDBRANCH  17  20
ENDBRANCH  10  14
ENDBRANCH   7   8
ENDBRANCH   1   7
BRANCH   5  25
HETATM   25  C   UNL     1       6.315  27.044  54.688  1.00  0.00     0.256 C 
HETATM   26  O   UNL     1       7.485  27.307  54.942  1.00  0.00    -0.267 OA
HETATM   27  N   UNL     1       5.806  25.792  54.387  1.00  0.00    -0.323 N 
HETATM   28  H   UNL     1       4.820  25.719  54.180  1.00  0.00     0.169 HD
BRANCH  27  29
HETATM   29  C   UNL     1       6.531  24.583  54.277  1.00  0.00     0.035 A 
HETATM   30  C   UNL     1       6.824  23.956  53.066  1.00  0.00     0.030 A 
HETATM   31  C   UNL     1       7.527  22.748  53.039  1.00  0.00     0.010 A 
HETATM   32  C   UNL     1       7.966  22.155  54.226  1.00  0.00    -0.048 A 
HETATM   33  C   UNL     1       8.682  20.829  54.193  1.00  0.00     0.069 C 
HETATM   34  C   UNL     1       7.676  22.768  55.455  1.00  0.00    -0.022 A 
HETATM   35  C   UNL     1       9.424  20.537  55.502  1.00  0.00     0.274 C 
HETATM   36  N   UNL     1       8.555  20.763  56.661  1.00  0.00     0.087 N 
HETATM   37  C   UNL     1       8.187  22.181  56.751  1.00  0.00     0.308 C 
HETATM   38  H   UNL     1       9.049  20.498  57.511  1.00  0.00     0.316 HD
HETATM   39  C   UNL     1       6.965  23.982  55.467  1.00  0.00     0.039 A 
ENDBRANCH  27  29
ENDBRANCH   5  25
TORSDOF 6
ENDMDL
MODEL 10
REMARK VINA RESULT:      -9.8      4.402      9.164
REMARK  6 active torsions:
REMARK  status: ('A' for Active; 'I' for Inactive)
REMARK       I    between atoms: N_1  and  C_2 
REMARK    1  A    between atoms: C_2  and  C_4 
REMARK    2  A    between atoms: C_7  and  N_8 
REMARK       I    between atoms: N_8  and  C_9 
REMARK       I    between atoms: C_9  and  N_11 
REMARK    3  A    between atoms: N_11  and  C_12 
REMARK    4  A    between atoms: C_12  and  C_13 
REMARK    5  A    between atoms: C_17  and  C_19 
REMARK       I    between atoms: C_19  and  N_21 
REMARK    6  A    between atoms: N_21  and  C_22 
ROOT
HETATM    1  C   UNL     1       5.068  30.878  56.633  1.00  0.00    -0.040 A 
HETATM    2  C   UNL     1       5.520  31.796  57.591  1.00  0.00     0.009 A 
HETATM    3  C   UNL     1       6.601  31.481  58.413  1.00  0.00     0.002 A 
HETATM    4  C   UNL     1       7.248  30.254  58.271  1.00  0.00     0.017 A 
HETATM    5  C   UNL     1       6.828  29.329  57.304  1.00  0.00     0.032 A 
HETATM    6  C   UNL     1       5.728  29.643  56.495  1.00  0.00     0.026 A 
ENDROOT
BRANCH   1   7
HETATM    7  C   UNL     1       3.908  31.224  55.734  1.00  0.00     0.162 C 
BRANCH   7   8
HETATM    8  N   UNL     1       3.556  30.109  54.885  1.00  0.00    -0.339 N 
HETATM    9  C   UNL     1       3.921  30.082  53.555  1.00  0.00     0.320 C 
HETATM   10  N   UNL     1       3.512  28.907  52.962  1.00  0.00    -0.309 N 
HETATM   11  O   UNL     1       4.555  30.987  53.029  1.00  0.00    -0.247 OA
HETATM   12  H   UNL     1       3.095  28.229  53.580  1.00  0.00     0.170 HD
HETATM   13  H   UNL     1       2.725  29.599  55.140  1.00  0.00     0.164 HD
BRANCH  10  14
HETATM   14  C   UNL     1       3.736  28.484  51.635  1.00  0.00     0.036 A 
HETATM   15  C   UNL     1       3.010  28.946  50.535  1.00  0.00     0.030 A 
HETATM   16  C   UNL     1       3.312  28.500  49.242  1.00  0.00     0.019 A 
HETATM   17  C   UNL     1       4.349  27.584  49.036  1.00  0.00     0.032 A 
HETATM   18  C   UNL     1       5.057  27.096  50.138  1.00  0.00     0.019 A 
HETATM   19  C   UNL     1       4.754  27.546  51.428  1.00  0.00     0.030 A 
BRANCH  17  20
HETATM   20  C   UNL     1       4.720  27.091  47.683  1.00  0.00     0.249 C 
HETATM   21  N   UNL     1       5.916  27.503  47.165  1.00  0.00    -0.366 N 
HETATM   22  H   UNL     1       6.198  27.073  46.293  1.00  0.00     0.159 HD
HETATM   23  H   UNL     1       6.633  27.942  47.724  1.00  0.00     0.159 HD
HETATM   24  O   UNL     1       4.005  26.312  47.066  1.00  0.00    -0.268 OA
ENDBRANCH  17  20
ENDBRANCH  10  14
ENDBRANCH   7   8
ENDBRANCH   1   7
BRANCH   5  25
HETATM   25  C   UNL     1       7.577  28.036  57.211  1.00  0.00     0.256 C 
HETATM   26  O   UNL     1       8.741  28.027  57.599  1.00  0.00    -0.267 OA
HETATM   27  N   UNL     1       6.889  26.963  56.670  1.00  0.00    -0.323 N 
HETATM   28  H   UNL     1       5.935  27.114  56.373  1.00  0.00     0.169 HD
BRANCH  27  29
HETATM   29  C   UNL     1       7.393  25.665  56.425  1.00  0.00     0.035 A 
HETATM   30  C   UNL     1       8.106  24.916  57.361  1.00  0.00     0.030 A 
HETATM   31  C   UNL     1       8.594  23.646  57.037  1.00  0.00     0.010 A 
HETATM   32  C   UNL     1       8.359  23.096  55.774  1.00  0.00    -0.048 A 
HETATM   33  C   UNL     1       8.928  21.747  55.416  1.00  0.00     0.069 C 
HETATM   34  C   UNL     1       7.648  23.837  54.818  1.00  0.00    -0.022 A 
HETATM   35  C   UNL     1       8.253  21.143  54.180  1.00  0.00     0.274 C 
HETATM   36  N   UNL     1       8.187  22.116  53.087  1.00  0.00     0.087 N 
HETATM   37  C   UNL     1       7.328  23.246  53.463  1.00  0.00     0.308 C 
HETATM   38  H   UNL     1       7.797  21.670  52.258  1.00  0.00     0.316 HD
HETATM   39  C   UNL     1       7.166  25.115  55.155  1.00  0.00     0.039 A 
ENDBRANCH  27  29
ENDBRANCH   5  25
TORSDOF 6
ENDMDL
