MODEL 1
REMARK VINA RESULT:      -7.6      0.000      0.000
REMARK  5 active torsions:
REMARK  status: ('A' for Active; 'I' for Inactive)
REMARK    1  A    between atoms: C_7  and  O_8 
REMARK    2  A    between atoms: O_8  and  C_9 
REMARK    3  A    between atoms: C_12  and  N_13 
REMARK    4  A    between atoms: N_13  and  C_16 
REMARK    5  A    between atoms: C_16  and  C_17 
ROOT
HETATM    1  C   UNL     1       7.710  23.220  53.991  1.00  0.00     0.028 A 
HETATM    2  C   UNL     1       8.144  21.992  54.481  1.00  0.00     0.062 A 
HETATM    3  C   UNL     1       8.371  20.880  53.615  1.00  0.00     0.101 C 
HETATM    4  N   UNL     1       8.564  19.964  52.932  1.00  0.00    -0.191 NA
HETATM    5  C   UNL     1       8.355  21.873  55.850  1.00  0.00     0.142 A 
HETATM    6  N   UNL     1       8.167  22.877  56.750  1.00  0.00    -0.236 NA
HETATM    7  C   UNL     1       7.746  24.054  56.235  1.00  0.00     0.164 A 
HETATM    8  C   UNL     1       7.508  24.270  54.883  1.00  0.00     0.059 A 
ENDROOT
BRANCH   7   9
HETATM    9  O   UNL     1       7.523  25.141  57.048  1.00  0.00    -0.329 OA
BRANCH   9  10
HETATM   10  C   UNL     1       7.040  26.362  56.496  1.00  0.00     0.130 C 
HETATM   11  C   UNL     1       7.987  27.554  56.692  1.00  0.00     0.034 C 
HETATM   12  C   UNL     1       7.463  28.802  55.985  1.00  0.00     0.035 C 
HETATM   13  C   UNL     1       6.012  29.138  56.347  1.00  0.00     0.186 C 
HETATM   14  C   UNL     1       5.088  27.931  56.144  1.00  0.00     0.035 C 
HETATM   15  C   UNL     1       5.579  26.670  56.854  1.00  0.00     0.034 C 
BRANCH  13  16
HETATM   16  N   UNL     1       5.903  29.594  57.774  1.00  0.00    -0.067 N 
HETATM   17  H   UNL     1       4.914  29.563  58.054  1.00  0.00     0.278 HD
HETATM   18  H   UNL     1       6.378  28.940  58.415  1.00  0.00     0.278 HD
BRANCH  16  19
HETATM   19  C   UNL     1       6.398  30.981  58.054  1.00  0.00     0.280 C 
BRANCH  19  20
HETATM   20  C   UNL     1       7.386  30.999  59.160  1.00  0.00     0.027 A 
HETATM   21  S   UNL     1       7.361  32.221  60.367  1.00  0.00    -0.084 SA
HETATM   22  C   UNL     1       8.718  31.485  61.119  1.00  0.00     0.166 A 
HETATM   23  N   UNL     1       9.184  30.411  60.522  1.00  0.00    -0.265 NA
HETATM   24  C   UNL     1       8.417  30.117  59.416  1.00  0.00     0.133 A 
ENDBRANCH  19  20
ENDBRANCH  16  19
ENDBRANCH  13  16
ENDBRANCH   9  10
ENDBRANCH   7   9
TORSDOF 5
ENDMDL
MODEL 2
REMARK VINA RESULT:      -7.6      4.939     11.191
REMARK  5 active torsions:
REMARK  status: ('A' for Active; 'I' for Inactive)
REMARK    1  A    between atoms: C_7  and  O_8 
REMARK    2  A    between atoms: O_8  and  C_9 
REMARK    3  A    between atoms: C_12  and  N_13 
REMARK    4  A    between atoms: N_13  and  C_16 
REMARK    5  A    between atoms: C_16  and  C_17 
ROOT
HETATM    1  C   UNL     1       7.070  33.974  65.962  1.00  0.00     0.028 A 
HETATM    2  C   UNL     1       5.900  34.144  66.697  1.00  0.00     0.062 A 
HETATM    3  C   UNL     1       5.916  34.705  68.009  1.00  0.00     0.101 C 
HETATM    4  N   UNL     1       5.904  35.160  69.075  1.00  0.00    -0.191 NA
HETATM    5  C   UNL     1       4.700  33.751  66.113  1.00  0.00     0.142 A 
HETATM    6  N   UNL     1       4.587  33.210  64.869  1.00  0.00    -0.236 NA
HETATM    7  C   UNL     1       5.747  33.061  64.188  1.00  0.00     0.164 A 
HETATM    8  C   UNL     1       6.992  33.423  64.686  1.00  0.00     0.059 A 
ENDROOT
BRANCH   7   9
HETATM    9  O   UNL     1       5.757  32.526  62.921  1.00  0.00    -0.329 OA
BRANCH   9  10
HETATM   10  C   UNL     1       6.992  32.285  62.255  1.00  0.00     0.130 C 
HETATM   11  C   UNL     1       6.955  32.574  60.748  1.00  0.00     0.034 C 
HETATM   12  C   UNL     1       8.334  32.401  60.114  1.00  0.00     0.035 C 
HETATM   13  C   UNL     1       8.984  31.052  60.439  1.00  0.00     0.186 C 
HETATM   14  C   UNL     1       9.007  30.788  61.950  1.00  0.00     0.035 C 
HETATM   15  C   UNL     1       7.636  30.938  62.608  1.00  0.00     0.034 C 
BRANCH  13  16
HETATM   16  N   UNL     1       8.256  29.926  59.764  1.00  0.00    -0.067 N 
HETATM   17  H   UNL     1       8.731  29.043  59.995  1.00  0.00     0.278 HD
HETATM   18  H   UNL     1       7.301  29.816  60.139  1.00  0.00     0.278 HD
BRANCH  16  19
HETATM   19  C   UNL     1       8.176  30.005  58.269  1.00  0.00     0.280 C 
BRANCH  19  20
HETATM   20  C   UNL     1       7.157  29.076  57.723  1.00  0.00     0.027 A 
HETATM   21  S   UNL     1       7.510  27.418  57.447  1.00  0.00    -0.084 SA
HETATM   22  C   UNL     1       5.907  27.186  56.878  1.00  0.00     0.166 A 
HETATM   23  N   UNL     1       5.147  28.259  56.871  1.00  0.00    -0.265 NA
HETATM   24  C   UNL     1       5.848  29.335  57.370  1.00  0.00     0.133 A 
ENDBRANCH  19  20
ENDBRANCH  16  19
ENDBRANCH  13  16
ENDBRANCH   9  10
ENDBRANCH   7   9
TORSDOF 5
ENDMDL
MODEL 3
REMARK VINA RESULT:      -7.4      4.925      9.124
REMARK  5 active torsions:
REMARK  status: ('A' for Active; 'I' for Inactive)
REMARK    1  A    between atoms: C_7  and  O_8 
REMARK    2  A    between atoms: O_8  and  C_9 
REMARK    3  A    between atoms: C_12  and  N_13 
REMARK    4  A    between atoms: N_13  and  C_16 
REMARK    5  A    between atoms: C_16  and  C_17 
ROOT
HETATM    1  C   UNL     1       7.974  32.187  62.753  1.00  0.00     0.028 A 
HETATM    2  C   UNL     1       6.642  32.549  62.580  1.00  0.00     0.062 A 
HETATM    3  C   UNL     1       5.753  32.683  63.689  1.00  0.00     0.101 C 
HETATM    4  N   UNL     1       5.014  32.800  64.574  1.00  0.00    -0.191 NA
HETATM    5  C   UNL     1       6.191  32.780  61.284  1.00  0.00     0.142 A 
HETATM    6  N   UNL     1       6.964  32.679  60.169  1.00  0.00    -0.236 NA
HETATM    7  C   UNL     1       8.253  32.325  60.379  1.00  0.00     0.164 A 
HETATM    8  C   UNL     1       8.794  32.074  61.633  1.00  0.00     0.059 A 
ENDROOT
BRANCH   7   9
HETATM    9  O   UNL     1       9.129  32.193  59.328  1.00  0.00    -0.329 OA
BRANCH   9  10
HETATM   10  C   UNL     1       9.336  30.920  58.724  1.00  0.00     0.130 C 
HETATM   11  C   UNL     1      10.303  30.945  57.531  1.00  0.00     0.034 C 
HETATM   12  C   UNL     1      10.566  29.537  57.000  1.00  0.00     0.035 C 
HETATM   13  C   UNL     1       9.283  28.754  56.701  1.00  0.00     0.186 C 
HETATM   14  C   UNL     1       8.335  28.745  57.907  1.00  0.00     0.035 C 
HETATM   15  C   UNL     1       8.041  30.143  58.450  1.00  0.00     0.034 C 
BRANCH  13  16
HETATM   16  N   UNL     1       8.559  29.335  55.521  1.00  0.00    -0.067 N 
HETATM   17  H   UNL     1       7.715  29.817  55.859  1.00  0.00     0.278 HD
HETATM   18  H   UNL     1       9.117  30.072  55.063  1.00  0.00     0.278 HD
BRANCH  16  19
HETATM   19  C   UNL     1       8.117  28.352  54.480  1.00  0.00     0.280 C 
BRANCH  19  20
HETATM   20  C   UNL     1       6.638  28.273  54.391  1.00  0.00     0.027 A 
HETATM   21  S   UNL     1       5.859  27.390  53.141  1.00  0.00    -0.084 SA
HETATM   22  C   UNL     1       4.336  27.832  53.798  1.00  0.00     0.166 A 
HETATM   23  N   UNL     1       4.379  28.597  54.866  1.00  0.00    -0.265 NA
HETATM   24  C   UNL     1       5.688  28.836  55.220  1.00  0.00     0.133 A 
ENDBRANCH  19  20
ENDBRANCH  16  19
ENDBRANCH  13  16
ENDBRANCH   9  10
ENDBRANCH   7   9
TORSDOF 5
ENDMDL
MODEL 4
REMARK VINA RESULT:      -7.3      3.242      5.111
REMARK  5 active torsions:
REMARK  status: ('A' for Active; 'I' for Inactive)
REMARK    1  A    between atoms: C_7  and  O_8 
REMARK    2  A    between atoms: O_8  and  C_9 
REMARK    3  A    between atoms: C_12  and  N_13 
REMARK    4  A    between atoms: N_13  and  C_16 
REMARK    5  A    between atoms: C_16  and  C_17 
ROOT
HETATM    1  C   UNL     1       8.393  23.253  54.216  1.00  0.00     0.028 A 
HETATM    2  C   UNL     1       8.336  21.902  54.546  1.00  0.00     0.062 A 
HETATM    3  C   UNL     1       8.291  20.888  53.543  1.00  0.00     0.101 C 
HETATM    4  N   UNL     1       8.256  20.047  52.746  1.00  0.00    -0.191 NA
HETATM    5  C   UNL     1       8.324  21.560  55.895  1.00  0.00     0.142 A 
HETATM    6  N   UNL     1       8.366  22.455  56.919  1.00  0.00    -0.236 NA
HETATM    7  C   UNL     1       8.421  23.757  56.556  1.00  0.00     0.164 A 
HETATM    8  C   UNL     1       8.436  24.197  55.239  1.00  0.00     0.059 A 
ENDROOT
BRANCH   7   9
HETATM    9  O   UNL     1       8.468  24.752  57.504  1.00  0.00    -0.329 OA
BRANCH   9  10
HETATM   10  C   UNL     1       7.430  25.725  57.575  1.00  0.00     0.130 C 
HETATM   11  C   UNL     1       6.157  25.335  56.810  1.00  0.00     0.034 C 
HETATM   12  C   UNL     1       5.048  26.366  57.015  1.00  0.00     0.035 C 
HETATM   13  C   UNL     1       5.496  27.802  56.721  1.00  0.00     0.186 C 
HETATM   14  C   UNL     1       6.768  28.165  57.495  1.00  0.00     0.035 C 
HETATM   15  C   UNL     1       7.901  27.158  57.296  1.00  0.00     0.034 C 
BRANCH  13  16
HETATM   16  N   UNL     1       5.750  27.998  55.254  1.00  0.00    -0.067 N 
HETATM   17  H   UNL     1       6.153  28.934  55.113  1.00  0.00     0.278 HD
HETATM   18  H   UNL     1       6.472  27.347  54.907  1.00  0.00     0.278 HD
BRANCH  16  19
HETATM   19  C   UNL     1       4.549  27.897  54.365  1.00  0.00     0.280 C 
BRANCH  19  20
HETATM   20  C   UNL     1       4.857  27.179  53.103  1.00  0.00     0.027 A 
HETATM   21  S   UNL     1       4.975  25.467  53.049  1.00  0.00    -0.084 SA
HETATM   22  C   UNL     1       5.320  25.558  51.370  1.00  0.00     0.166 A 
HETATM   23  N   UNL     1       5.365  26.771  50.865  1.00  0.00    -0.265 NA
HETATM   24  C   UNL     1       5.083  27.698  51.844  1.00  0.00     0.133 A 
ENDBRANCH  19  20
ENDBRANCH  16  19
ENDBRANCH  13  16
ENDBRANCH   9  10
ENDBRANCH   7   9
TORSDOF 5
ENDMDL
MODEL 5
REMARK VINA RESULT:      -7.3      3.086      8.942
REMARK  5 active torsions:
REMARK  status: ('A' for Active; 'I' for Inactive)
REMARK    1  A    between atoms: C_7  and  O_8 
REMARK    2  A    between atoms: O_8  and  C_9 
REMARK    3  A    between atoms: C_12  and  N_13 
REMARK    4  A    between atoms: N_13  and  C_16 
REMARK    5  A    between atoms: C_16  and  C_17 
ROOT
HETATM    1  C   UNL     1       8.214  32.705  60.975  1.00  0.00     0.028 A 
HETATM    2  C   UNL     1       8.327  32.026  62.185  1.00  0.00     0.062 A 
HETATM    3  C   UNL     1       7.864  32.597  63.408  1.00  0.00     0.101 C 
HETATM    4  N   UNL     1       7.494  33.039  64.414  1.00  0.00    -0.191 NA
HETATM    5  C   UNL     1       8.908  30.762  62.172  1.00  0.00     0.142 A 
HETATM    6  N   UNL     1       9.374  30.138  61.057  1.00  0.00    -0.236 NA
HETATM    7  C   UNL     1       9.247  30.831  59.901  1.00  0.00     0.164 A 
HETATM    8  C   UNL     1       8.682  32.097  59.813  1.00  0.00     0.059 A 
ENDROOT
BRANCH   7   9
HETATM    9  O   UNL     1       9.682  30.301  58.710  1.00  0.00    -0.329 OA
BRANCH   9  10
HETATM   10  C   UNL     1       8.741  29.847  57.741  1.00  0.00     0.130 C 
HETATM   11  C   UNL     1       7.658  28.920  58.310  1.00  0.00     0.034 C 
HETATM   12  C   UNL     1       6.622  28.558  57.247  1.00  0.00     0.035 C 
HETATM   13  C   UNL     1       7.245  28.014  55.957  1.00  0.00     0.186 C 
HETATM   14  C   UNL     1       8.324  28.956  55.411  1.00  0.00     0.035 C 
HETATM   15  C   UNL     1       9.384  29.323  56.449  1.00  0.00     0.034 C 
BRANCH  13  16
HETATM   16  N   UNL     1       7.855  26.660  56.182  1.00  0.00    -0.067 N 
HETATM   17  H   UNL     1       8.655  26.551  55.544  1.00  0.00     0.278 HD
HETATM   18  H   UNL     1       8.261  26.583  57.128  1.00  0.00     0.278 HD
BRANCH  16  19
HETATM   19  C   UNL     1       6.947  25.490  55.956  1.00  0.00     0.280 C 
BRANCH  19  20
HETATM   20  C   UNL     1       7.702  24.277  55.558  1.00  0.00     0.027 A 
HETATM   21  S   UNL     1       8.257  23.142  56.723  1.00  0.00    -0.084 SA
HETATM   22  C   UNL     1       8.937  22.200  55.459  1.00  0.00     0.166 A 
HETATM   23  N   UNL     1       8.787  22.685  54.246  1.00  0.00    -0.265 NA
HETATM   24  C   UNL     1       8.067  23.858  54.295  1.00  0.00     0.133 A 
ENDBRANCH  19  20
ENDBRANCH  16  19
ENDBRANCH  13  16
ENDBRANCH   9  10
ENDBRANCH   7   9
TORSDOF 5
ENDMDL
MODEL 6
REMARK VINA RESULT:      -7.2      3.165      8.912
REMARK  5 active torsions:
REMARK  status: ('A' for Active; 'I' for Inactive)
REMARK    1  A    between atoms: C_7  and  O_8 
REMARK    2  A    between atoms: O_8  and  C_9 
REMARK    3  A    between atoms: C_12  and  N_13 
REMARK    4  A    between atoms: N_13  and  C_16 
REMARK    5  A    between atoms: C_16  and  C_17 
ROOT
HETATM    1  C   UNL     1       6.659  31.271  58.789  1.00  0.00     0.028 A 
HETATM    2  C   UNL     1       7.601  31.371  59.808  1.00  0.00     0.062 A 
HETATM    3  C   UNL     1       7.396  32.224  60.934  1.00  0.00     0.101 C 
HETATM    4  N   UNL     1       7.251  32.907  61.859  1.00  0.00    -0.191 NA
HETATM    5  C   UNL     1       8.761  30.611  59.702  1.00  0.00     0.142 A 
HETATM    6  N   UNL     1       9.041  29.770  58.669  1.00  0.00    -0.236 NA
HETATM    7  C   UNL     1       8.101  29.701  57.699  1.00  0.00     0.164 A 
HETATM    8  C   UNL     1       6.913  30.421  57.715  1.00  0.00     0.059 A 
ENDROOT
BRANCH   7   9
HETATM    9  O   UNL     1       8.274  28.885  56.606  1.00  0.00    -0.329 OA
BRANCH   9  10
HETATM   10  C   UNL     1       7.504  27.694  56.471  1.00  0.00     0.130 C 
HETATM   11  C   UNL     1       8.022  26.517  57.310  1.00  0.00     0.034 C 
HETATM   12  C   UNL     1       7.093  25.309  57.206  1.00  0.00     0.035 C 
HETATM   13  C   UNL     1       6.781  24.909  55.760  1.00  0.00     0.186 C 
HETATM   14  C   UNL     1       6.267  26.102  54.945  1.00  0.00     0.035 C 
HETATM   15  C   UNL     1       7.186  27.321  55.017  1.00  0.00     0.034 C 
BRANCH  13  16
HETATM   16  N   UNL     1       7.997  24.348  55.081  1.00  0.00    -0.067 N 
HETATM   17  H   UNL     1       7.750  24.108  54.112  1.00  0.00     0.278 HD
HETATM   18  H   UNL     1       8.741  25.058  54.994  1.00  0.00     0.278 HD
BRANCH  16  19
HETATM   19  C   UNL     1       8.583  23.118  55.705  1.00  0.00     0.280 C 
BRANCH  19  20
HETATM   20  C   UNL     1       8.542  21.960  54.778  1.00  0.00     0.027 A 
HETATM   21  S   UNL     1       7.985  22.121  53.162  1.00  0.00    -0.084 SA
HETATM   22  C   UNL     1       8.278  20.448  52.910  1.00  0.00     0.166 A 
HETATM   23  N   UNL     1       8.744  19.791  53.948  1.00  0.00    -0.265 NA
HETATM   24  C   UNL     1       8.915  20.651  55.010  1.00  0.00     0.133 A 
ENDBRANCH  19  20
ENDBRANCH  16  19
ENDBRANCH  13  16
ENDBRANCH   9  10
ENDBRANCH   7   9
TORSDOF 5
ENDMDL
MODEL 7
REMARK VINA RESULT:      -7.2      1.662      2.044
REMARK  5 active torsions:
REMARK  status: ('A' for Active; 'I' for Inactive)
REMARK    1  A    between atoms: C_7  and  O_8 
REMARK    2  A    between atoms: O_8  and  C_9 
REMARK    3  A    between atoms: C_12  and  N_13 
REMARK    4  A    between atoms: N_13  and  C_16 
REMARK    5  A    between atoms: C_16  and  C_17 
ROOT
HETATM    1  C   UNL     1       7.906  23.362  52.726  1.00  0.00     0.028 A 
HETATM    2  C   UNL     1       7.904  22.334  53.664  1.00  0.00     0.062 A 
HETATM    3  C   UNL     1       8.395  21.031  53.347  1.00  0.00     0.101 C 
HETATM    4  N   UNL     1       8.790  19.967  53.113  1.00  0.00    -0.191 NA
HETATM    5  C   UNL     1       7.408  22.609  54.934  1.00  0.00     0.142 A 
HETATM    6  N   UNL     1       6.923  23.818  55.328  1.00  0.00    -0.236 NA
HETATM    7  C   UNL     1       6.942  24.791  54.388  1.00  0.00     0.164 A 
HETATM    8  C   UNL     1       7.416  24.612  53.094  1.00  0.00     0.059 A 
ENDROOT
BRANCH   7   9
HETATM    9  O   UNL     1       6.478  26.054  54.670  1.00  0.00    -0.329 OA
BRANCH   9  10
HETATM   10  C   UNL     1       7.204  26.903  55.554  1.00  0.00     0.130 C 
HETATM   11  C   UNL     1       6.917  26.648  57.040  1.00  0.00     0.034 C 
HETATM   12  C   UNL     1       7.804  27.513  57.934  1.00  0.00     0.035 C 
HETATM   13  C   UNL     1       7.758  29.001  57.572  1.00  0.00     0.186 C 
HETATM   14  C   UNL     1       8.046  29.228  56.083  1.00  0.00     0.035 C 
HETATM   15  C   UNL     1       7.161  28.387  55.165  1.00  0.00     0.034 C 
BRANCH  13  16
HETATM   16  N   UNL     1       6.419  29.595  57.901  1.00  0.00    -0.067 N 
HETATM   17  H   UNL     1       5.709  29.158  57.298  1.00  0.00     0.278 HD
HETATM   18  H   UNL     1       6.128  29.358  58.863  1.00  0.00     0.278 HD
BRANCH  16  19
HETATM   19  C   UNL     1       6.301  31.078  57.718  1.00  0.00     0.280 C 
BRANCH  19  20
HETATM   20  C   UNL     1       6.304  31.794  59.017  1.00  0.00     0.027 A 
HETATM   21  S   UNL     1       4.925  32.654  59.573  1.00  0.00    -0.084 SA
HETATM   22  C   UNL     1       5.788  33.091  60.992  1.00  0.00     0.166 A 
HETATM   23  N   UNL     1       7.024  32.651  61.062  1.00  0.00    -0.265 NA
HETATM   24  C   UNL     1       7.318  31.895  59.949  1.00  0.00     0.133 A 
ENDBRANCH  19  20
ENDBRANCH  16  19
ENDBRANCH  13  16
ENDBRANCH   9  10
ENDBRANCH   7   9
TORSDOF 5
ENDMDL
MODEL 8
REMARK VINA RESULT:      -7.0      5.425      7.397
REMARK  5 active torsions:
REMARK  status: ('A' for Active; 'I' for Inactive)
REMARK    1  A    between atoms: C_7  and  O_8 
REMARK    2  A    between atoms: O_8  and  C_9 
REMARK    3  A    between atoms: C_12  and  N_13 
REMARK    4  A    between atoms: N_13  and  C_16 
REMARK    5  A    between atoms: C_16  and  C_17 
ROOT
HETATM    1  C   UNL     1       8.253  23.303  53.040  1.00  0.00     0.028 A 
HETATM    2  C   UNL     1       7.998  22.232  53.891  1.00  0.00     0.062 A 
HETATM    3  C   UNL     1       8.250  20.885  53.494  1.00  0.00     0.101 C 
HETATM    4  N   UNL     1       8.448  19.783  53.194  1.00  0.00    -0.191 NA
HETATM    5  C   UNL     1       7.487  22.510  55.155  1.00  0.00     0.142 A 
HETATM    6  N   UNL     1       7.219  23.760  55.621  1.00  0.00    -0.236 NA
HETATM    7  C   UNL     1       7.480  24.774  54.764  1.00  0.00     0.164 A 
HETATM    8  C   UNL     1       7.989  24.596  53.484  1.00  0.00     0.059 A 
ENDROOT
BRANCH   7   9
HETATM    9  O   UNL     1       7.249  26.080  55.125  1.00  0.00    -0.329 OA
BRANCH   9  10
HETATM   10  C   UNL     1       6.307  26.868  54.403  1.00  0.00     0.130 C 
HETATM   11  C   UNL     1       5.202  26.049  53.721  1.00  0.00     0.034 C 
HETATM   12  C   UNL     1       4.168  26.956  53.058  1.00  0.00     0.035 C 
HETATM   13  C   UNL     1       4.789  28.000  52.124  1.00  0.00     0.186 C 
HETATM   14  C   UNL     1       5.890  28.802  52.829  1.00  0.00     0.035 C 
HETATM   15  C   UNL     1       6.949  27.919  53.488  1.00  0.00     0.034 C 
BRANCH  13  16
HETATM   16  N   UNL     1       5.372  27.351  50.902  1.00  0.00    -0.067 N 
HETATM   17  H   UNL     1       6.377  27.199  51.058  1.00  0.00     0.278 HD
HETATM   18  H   UNL     1       4.983  26.406  50.756  1.00  0.00     0.278 HD
BRANCH  16  19
HETATM   19  C   UNL     1       5.236  28.125  49.626  1.00  0.00     0.280 C 
BRANCH  19  20
HETATM   20  C   UNL     1       4.295  27.472  48.683  1.00  0.00     0.027 A 
HETATM   21  S   UNL     1       2.629  27.888  48.645  1.00  0.00    -0.084 SA
HETATM   22  C   UNL     1       2.387  26.743  47.389  1.00  0.00     0.166 A 
HETATM   23  N   UNL     1       3.456  26.073  47.018  1.00  0.00    -0.265 NA
HETATM   24  C   UNL     1       4.550  26.499  47.738  1.00  0.00     0.133 A 
ENDBRANCH  19  20
ENDBRANCH  16  19
ENDBRANCH  13  16
ENDBRANCH   9  10
ENDBRANCH   7   9
TORSDOF 5
ENDMDL
MODEL 9
REMARK VINA RESULT:      -7.0      1.524      1.851
REMARK  5 active torsions:
REMARK  status: ('A' for Active; 'I' for Inactive)
REMARK    1  A    between atoms: C_7  and  O_8 
REMARK    2  A    between atoms: O_8  and  C_9 
REMARK    3  A    between atoms: C_12  and  N_13 
REMARK    4  A    between atoms: N_13  and  C_16 
REMARK    5  A    between atoms: C_16  and  C_17 
ROOT
HETATM    1  C   UNL     1       7.943  23.348  52.524  1.00  0.00     0.028 A 
HETATM    2  C   UNL     1       8.123  22.499  53.612  1.00  0.00     0.062 A 
HETATM    3  C   UNL     1       8.306  21.094  53.442  1.00  0.00     0.101 C 
HETATM    4  N   UNL     1       8.458  19.950  53.329  1.00  0.00    -0.191 NA
HETATM    5  C   UNL     1       8.121  23.061  54.885  1.00  0.00     0.142 A 
HETATM    6  N   UNL     1       7.957  24.387  55.143  1.00  0.00    -0.236 NA
HETATM    7  C   UNL     1       7.785  25.178  54.060  1.00  0.00     0.164 A 
HETATM    8  C   UNL     1       7.771  24.711  52.752  1.00  0.00     0.059 A 
ENDROOT
BRANCH   7   9
HETATM    9  O   UNL     1       7.610  26.535  54.197  1.00  0.00    -0.329 OA
BRANCH   9  10
HETATM   10  C   UNL     1       6.456  27.046  54.857  1.00  0.00     0.130 C 
HETATM   11  C   UNL     1       5.772  28.201  54.113  1.00  0.00     0.034 C 
HETATM   12  C   UNL     1       4.485  28.629  54.815  1.00  0.00     0.035 C 
HETATM   13  C   UNL     1       4.678  28.922  56.307  1.00  0.00     0.186 C 
HETATM   14  C   UNL     1       5.364  27.754  57.026  1.00  0.00     0.035 C 
HETATM   15  C   UNL     1       6.664  27.315  56.354  1.00  0.00     0.034 C 
BRANCH  13  16
HETATM   16  N   UNL     1       5.498  30.163  56.511  1.00  0.00    -0.067 N 
HETATM   17  H   UNL     1       6.464  29.970  56.216  1.00  0.00     0.278 HD
HETATM   18  H   UNL     1       5.183  30.928  55.894  1.00  0.00     0.278 HD
BRANCH  16  19
HETATM   19  C   UNL     1       5.560  30.678  57.917  1.00  0.00     0.280 C 
BRANCH  19  20
HETATM   20  C   UNL     1       6.960  30.859  58.374  1.00  0.00     0.027 A 
HETATM   21  S   UNL     1       7.358  31.950  59.639  1.00  0.00    -0.084 SA
HETATM   22  C   UNL     1       9.011  31.515  59.474  1.00  0.00     0.166 A 
HETATM   23  N   UNL     1       9.274  30.632  58.538  1.00  0.00    -0.265 NA
HETATM   24  C   UNL     1       8.107  30.239  57.921  1.00  0.00     0.133 A 
ENDBRANCH  19  20
ENDBRANCH  16  19
ENDBRANCH  13  16
ENDBRANCH   9  10
ENDBRANCH   7   9
TORSDOF 5
ENDMDL
MODEL 10
REMARK VINA RESULT:      -6.8      3.410      9.055
REMARK  5 active torsions:
REMARK  status: ('A' for Active; 'I' for Inactive)
REMARK    1  A    between atoms: C_7  and  O_8 
REMARK    2  A    between atoms: O_8  and  C_9 
REMARK    3  A    between atoms: C_12  and  N_13 
REMARK    4  A    between atoms: N_13  and  C_16 
REMARK    5  A    between atoms: C_16  and  C_17 
ROOT
HETATM    1  C   UNL     1       7.929  31.331  62.597  1.00  0.00     0.028 A 
HETATM    2  C   UNL     1       6.856  32.193  62.398  1.00  0.00     0.062 A 
HETATM    3  C   UNL     1       5.867  32.402  63.407  1.00  0.00     0.101 C 
HETATM    4  N   UNL     1       5.054  32.589  64.211  1.00  0.00    -0.191 NA
HETATM    5  C   UNL     1       6.769  32.857  61.179  1.00  0.00     0.142 A 
HETATM    6  N   UNL     1       7.663  32.723  60.162  1.00  0.00    -0.236 NA
HETATM    7  C   UNL     1       8.692  31.876  60.394  1.00  0.00     0.164 A 
HETATM    8  C   UNL     1       8.864  31.169  61.577  1.00  0.00     0.059 A 
ENDROOT
BRANCH   7   9
HETATM    9  O   UNL     1       9.658  31.661  59.440  1.00  0.00    -0.329 OA
BRANCH   9  10
HETATM   10  C   UNL     1       9.326  31.013  58.216  1.00  0.00     0.130 C 
HETATM   11  C   UNL     1       7.964  30.304  58.235  1.00  0.00     0.034 C 
HETATM   12  C   UNL     1       7.620  29.724  56.865  1.00  0.00     0.035 C 
HETATM   13  C   UNL     1       8.732  28.846  56.283  1.00  0.00     0.186 C 
HETATM   14  C   UNL     1      10.081  29.576  56.276  1.00  0.00     0.035 C 
HETATM   15  C   UNL     1      10.459  30.153  57.640  1.00  0.00     0.034 C 
BRANCH  13  16
HETATM   16  N   UNL     1       8.878  27.571  57.063  1.00  0.00    -0.067 N 
HETATM   17  H   UNL     1       9.483  26.929  56.533  1.00  0.00     0.278 HD
HETATM   18  H   UNL     1       9.378  27.729  57.952  1.00  0.00     0.278 HD
BRANCH  16  19
HETATM   19  C   UNL     1       7.605  26.837  57.355  1.00  0.00     0.280 C 
BRANCH  19  20
HETATM   20  C   UNL     1       7.360  25.750  56.376  1.00  0.00     0.027 A 
HETATM   21  S   UNL     1       7.802  24.124  56.708  1.00  0.00    -0.084 SA
HETATM   22  C   UNL     1       7.193  23.660  55.171  1.00  0.00     0.166 A 
HETATM   23  N   UNL     1       6.704  24.634  54.437  1.00  0.00    -0.265 NA
HETATM   24  C   UNL     1       6.777  25.825  55.126  1.00  0.00     0.133 A 
ENDBRANCH  19  20
ENDBRANCH  16  19
ENDBRANCH  13  16
ENDBRANCH   9  10
ENDBRANCH   7   9
TORSDOF 5
ENDMDL
