MODEL 1
REMARK VINA RESULT:      -9.1      0.000      0.000
REMARK  7 active torsions:
REMARK  status: ('A' for Active; 'I' for Inactive)
REMARK    1  A    between atoms: O_2  and  C_3 
REMARK    2  A    between atoms: C_4  and  N_5 
REMARK       I    between atoms: N_5  and  C_6 
REMARK       I    between atoms: C_6  and  N_7 
REMARK    3  A    between atoms: N_7  and  C_8 
REMARK    4  A    between atoms: C_8  and  C_9 
REMARK    5  A    between atoms: C_9  and  C_10 
REMARK    6  A    between atoms: C_10  and  N_11 
REMARK    7  A    between atoms: C_12  and  C_13 
ROOT
HETATM    1  N   UNL     1       7.817  25.386  55.189  1.00  0.00    -0.306 N 
HETATM    2  C   UNL     1       6.700  26.188  55.281  1.00  0.00     0.320 C 
HETATM    3  N   UNL     1       7.035  27.417  55.809  1.00  0.00    -0.343 N 
HETATM    4  O   UNL     1       5.539  25.896  55.025  1.00  0.00    -0.247 OA
HETATM    5  H   UNL     1       8.477  25.553  55.936  1.00  0.00     0.171 HD
HETATM    6  H   UNL     1       8.005  27.699  55.762  1.00  0.00     0.164 HD
ENDROOT
BRANCH   3   7
HETATM    7  C   UNL     1       6.047  28.348  56.301  1.00  0.00     0.126 C 
BRANCH   7   8
HETATM    8  C   UNL     1       6.501  29.170  57.503  1.00  0.00     0.040 C 
BRANCH   8   9
HETATM    9  C   UNL     1       7.758  28.624  58.181  1.00  0.00     0.131 C 
BRANCH   9  10
HETATM   10  N   UNL     1       8.898  29.537  57.958  1.00  0.00    -0.341 N 
HETATM   11  C   UNL     1       9.302  30.591  58.721  1.00  0.00     0.117 A 
HETATM   12  N   UNL     1      10.378  31.079  58.062  1.00  0.00    -0.350 N 
HETATM   13  H   UNL     1      10.922  31.869  58.388  1.00  0.00     0.166 HD
HETATM   14  C   UNL     1      10.657  30.388  56.917  1.00  0.00     0.107 A 
HETATM   15  C   UNL     1       9.722  29.410  56.839  1.00  0.00     0.109 A 
BRANCH  11  16
HETATM   16  C   UNL     1       8.787  31.184  60.029  1.00  0.00     0.008 A 
HETATM   17  C   UNL     1       7.948  32.299  60.089  1.00  0.00     0.015 A 
HETATM   18  C   UNL     1       7.504  32.799  61.320  1.00  0.00     0.001 A 
HETATM   19  C   UNL     1       7.889  32.188  62.508  1.00  0.00     0.000 A 
HETATM   20  C   UNL     1       8.720  31.075  62.469  1.00  0.00     0.001 A 
HETATM   21  C   UNL     1       9.168  30.577  61.240  1.00  0.00     0.015 A 
ENDBRANCH  11  16
ENDBRANCH   9  10
ENDBRANCH   8   9
ENDBRANCH   7   8
ENDBRANCH   3   7
BRANCH   1  22
HETATM   22  C   UNL     1       7.832  24.079  54.646  1.00  0.00     0.071 A 
HETATM   23  C   UNL     1       7.909  23.797  53.265  1.00  0.00     0.095 A 
HETATM   24  C   UNL     1       7.886  22.460  52.844  1.00  0.00     0.041 A 
HETATM   25  C   UNL     1       7.822  21.417  53.773  1.00  0.00     0.026 A 
HETATM   26  C   UNL     1       7.799  21.704  55.132  1.00  0.00     0.036 A 
HETATM   27  C   UNL     1       7.816  23.024  55.571  1.00  0.00     0.056 A 
HETATM   28 CL   UNL     1       7.744  20.422  56.278  1.00  0.00    -0.084 Cl
BRANCH  23  29
HETATM   29  O   UNL     1       8.094  24.860  52.418  1.00  0.00    -0.354 OA
HETATM   30  C   UNL     1       6.948  25.367  51.744  1.00  0.00     0.210 C 
ENDBRANCH  23  29
ENDBRANCH   1  22
TORSDOF 7
ENDMDL
MODEL 2
REMARK VINA RESULT:      -8.7      4.106      9.808
REMARK  7 active torsions:
REMARK  status: ('A' for Active; 'I' for Inactive)
REMARK    1  A    between atoms: O_2  and  C_3 
REMARK    2  A    between atoms: C_4  and  N_5 
REMARK       I    between atoms: N_5  and  C_6 
REMARK       I    between atoms: C_6  and  N_7 
REMARK    3  A    between atoms: N_7  and  C_8 
REMARK    4  A    between atoms: C_8  and  C_9 
REMARK    5  A    between atoms: C_9  and  C_10 
REMARK    6  A    between atoms: C_10  and  N_11 
REMARK    7  A    between atoms: C_12  and  C_13 
ROOT
HETATM    1  N   UNL     1       7.246  30.928  60.480  1.00  0.00    -0.306 N 
HETATM    2  C   UNL     1       7.987  31.013  59.322  1.00  0.00     0.320 C 
HETATM    3  N   UNL     1       8.262  29.752  58.836  1.00  0.00    -0.343 N 
HETATM    4  O   UNL     1       8.439  32.017  58.788  1.00  0.00    -0.247 OA
HETATM    5  H   UNL     1       7.480  30.116  61.033  1.00  0.00     0.171 HD
HETATM    6  H   UNL     1       7.673  28.992  59.147  1.00  0.00     0.164 HD
ENDROOT
BRANCH   3   7
HETATM    7  C   UNL     1       9.261  29.509  57.822  1.00  0.00     0.126 C 
BRANCH   7   8
HETATM    8  C   UNL     1       8.753  28.732  56.612  1.00  0.00     0.040 C 
BRANCH   8   9
HETATM    9  C   UNL     1       8.028  27.436  56.975  1.00  0.00     0.131 C 
BRANCH   9  10
HETATM   10  N   UNL     1       6.669  27.429  56.398  1.00  0.00    -0.341 N 
HETATM   11  C   UNL     1       6.188  26.678  55.368  1.00  0.00     0.117 A 
HETATM   12  N   UNL     1       4.899  27.072  55.247  1.00  0.00    -0.350 N 
HETATM   13  H   UNL     1       4.257  26.684  54.568  1.00  0.00     0.166 HD
HETATM   14  C   UNL     1       4.557  28.043  56.146  1.00  0.00     0.107 A 
HETATM   15  C   UNL     1       5.672  28.279  56.878  1.00  0.00     0.109 A 
BRANCH  11  16
HETATM   16  C   UNL     1       6.816  25.604  54.484  1.00  0.00     0.008 A 
HETATM   17  C   UNL     1       6.826  24.247  54.815  1.00  0.00     0.015 A 
HETATM   18  C   UNL     1       7.416  23.304  53.963  1.00  0.00     0.001 A 
HETATM   19  C   UNL     1       8.000  23.705  52.767  1.00  0.00     0.000 A 
HETATM   20  C   UNL     1       7.996  25.050  52.419  1.00  0.00     0.001 A 
HETATM   21  C   UNL     1       7.411  25.993  53.270  1.00  0.00     0.015 A 
ENDBRANCH  11  16
ENDBRANCH   9  10
ENDBRANCH   8   9
ENDBRANCH   7   8
ENDBRANCH   3   7
BRANCH   1  22
HETATM   22  C   UNL     1       6.754  32.038  61.209  1.00  0.00     0.071 A 
HETATM   23  C   UNL     1       5.699  32.867  60.772  1.00  0.00     0.095 A 
HETATM   24  C   UNL     1       5.319  33.957  61.568  1.00  0.00     0.041 A 
HETATM   25  C   UNL     1       5.948  34.204  62.792  1.00  0.00     0.026 A 
HETATM   26  C   UNL     1       6.950  33.351  63.238  1.00  0.00     0.036 A 
HETATM   27  C   UNL     1       7.345  32.266  62.461  1.00  0.00     0.056 A 
HETATM   28 CL   UNL     1       7.709  33.638  64.754  1.00  0.00    -0.084 Cl
BRANCH  23  29
HETATM   29  O   UNL     1       5.045  32.498  59.624  1.00  0.00    -0.354 OA
HETATM   30  C   UNL     1       3.630  32.360  59.694  1.00  0.00     0.210 C 
ENDBRANCH  23  29
ENDBRANCH   1  22
TORSDOF 7
ENDMDL
MODEL 3
REMARK VINA RESULT:      -8.6      3.465      9.212
REMARK  7 active torsions:
REMARK  status: ('A' for Active; 'I' for Inactive)
REMARK    1  A    between atoms: O_2  and  C_3 
REMARK    2  A    between atoms: C_4  and  N_5 
REMARK       I    between atoms: N_5  and  C_6 
REMARK       I    between atoms: C_6  and  N_7 
REMARK    3  A    between atoms: N_7  and  C_8 
REMARK    4  A    between atoms: C_8  and  C_9 
REMARK    5  A    between atoms: C_9  and  C_10 
REMARK    6  A    between atoms: C_10  and  N_11 
REMARK    7  A    between atoms: C_12  and  C_13 
ROOT
HETATM    1  N   UNL     1       7.167  30.489  58.582  1.00  0.00    -0.306 N 
HETATM    2  C   UNL     1       7.200  29.205  58.085  1.00  0.00     0.320 C 
HETATM    3  N   UNL     1       6.171  29.012  57.188  1.00  0.00    -0.343 N 
HETATM    4  O   UNL     1       7.951  28.293  58.403  1.00  0.00    -0.247 OA
HETATM    5  H   UNL     1       6.226  30.848  58.670  1.00  0.00     0.171 HD
HETATM    6  H   UNL     1       5.751  29.833  56.772  1.00  0.00     0.164 HD
ENDROOT
BRANCH   3   7
HETATM    7  C   UNL     1       5.767  27.701  56.736  1.00  0.00     0.126 C 
BRANCH   7   8
HETATM    8  C   UNL     1       5.633  27.571  55.223  1.00  0.00     0.040 C 
BRANCH   8   9
HETATM    9  C   UNL     1       5.321  26.150  54.753  1.00  0.00     0.131 C 
BRANCH   9  10
HETATM   10  N   UNL     1       5.766  25.961  53.358  1.00  0.00    -0.341 N 
HETATM   11  C   UNL     1       6.688  25.084  52.872  1.00  0.00     0.117 A 
HETATM   12  N   UNL     1       6.716  25.338  51.544  1.00  0.00    -0.350 N 
HETATM   13  H   UNL     1       7.301  24.833  50.890  1.00  0.00     0.166 HD
HETATM   14  C   UNL     1       5.863  26.341  51.179  1.00  0.00     0.107 A 
HETATM   15  C   UNL     1       5.259  26.747  52.322  1.00  0.00     0.109 A 
BRANCH  11  16
HETATM   16  C   UNL     1       7.545  24.007  53.532  1.00  0.00     0.008 A 
HETATM   17  C   UNL     1       8.141  24.162  54.786  1.00  0.00     0.015 A 
HETATM   18  C   UNL     1       8.915  23.136  55.344  1.00  0.00     0.001 A 
HETATM   19  C   UNL     1       9.101  21.942  54.658  1.00  0.00     0.000 A 
HETATM   20  C   UNL     1       8.513  21.768  53.412  1.00  0.00     0.001 A 
HETATM   21  C   UNL     1       7.742  22.792  52.851  1.00  0.00     0.015 A 
ENDBRANCH  11  16
ENDBRANCH   9  10
ENDBRANCH   8   9
ENDBRANCH   7   8
ENDBRANCH   3   7
BRANCH   1  22
HETATM   22  C   UNL     1       8.111  31.031  59.488  1.00  0.00     0.071 A 
HETATM   23  C   UNL     1       9.441  31.355  59.146  1.00  0.00     0.095 A 
HETATM   24  C   UNL     1      10.293  31.858  60.139  1.00  0.00     0.041 A 
HETATM   25  C   UNL     1       9.830  32.070  61.441  1.00  0.00     0.026 A 
HETATM   26  C   UNL     1       8.504  31.797  61.755  1.00  0.00     0.036 A 
HETATM   27  C   UNL     1       7.643  31.292  60.785  1.00  0.00     0.056 A 
HETATM   28 CL   UNL     1       7.925  32.078  63.350  1.00  0.00    -0.084 Cl
BRANCH  23  29
HETATM   29  O   UNL     1       9.794  31.239  57.825  1.00  0.00    -0.354 OA
HETATM   30  C   UNL     1      10.724  30.218  57.484  1.00  0.00     0.210 C 
ENDBRANCH  23  29
ENDBRANCH   1  22
TORSDOF 7
ENDMDL
MODEL 4
REMARK VINA RESULT:      -8.5      3.331      8.864
REMARK  7 active torsions:
REMARK  status: ('A' for Active; 'I' for Inactive)
REMARK    1  A    between atoms: O_2  and  C_3 
REMARK    2  A    between atoms: C_4  and  N_5 
REMARK       I    between atoms: N_5  and  C_6 
REMARK       I    between atoms: C_6  and  N_7 
REMARK    3  A    between atoms: N_7  and  C_8 
REMARK    4  A    between atoms: C_8  and  C_9 
REMARK    5  A    between atoms: C_9  and  C_10 
REMARK    6  A    between atoms: C_10  and  N_11 
REMARK    7  A    between atoms: C_12  and  C_13 
ROOT
HETATM    1  N   UNL     1       7.567  28.750  58.223  1.00  0.00    -0.306 N 
HETATM    2  C   UNL     1       6.597  28.757  57.245  1.00  0.00     0.320 C 
HETATM    3  N   UNL     1       5.967  27.531  57.187  1.00  0.00    -0.343 N 
HETATM    4  O   UNL     1       6.331  29.651  56.453  1.00  0.00    -0.247 OA
HETATM    5  H   UNL     1       8.010  27.848  58.325  1.00  0.00     0.171 HD
HETATM    6  H   UNL     1       6.032  26.932  57.999  1.00  0.00     0.164 HD
ENDROOT
BRANCH   3   7
HETATM    7  C   UNL     1       5.129  27.138  56.079  1.00  0.00     0.126 C 
BRANCH   7   8
HETATM    8  C   UNL     1       5.364  25.713  55.588  1.00  0.00     0.040 C 
BRANCH   8   9
HETATM    9  C   UNL     1       6.828  25.277  55.645  1.00  0.00     0.131 C 
BRANCH   9  10
HETATM   10  N   UNL     1       7.318  24.946  54.292  1.00  0.00    -0.341 N 
HETATM   11  C   UNL     1       7.876  23.783  53.853  1.00  0.00     0.117 A 
HETATM   12  N   UNL     1       8.149  24.021  52.549  1.00  0.00    -0.350 N 
HETATM   13  H   UNL     1       8.561  23.335  51.930  1.00  0.00     0.166 HD
HETATM   14  C   UNL     1       7.800  25.283  52.158  1.00  0.00     0.107 A 
HETATM   15  C   UNL     1       7.276  25.879  53.255  1.00  0.00     0.109 A 
BRANCH  11  16
HETATM   16  C   UNL     1       8.167  22.449  54.534  1.00  0.00     0.008 A 
HETATM   17  C   UNL     1       8.379  21.259  53.833  1.00  0.00     0.015 A 
HETATM   18  C   UNL     1       8.645  20.063  54.513  1.00  0.00     0.001 A 
HETATM   19  C   UNL     1       8.706  20.041  55.901  1.00  0.00     0.000 A 
HETATM   20  C   UNL     1       8.502  21.215  56.615  1.00  0.00     0.001 A 
HETATM   21  C   UNL     1       8.232  22.410  55.939  1.00  0.00     0.015 A 
ENDBRANCH  11  16
ENDBRANCH   9  10
ENDBRANCH   8   9
ENDBRANCH   7   8
ENDBRANCH   3   7
BRANCH   1  22
HETATM   22  C   UNL     1       8.367  29.864  58.576  1.00  0.00     0.071 A 
HETATM   23  C   UNL     1       9.662  30.101  58.069  1.00  0.00     0.095 A 
HETATM   24  C   UNL     1      10.371  31.225  58.517  1.00  0.00     0.041 A 
HETATM   25  C   UNL     1       9.796  32.119  59.425  1.00  0.00     0.026 A 
HETATM   26  C   UNL     1       8.501  31.905  59.879  1.00  0.00     0.036 A 
HETATM   27  C   UNL     1       7.781  30.793  59.451  1.00  0.00     0.056 A 
HETATM   28 CL   UNL     1       7.782  33.015  60.979  1.00  0.00    -0.084 Cl
BRANCH  23  29
HETATM   29  O   UNL     1      10.116  29.255  57.089  1.00  0.00    -0.354 OA
HETATM   30  C   UNL     1      10.029  29.706  55.743  1.00  0.00     0.210 C 
ENDBRANCH  23  29
ENDBRANCH   1  22
TORSDOF 7
ENDMDL
MODEL 5
REMARK VINA RESULT:      -8.4      5.595      9.335
REMARK  7 active torsions:
REMARK  status: ('A' for Active; 'I' for Inactive)
REMARK    1  A    between atoms: O_2  and  C_3 
REMARK    2  A    between atoms: C_4  and  N_5 
REMARK       I    between atoms: N_5  and  C_6 
REMARK       I    between atoms: C_6  and  N_7 
REMARK    3  A    between atoms: N_7  and  C_8 
REMARK    4  A    between atoms: C_8  and  C_9 
REMARK    5  A    between atoms: C_9  and  C_10 
REMARK    6  A    between atoms: C_10  and  N_11 
REMARK    7  A    between atoms: C_12  and  C_13 
ROOT
HETATM    1  N   UNL     1       3.432  27.046  49.771  1.00  0.00    -0.306 N 
HETATM    2  C   UNL     1       4.750  27.124  50.166  1.00  0.00     0.320 C 
HETATM    3  N   UNL     1       5.079  26.039  50.952  1.00  0.00    -0.343 N 
HETATM    4  O   UNL     1       5.547  28.028  49.957  1.00  0.00    -0.247 OA
HETATM    5  H   UNL     1       2.842  26.617  50.470  1.00  0.00     0.171 HD
HETATM    6  H   UNL     1       4.493  25.218  50.886  1.00  0.00     0.164 HD
ENDROOT
BRANCH   3   7
HETATM    7  C   UNL     1       6.279  25.994  51.753  1.00  0.00     0.126 C 
BRANCH   7   8
HETATM    8  C   UNL     1       6.066  26.333  53.225  1.00  0.00     0.040 C 
BRANCH   8   9
HETATM    9  C   UNL     1       5.437  25.198  54.032  1.00  0.00     0.131 C 
BRANCH   9  10
HETATM   10  N   UNL     1       6.158  25.015  55.307  1.00  0.00    -0.341 N 
HETATM   11  C   UNL     1       6.981  23.994  55.678  1.00  0.00     0.117 A 
HETATM   12  N   UNL     1       7.360  24.317  56.936  1.00  0.00    -0.350 N 
HETATM   13  H   UNL     1       7.994  23.755  57.490  1.00  0.00     0.166 HD
HETATM   14  C   UNL     1       6.802  25.485  57.373  1.00  0.00     0.107 A 
HETATM   15  C   UNL     1       6.035  25.934  56.350  1.00  0.00     0.109 A 
BRANCH  11  16
HETATM   16  C   UNL     1       7.468  22.739  54.958  1.00  0.00     0.008 A 
HETATM   17  C   UNL     1       7.691  22.682  53.581  1.00  0.00     0.015 A 
HETATM   18  C   UNL     1       8.142  21.502  52.974  1.00  0.00     0.001 A 
HETATM   19  C   UNL     1       8.379  20.365  53.737  1.00  0.00     0.000 A 
HETATM   20  C   UNL     1       8.166  20.403  55.110  1.00  0.00     0.001 A 
HETATM   21  C   UNL     1       7.713  21.580  55.717  1.00  0.00     0.015 A 
ENDBRANCH  11  16
ENDBRANCH   9  10
ENDBRANCH   8   9
ENDBRANCH   7   8
ENDBRANCH   3   7
BRANCH   1  22
HETATM   22  C   UNL     1       2.787  27.974  48.918  1.00  0.00     0.071 A 
HETATM   23  C   UNL     1       2.832  27.916  47.509  1.00  0.00     0.095 A 
HETATM   24  C   UNL     1       2.177  28.911  46.768  1.00  0.00     0.041 A 
HETATM   25  C   UNL     1       1.461  29.927  47.409  1.00  0.00     0.026 A 
HETATM   26  C   UNL     1       1.380  29.945  48.796  1.00  0.00     0.036 A 
HETATM   27  C   UNL     1       2.026  28.970  49.550  1.00  0.00     0.056 A 
HETATM   28 CL   UNL     1       0.481  31.180  49.586  1.00  0.00    -0.084 Cl
BRANCH  23  29
HETATM   29  O   UNL     1       3.445  26.827  46.945  1.00  0.00    -0.354 OA
HETATM   30  C   UNL     1       2.676  25.636  46.817  1.00  0.00     0.210 C 
ENDBRANCH  23  29
ENDBRANCH   1  22
TORSDOF 7
ENDMDL
MODEL 6
REMARK VINA RESULT:      -8.3      2.610      4.215
REMARK  7 active torsions:
REMARK  status: ('A' for Active; 'I' for Inactive)
REMARK    1  A    between atoms: O_2  and  C_3 
REMARK    2  A    between atoms: C_4  and  N_5 
REMARK       I    between atoms: N_5  and  C_6 
REMARK       I    between atoms: C_6  and  N_7 
REMARK    3  A    between atoms: N_7  and  C_8 
REMARK    4  A    between atoms: C_8  and  C_9 
REMARK    5  A    between atoms: C_9  and  C_10 
REMARK    6  A    between atoms: C_10  and  N_11 
REMARK    7  A    between atoms: C_12  and  C_13 
ROOT
HETATM    1  N   UNL     1       7.591  25.257  53.281  1.00  0.00    -0.306 N 
HETATM    2  C   UNL     1       6.301  25.611  52.948  1.00  0.00     0.320 C 
HETATM    3  N   UNL     1       6.290  26.831  52.305  1.00  0.00    -0.343 N 
HETATM    4  O   UNL     1       5.264  25.022  53.221  1.00  0.00    -0.247 OA
HETATM    5  H   UNL     1       8.166  26.056  53.509  1.00  0.00     0.171 HD
HETATM    6  H   UNL     1       7.154  27.146  51.883  1.00  0.00     0.164 HD
ENDROOT
BRANCH   3   7
HETATM    7  C   UNL     1       5.082  27.597  52.107  1.00  0.00     0.126 C 
BRANCH   7   8
HETATM    8  C   UNL     1       4.726  28.520  53.268  1.00  0.00     0.040 C 
BRANCH   8   9
HETATM    9  C   UNL     1       5.922  28.898  54.142  1.00  0.00     0.131 C 
BRANCH   9  10
HETATM   10  N   UNL     1       5.857  28.188  55.435  1.00  0.00    -0.341 N 
HETATM   11  C   UNL     1       6.755  28.207  56.459  1.00  0.00     0.117 A 
HETATM   12  N   UNL     1       6.214  27.382  57.386  1.00  0.00    -0.350 N 
HETATM   13  H   UNL     1       6.642  27.194  58.284  1.00  0.00     0.166 HD
HETATM   14  C   UNL     1       5.027  26.840  56.983  1.00  0.00     0.107 A 
HETATM   15  C   UNL     1       4.792  27.341  55.746  1.00  0.00     0.109 A 
BRANCH  11  16
HETATM   16  C   UNL     1       8.077  28.941  56.668  1.00  0.00     0.008 A 
HETATM   17  C   UNL     1       9.035  29.097  55.664  1.00  0.00     0.015 A 
HETATM   18  C   UNL     1      10.230  29.784  55.913  1.00  0.00     0.001 A 
HETATM   19  C   UNL     1      10.482  30.326  57.167  1.00  0.00     0.000 A 
HETATM   20  C   UNL     1       9.540  30.184  58.178  1.00  0.00     0.001 A 
HETATM   21  C   UNL     1       8.346  29.495  57.932  1.00  0.00     0.015 A 
ENDBRANCH  11  16
ENDBRANCH   9  10
ENDBRANCH   8   9
ENDBRANCH   7   8
ENDBRANCH   3   7
BRANCH   1  22
HETATM   22  C   UNL     1       7.960  24.043  53.907  1.00  0.00     0.071 A 
HETATM   23  C   UNL     1       8.268  23.921  55.279  1.00  0.00     0.095 A 
HETATM   24  C   UNL     1       8.650  22.668  55.780  1.00  0.00     0.041 A 
HETATM   25  C   UNL     1       8.694  21.547  54.946  1.00  0.00     0.026 A 
HETATM   26  C   UNL     1       8.339  21.666  53.609  1.00  0.00     0.036 A 
HETATM   27  C   UNL     1       7.961  22.901  53.090  1.00  0.00     0.056 A 
HETATM   28 CL   UNL     1       8.371  20.284  52.586  1.00  0.00    -0.084 Cl
BRANCH  23  29
HETATM   29  O   UNL     1       8.085  25.031  56.063  1.00  0.00    -0.354 OA
HETATM   30  C   UNL     1       8.556  24.969  57.405  1.00  0.00     0.210 C 
ENDBRANCH  23  29
ENDBRANCH   1  22
TORSDOF 7
ENDMDL
MODEL 7
REMARK VINA RESULT:      -8.1      3.401      8.970
REMARK  7 active torsions:
REMARK  status: ('A' for Active; 'I' for Inactive)
REMARK    1  A    between atoms: O_2  and  C_3 
REMARK    2  A    between atoms: C_4  and  N_5 
REMARK       I    between atoms: N_5  and  C_6 
REMARK       I    between atoms: C_6  and  N_7 
REMARK    3  A    between atoms: N_7  and  C_8 
REMARK    4  A    between atoms: C_8  and  C_9 
REMARK    5  A    between atoms: C_9  and  C_10 
REMARK    6  A    between atoms: C_10  and  N_11 
REMARK    7  A    between atoms: C_12  and  C_13 
ROOT
HETATM    1  N   UNL     1       7.241  29.100  58.071  1.00  0.00    -0.306 N 
HETATM    2  C   UNL     1       6.693  29.122  56.807  1.00  0.00     0.320 C 
HETATM    3  N   UNL     1       6.194  27.879  56.479  1.00  0.00    -0.343 N 
HETATM    4  O   UNL     1       6.683  30.047  56.006  1.00  0.00    -0.247 OA
HETATM    5  H   UNL     1       7.666  28.210  58.294  1.00  0.00     0.171 HD
HETATM    6  H   UNL     1       5.993  27.240  57.237  1.00  0.00     0.164 HD
ENDROOT
BRANCH   3   7
HETATM    7  C   UNL     1       5.837  27.515  55.128  1.00  0.00     0.126 C 
BRANCH   7   8
HETATM    8  C   UNL     1       5.979  26.028  54.820  1.00  0.00     0.040 C 
BRANCH   8   9
HETATM    9  C   UNL     1       5.773  25.125  56.036  1.00  0.00     0.131 C 
BRANCH   9  10
HETATM   10  N   UNL     1       7.072  24.783  56.647  1.00  0.00    -0.341 N 
HETATM   11  C   UNL     1       7.939  23.790  56.299  1.00  0.00     0.117 A 
HETATM   12  N   UNL     1       8.955  23.917  57.182  1.00  0.00    -0.350 N 
HETATM   13  H   UNL     1       9.777  23.325  57.178  1.00  0.00     0.166 HD
HETATM   14  C   UNL     1       8.758  24.933  58.074  1.00  0.00     0.107 A 
HETATM   15  C   UNL     1       7.566  25.486  57.747  1.00  0.00     0.109 A 
BRANCH  11  16
HETATM   16  C   UNL     1       7.919  22.734  55.198  1.00  0.00     0.008 A 
HETATM   17  C   UNL     1       7.894  21.360  55.452  1.00  0.00     0.015 A 
HETATM   18  C   UNL     1       7.874  20.436  54.400  1.00  0.00     0.001 A 
HETATM   19  C   UNL     1       7.874  20.871  53.080  1.00  0.00     0.000 A 
HETATM   20  C   UNL     1       7.894  22.234  52.807  1.00  0.00     0.001 A 
HETATM   21  C   UNL     1       7.918  23.159  53.857  1.00  0.00     0.015 A 
ENDBRANCH  11  16
ENDBRANCH   9  10
ENDBRANCH   8   9
ENDBRANCH   7   8
ENDBRANCH   3   7
BRANCH   1  22
HETATM   22  C   UNL     1       7.797  30.221  58.731  1.00  0.00     0.071 A 
HETATM   23  C   UNL     1       9.175  30.524  58.754  1.00  0.00     0.095 A 
HETATM   24  C   UNL     1       9.610  31.650  59.469  1.00  0.00     0.041 A 
HETATM   25  C   UNL     1       8.696  32.481  60.122  1.00  0.00     0.026 A 
HETATM   26  C   UNL     1       7.337  32.204  60.050  1.00  0.00     0.036 A 
HETATM   27  C   UNL     1       6.883  31.090  59.350  1.00  0.00     0.056 A 
HETATM   28 CL   UNL     1       6.207  33.238  60.833  1.00  0.00    -0.084 Cl
BRANCH  23  29
HETATM   29  O   UNL     1      10.002  29.740  57.992  1.00  0.00    -0.354 OA
HETATM   30  C   UNL     1      10.481  30.289  56.769  1.00  0.00     0.210 C 
ENDBRANCH  23  29
ENDBRANCH   1  22
TORSDOF 7
ENDMDL
MODEL 8
REMARK VINA RESULT:      -8.0      1.477      2.065
REMARK  7 active torsions:
REMARK  status: ('A' for Active; 'I' for Inactive)
REMARK    1  A    between atoms: O_2  and  C_3 
REMARK    2  A    between atoms: C_4  and  N_5 
REMARK       I    between atoms: N_5  and  C_6 
REMARK       I    between atoms: C_6  and  N_7 
REMARK    3  A    between atoms: N_7  and  C_8 
REMARK    4  A    between atoms: C_8  and  C_9 
REMARK    5  A    between atoms: C_9  and  C_10 
REMARK    6  A    between atoms: C_10  and  N_11 
REMARK    7  A    between atoms: C_12  and  C_13 
ROOT
HETATM    1  N   UNL     1       7.626  25.352  54.571  1.00  0.00    -0.306 N 
HETATM    2  C   UNL     1       6.545  25.883  55.241  1.00  0.00     0.320 C 
HETATM    3  N   UNL     1       6.317  27.180  54.831  1.00  0.00    -0.343 N 
HETATM    4  O   UNL     1       5.886  25.370  56.135  1.00  0.00    -0.247 OA
HETATM    5  H   UNL     1       8.333  26.044  54.365  1.00  0.00     0.171 HD
HETATM    6  H   UNL     1       6.702  27.464  53.940  1.00  0.00     0.164 HD
ENDROOT
BRANCH   3   7
HETATM    7  C   UNL     1       5.459  28.087  55.556  1.00  0.00     0.126 C 
BRANCH   7   8
HETATM    8  C   UNL     1       6.193  29.234  56.242  1.00  0.00     0.040 C 
BRANCH   8   9
HETATM    9  C   UNL     1       7.042  28.794  57.434  1.00  0.00     0.131 C 
BRANCH   9  10
HETATM   10  N   UNL     1       8.371  29.435  57.382  1.00  0.00    -0.341 N 
HETATM   11  C   UNL     1       8.932  30.302  58.271  1.00  0.00     0.117 A 
HETATM   12  N   UNL     1      10.143  30.583  57.738  1.00  0.00    -0.350 N 
HETATM   13  H   UNL     1      10.818  31.197  58.177  1.00  0.00     0.166 HD
HETATM   14  C   UNL     1      10.360  29.942  56.551  1.00  0.00     0.107 A 
HETATM   15  C   UNL     1       9.242  29.215  56.313  1.00  0.00     0.109 A 
BRANCH  11  16
HETATM   16  C   UNL     1       8.448  30.888  59.595  1.00  0.00     0.008 A 
HETATM   17  C   UNL     1       7.325  31.710  59.706  1.00  0.00     0.015 A 
HETATM   18  C   UNL     1       6.926  32.218  60.949  1.00  0.00     0.001 A 
HETATM   19  C   UNL     1       7.643  31.907  62.099  1.00  0.00     0.000 A 
HETATM   20  C   UNL     1       8.761  31.088  62.009  1.00  0.00     0.001 A 
HETATM   21  C   UNL     1       9.163  30.583  60.767  1.00  0.00     0.015 A 
ENDBRANCH  11  16
ENDBRANCH   9  10
ENDBRANCH   8   9
ENDBRANCH   7   8
ENDBRANCH   3   7
BRANCH   1  22
HETATM   22  C   UNL     1       8.098  24.026  54.720  1.00  0.00     0.071 A 
HETATM   23  C   UNL     1       8.958  23.604  55.756  1.00  0.00     0.095 A 
HETATM   24  C   UNL     1       9.383  22.268  55.782  1.00  0.00     0.041 A 
HETATM   25  C   UNL     1       8.938  21.356  54.820  1.00  0.00     0.026 A 
HETATM   26  C   UNL     1       8.050  21.769  53.835  1.00  0.00     0.036 A 
HETATM   27  C   UNL     1       7.619  23.091  53.788  1.00  0.00     0.056 A 
HETATM   28 CL   UNL     1       7.483  20.644  52.665  1.00  0.00    -0.084 Cl
BRANCH  23  29
HETATM   29  O   UNL     1       9.257  24.517  56.735  1.00  0.00    -0.354 OA
HETATM   30  C   UNL     1       8.688  24.305  58.022  1.00  0.00     0.210 C 
ENDBRANCH  23  29
ENDBRANCH   1  22
TORSDOF 7
ENDMDL
MODEL 9
REMARK VINA RESULT:      -8.0      3.023      8.568
REMARK  7 active torsions:
REMARK  status: ('A' for Active; 'I' for Inactive)
REMARK    1  A    between atoms: O_2  and  C_3 
REMARK    2  A    between atoms: C_4  and  N_5 
REMARK       I    between atoms: N_5  and  C_6 
REMARK       I    between atoms: C_6  and  N_7 
REMARK    3  A    between atoms: N_7  and  C_8 
REMARK    4  A    between atoms: C_8  and  C_9 
REMARK    5  A    between atoms: C_9  and  C_10 
REMARK    6  A    between atoms: C_10  and  N_11 
REMARK    7  A    between atoms: C_12  and  C_13 
ROOT
HETATM    1  N   UNL     1       8.232  27.136  57.029  1.00  0.00    -0.306 N 
HETATM    2  C   UNL     1       7.794  25.929  57.527  1.00  0.00     0.320 C 
HETATM    3  N   UNL     1       8.843  25.036  57.607  1.00  0.00    -0.343 N 
HETATM    4  O   UNL     1       6.649  25.597  57.804  1.00  0.00    -0.247 OA
HETATM    5  H   UNL     1       8.977  27.032  56.355  1.00  0.00     0.171 HD
HETATM    6  H   UNL     1       9.780  25.414  57.618  1.00  0.00     0.164 HD
ENDROOT
BRANCH   3   7
HETATM    7  C   UNL     1       8.646  23.619  57.801  1.00  0.00     0.126 C 
BRANCH   7   8
HETATM    8  C   UNL     1       8.176  22.873  56.557  1.00  0.00     0.040 C 
BRANCH   8   9
HETATM    9  C   UNL     1       9.234  22.787  55.457  1.00  0.00     0.131 C 
BRANCH   9  10
HETATM   10  N   UNL     1       8.710  22.034  54.300  1.00  0.00    -0.341 N 
HETATM   11  C   UNL     1       7.858  22.459  53.325  1.00  0.00     0.117 A 
HETATM   12  N   UNL     1       7.702  21.377  52.529  1.00  0.00    -0.350 N 
HETATM   13  H   UNL     1       7.130  21.375  51.694  1.00  0.00     0.166 HD
HETATM   14  C   UNL     1       8.408  20.292  52.967  1.00  0.00     0.107 A 
HETATM   15  C   UNL     1       9.047  20.696  54.091  1.00  0.00     0.109 A 
BRANCH  11  16
HETATM   16  C   UNL     1       7.179  23.799  53.052  1.00  0.00     0.008 A 
HETATM   17  C   UNL     1       7.581  24.671  52.038  1.00  0.00     0.015 A 
HETATM   18  C   UNL     1       6.918  25.887  51.832  1.00  0.00     0.001 A 
HETATM   19  C   UNL     1       5.841  26.247  52.635  1.00  0.00     0.000 A 
HETATM   20  C   UNL     1       5.424  25.390  53.646  1.00  0.00     0.001 A 
HETATM   21  C   UNL     1       6.087  24.176  53.856  1.00  0.00     0.015 A 
ENDBRANCH  11  16
ENDBRANCH   9  10
ENDBRANCH   8   9
ENDBRANCH   7   8
ENDBRANCH   3   7
BRANCH   1  22
HETATM   22  C   UNL     1       7.420  28.285  56.864  1.00  0.00     0.071 A 
HETATM   23  C   UNL     1       7.400  29.374  57.760  1.00  0.00     0.095 A 
HETATM   24  C   UNL     1       6.531  30.445  57.507  1.00  0.00     0.041 A 
HETATM   25  C   UNL     1       5.719  30.455  56.369  1.00  0.00     0.026 A 
HETATM   26  C   UNL     1       5.784  29.401  55.466  1.00  0.00     0.036 A 
HETATM   27  C   UNL     1       6.637  28.327  55.700  1.00  0.00     0.056 A 
HETATM   28 CL   UNL     1       4.804  29.421  54.052  1.00  0.00    -0.084 Cl
BRANCH  23  29
HETATM   29  O   UNL     1       8.309  29.358  58.788  1.00  0.00    -0.354 OA
HETATM   30  C   UNL     1       8.253  30.426  59.727  1.00  0.00     0.210 C 
ENDBRANCH  23  29
ENDBRANCH   1  22
TORSDOF 7
ENDMDL
MODEL 10
REMARK VINA RESULT:      -7.9      3.315      7.728
REMARK  7 active torsions:
REMARK  status: ('A' for Active; 'I' for Inactive)
REMARK    1  A    between atoms: O_2  and  C_3 
REMARK    2  A    between atoms: C_4  and  N_5 
REMARK       I    between atoms: N_5  and  C_6 
REMARK       I    between atoms: C_6  and  N_7 
REMARK    3  A    between atoms: N_7  and  C_8 
REMARK    4  A    between atoms: C_8  and  C_9 
REMARK    5  A    between atoms: C_9  and  C_10 
REMARK    6  A    between atoms: C_10  and  N_11 
REMARK    7  A    between atoms: C_12  and  C_13 
ROOT
HETATM    1  N   UNL     1       5.932  28.055  54.937  1.00  0.00    -0.306 N 
HETATM    2  C   UNL     1       6.692  27.546  53.906  1.00  0.00     0.320 C 
HETATM    3  N   UNL     1       5.894  26.846  53.024  1.00  0.00    -0.343 N 
HETATM    4  O   UNL     1       7.906  27.597  53.768  1.00  0.00    -0.247 OA
HETATM    5  H   UNL     1       5.158  27.454  55.183  1.00  0.00     0.171 HD
HETATM    6  H   UNL     1       4.903  27.043  53.033  1.00  0.00     0.164 HD
ENDROOT
BRANCH   3   7
HETATM    7  C   UNL     1       6.434  25.956  52.024  1.00  0.00     0.126 C 
BRANCH   7   8
HETATM    8  C   UNL     1       6.458  24.489  52.436  1.00  0.00     0.040 C 
BRANCH   8   9
HETATM    9  C   UNL     1       7.867  23.905  52.550  1.00  0.00     0.131 C 
BRANCH   9  10
HETATM   10  N   UNL     1       7.860  22.716  53.424  1.00  0.00    -0.341 N 
HETATM   11  C   UNL     1       7.795  22.662  54.784  1.00  0.00     0.117 A 
HETATM   12  N   UNL     1       7.832  21.339  55.064  1.00  0.00    -0.350 N 
HETATM   13  H   UNL     1       7.785  20.965  56.003  1.00  0.00     0.166 HD
HETATM   14  C   UNL     1       7.931  20.564  53.943  1.00  0.00     0.107 A 
HETATM   15  C   UNL     1       7.954  21.426  52.898  1.00  0.00     0.109 A 
BRANCH  11  16
HETATM   16  C   UNL     1       7.682  23.738  55.861  1.00  0.00     0.008 A 
HETATM   17  C   UNL     1       6.498  24.426  56.138  1.00  0.00     0.015 A 
HETATM   18  C   UNL     1       6.453  25.403  57.141  1.00  0.00     0.001 A 
HETATM   19  C   UNL     1       7.590  25.702  57.884  1.00  0.00     0.000 A 
HETATM   20  C   UNL     1       8.775  25.026  57.626  1.00  0.00     0.001 A 
HETATM   21  C   UNL     1       8.823  24.052  56.621  1.00  0.00     0.015 A 
ENDBRANCH  11  16
ENDBRANCH   9  10
ENDBRANCH   8   9
ENDBRANCH   7   8
ENDBRANCH   3   7
BRANCH   1  22
HETATM   22  C   UNL     1       6.432  28.863  55.987  1.00  0.00     0.071 A 
HETATM   23  C   UNL     1       5.620  29.628  56.852  1.00  0.00     0.095 A 
HETATM   24  C   UNL     1       6.233  30.415  57.838  1.00  0.00     0.041 A 
HETATM   25  C   UNL     1       7.623  30.420  57.988  1.00  0.00     0.026 A 
HETATM   26  C   UNL     1       8.410  29.624  57.165  1.00  0.00     0.036 A 
HETATM   27  C   UNL     1       7.822  28.839  56.178  1.00  0.00     0.056 A 
HETATM   28 CL   UNL     1      10.118  29.611  57.363  1.00  0.00    -0.084 Cl
BRANCH  23  29
HETATM   29  O   UNL     1       4.262  29.481  56.730  1.00  0.00    -0.354 OA
HETATM   30  C   UNL     1       3.449  30.595  57.083  1.00  0.00     0.210 C 
ENDBRANCH  23  29
ENDBRANCH   1  22
TORSDOF 7
ENDMDL
