MODEL 1
REMARK VINA RESULT:      -9.0      0.000      0.000
REMARK  8 active torsions:
REMARK  status: ('A' for Active; 'I' for Inactive)
REMARK    1  A    between atoms: C_8  and  C_9 
REMARK       I    between atoms: C_9  and  N_10 
REMARK    2  A    between atoms: N_10  and  N_11 
REMARK    3  A    between atoms: N_11  and  C_12 
REMARK    4  A    between atoms: C_12  and  N_13 
REMARK    5  A    between atoms: N_13  and  C_14 
REMARK    6  A    between atoms: C_15  and  O_16 
REMARK    7  A    between atoms: C_19  and  O_20 
REMARK    8  A    between atoms: C_26  and  C_27 
ROOT
HETATM    1  C   UNL     1       5.914  25.180  52.725  1.00  0.00     0.275 C 
HETATM    2  N   UNL     1       4.849  25.462  53.559  1.00  0.00    -0.263 N 
HETATM    3  O   UNL     1       6.014  25.652  51.594  1.00  0.00    -0.266 OA
HETATM    4  H   UNL     1       4.648  24.876  54.366  1.00  0.00     0.190 HD
ENDROOT
BRANCH   2   5
HETATM    5  N   UNL     1       3.861  26.354  53.128  1.00  0.00    -0.273 N 
HETATM    6  H   UNL     1       2.924  25.951  53.076  1.00  0.00     0.189 HD
BRANCH   5   7
HETATM    7  C   UNL     1       3.953  27.700  53.369  1.00  0.00     0.191 C 
HETATM    8  S   UNL     1       3.694  28.888  52.215  1.00  0.00    -0.039 SA
BRANCH   7   9
HETATM    9  N   UNL     1       4.295  28.084  54.633  1.00  0.00    -0.330 N 
HETATM   10  H   UNL     1       3.554  27.977  55.324  1.00  0.00     0.168 HD
BRANCH   9  11
HETATM   11  C   UNL     1       5.526  28.506  55.187  1.00  0.00     0.068 A 
HETATM   12  C   UNL     1       5.473  29.212  56.409  1.00  0.00     0.097 A 
HETATM   13  C   UNL     1       6.657  29.622  57.038  1.00  0.00     0.075 A 
HETATM   14  C   UNL     1       7.895  29.324  56.466  1.00  0.00     0.070 A 
HETATM   15  C   UNL     1       7.943  28.615  55.267  1.00  0.00     0.039 A 
HETATM   16  C   UNL     1       6.770  28.198  54.635  1.00  0.00     0.035 A 
BRANCH  12  17
HETATM   17  O   UNL     1       4.206  29.438  56.901  1.00  0.00    -0.354 OA
HETATM   18  C   UNL     1       3.803  30.791  57.069  1.00  0.00     0.210 C 
ENDBRANCH  12  17
BRANCH  14  19
HETATM   19  O   UNL     1       9.121  29.654  56.975  1.00  0.00    -0.356 OA
HETATM   20  C   UNL     1      10.204  29.741  56.057  1.00  0.00     0.210 C 
ENDBRANCH  14  19
ENDBRANCH   9  11
ENDBRANCH   7   9
ENDBRANCH   5   7
ENDBRANCH   2   5
BRANCH   1  21
HETATM   21  C   UNL     1       6.892  24.279  53.291  1.00  0.00     0.098 A 
HETATM   22  C   UNL     1       7.301  24.159  54.607  1.00  0.00     0.138 A 
HETATM   23  N   UNL     1       7.000  24.841  55.741  1.00  0.00    -0.370 N 
HETATM   24  N   UNL     1       8.242  23.161  54.613  1.00  0.00    -0.240 N 
HETATM   25  C   UNL     1       7.651  24.539  57.017  1.00  0.00     0.081 C 
HETATM   26  H   UNL     1       6.466  25.710  55.711  1.00  0.00     0.161 HD
HETATM   27  C   UNL     1       7.747  25.816  57.850  1.00  0.00     0.032 C 
HETATM   28  C   UNL     1       9.046  23.942  56.776  1.00  0.00     0.061 C 
HETATM   29  C   UNL     1       8.995  22.765  55.787  1.00  0.00     0.221 C 
HETATM   30  N   UNL     1       8.542  22.684  53.394  1.00  0.00    -0.181 NA
HETATM   31  C   UNL     1       7.710  23.358  52.592  1.00  0.00     0.160 A 
BRANCH  29  32
HETATM   32  C   UNL     1       8.393  21.517  56.390  1.00  0.00     0.409 C 
HETATM   33  F   UNL     1       8.313  21.559  57.738  1.00  0.00    -0.169 F 
HETATM   34  F   UNL     1       7.157  21.253  55.915  1.00  0.00    -0.169 F 
HETATM   35  F   UNL     1       9.162  20.441  56.081  1.00  0.00    -0.169 F 
ENDBRANCH  29  32
ENDBRANCH   1  21
TORSDOF 8
ENDMDL
MODEL 2
REMARK VINA RESULT:      -8.9      1.155      2.002
REMARK  8 active torsions:
REMARK  status: ('A' for Active; 'I' for Inactive)
REMARK    1  A    between atoms: C_8  and  C_9 
REMARK       I    between atoms: C_9  and  N_10 
REMARK    2  A    between atoms: N_10  and  N_11 
REMARK    3  A    between atoms: N_11  and  C_12 
REMARK    4  A    between atoms: C_12  and  N_13 
REMARK    5  A    between atoms: N_13  and  C_14 
REMARK    6  A    between atoms: C_15  and  O_16 
REMARK    7  A    between atoms: C_19  and  O_20 
REMARK    8  A    between atoms: C_26  and  C_27 
ROOT
HETATM    1  C   UNL     1       5.817  25.244  52.716  1.00  0.00     0.275 C 
HETATM    2  N   UNL     1       4.955  25.788  53.648  1.00  0.00    -0.263 N 
HETATM    3  O   UNL     1       5.733  25.484  51.513  1.00  0.00    -0.266 OA
HETATM    4  H   UNL     1       4.871  25.387  54.579  1.00  0.00     0.190 HD
ENDROOT
BRANCH   2   5
HETATM    5  N   UNL     1       3.968  26.685  53.224  1.00  0.00    -0.273 N 
HETATM    6  H   UNL     1       3.105  26.241  52.905  1.00  0.00     0.189 HD
BRANCH   5   7
HETATM    7  C   UNL     1       3.868  27.946  53.751  1.00  0.00     0.191 C 
HETATM    8  S   UNL     1       3.661  29.339  52.842  1.00  0.00    -0.039 SA
BRANCH   7   9
HETATM    9  N   UNL     1       3.962  28.062  55.108  1.00  0.00    -0.330 N 
HETATM   10  H   UNL     1       3.450  27.354  55.631  1.00  0.00     0.168 HD
BRANCH   9  11
HETATM   11  C   UNL     1       4.728  28.924  55.927  1.00  0.00     0.068 A 
HETATM   12  C   UNL     1       6.132  28.797  55.859  1.00  0.00     0.097 A 
HETATM   13  C   UNL     1       6.954  29.650  56.610  1.00  0.00     0.075 A 
HETATM   14  C   UNL     1       6.389  30.637  57.420  1.00  0.00     0.070 A 
HETATM   15  C   UNL     1       5.002  30.768  57.472  1.00  0.00     0.039 A 
HETATM   16  C   UNL     1       4.175  29.928  56.725  1.00  0.00     0.035 A 
BRANCH  12  17
HETATM   17  O   UNL     1       6.591  27.808  55.017  1.00  0.00    -0.354 OA
HETATM   18  C   UNL     1       7.731  28.106  54.222  1.00  0.00     0.210 C 
ENDBRANCH  12  17
BRANCH  14  19
HETATM   19  O   UNL     1       7.069  31.537  58.192  1.00  0.00    -0.356 OA
HETATM   20  C   UNL     1       6.343  32.184  59.229  1.00  0.00     0.210 C 
ENDBRANCH  14  19
ENDBRANCH   9  11
ENDBRANCH   7   9
ENDBRANCH   5   7
ENDBRANCH   2   5
BRANCH   1  21
HETATM   21  C   UNL     1       6.820  24.365  53.274  1.00  0.00     0.098 A 
HETATM   22  C   UNL     1       7.230  24.241  54.589  1.00  0.00     0.138 A 
HETATM   23  N   UNL     1       6.907  24.900  55.730  1.00  0.00    -0.370 N 
HETATM   24  N   UNL     1       8.199  23.270  54.586  1.00  0.00    -0.240 N 
HETATM   25  C   UNL     1       7.564  24.602  57.003  1.00  0.00     0.081 C 
HETATM   26  H   UNL     1       6.349  25.754  55.709  1.00  0.00     0.161 HD
HETATM   27  C   UNL     1       7.622  25.872  57.852  1.00  0.00     0.032 C 
HETATM   28  C   UNL     1       8.977  24.049  56.759  1.00  0.00     0.061 C 
HETATM   29  C   UNL     1       8.961  22.882  55.756  1.00  0.00     0.221 C 
HETATM   30  N   UNL     1       8.514  22.816  53.362  1.00  0.00    -0.181 NA
HETATM   31  C   UNL     1       7.665  23.475  52.566  1.00  0.00     0.160 A 
BRANCH  29  32
HETATM   32  C   UNL     1       8.393  21.611  56.344  1.00  0.00     0.409 C 
HETATM   33  F   UNL     1       8.269  21.651  57.688  1.00  0.00    -0.169 F 
HETATM   34  F   UNL     1       7.186  21.293  55.830  1.00  0.00    -0.169 F 
HETATM   35  F   UNL     1       9.217  20.568  56.062  1.00  0.00    -0.169 F 
ENDBRANCH  29  32
ENDBRANCH   1  21
TORSDOF 8
ENDMDL
MODEL 3
REMARK VINA RESULT:      -8.8      1.938      2.334
REMARK  8 active torsions:
REMARK  status: ('A' for Active; 'I' for Inactive)
REMARK    1  A    between atoms: C_8  and  C_9 
REMARK       I    between atoms: C_9  and  N_10 
REMARK    2  A    between atoms: N_10  and  N_11 
REMARK    3  A    between atoms: N_11  and  C_12 
REMARK    4  A    between atoms: C_12  and  N_13 
REMARK    5  A    between atoms: N_13  and  C_14 
REMARK    6  A    between atoms: C_15  and  O_16 
REMARK    7  A    between atoms: C_19  and  O_20 
REMARK    8  A    between atoms: C_26  and  C_27 
ROOT
HETATM    1  C   UNL     1       5.654  25.418  54.661  1.00  0.00     0.275 C 
HETATM    2  N   UNL     1       5.152  26.394  53.822  1.00  0.00    -0.263 N 
HETATM    3  O   UNL     1       5.302  25.304  55.834  1.00  0.00    -0.266 OA
HETATM    4  H   UNL     1       5.632  26.637  52.958  1.00  0.00     0.190 HD
ENDROOT
BRANCH   2   5
HETATM    5  N   UNL     1       4.170  27.268  54.301  1.00  0.00    -0.273 N 
HETATM    6  H   UNL     1       3.326  26.806  54.645  1.00  0.00     0.189 HD
BRANCH   5   7
HETATM    7  C   UNL     1       4.494  28.478  54.856  1.00  0.00     0.191 C 
HETATM    8  S   UNL     1       4.245  29.959  54.111  1.00  0.00    -0.039 SA
BRANCH   7   9
HETATM    9  N   UNL     1       5.072  28.460  56.092  1.00  0.00    -0.330 N 
HETATM   10  H   UNL     1       4.523  27.992  56.811  1.00  0.00     0.168 HD
BRANCH   9  11
HETATM   11  C   UNL     1       6.345  28.882  56.541  1.00  0.00     0.068 A 
HETATM   12  C   UNL     1       6.379  29.924  57.493  1.00  0.00     0.097 A 
HETATM   13  C   UNL     1       7.605  30.362  58.016  1.00  0.00     0.075 A 
HETATM   14  C   UNL     1       8.797  29.761  57.607  1.00  0.00     0.070 A 
HETATM   15  C   UNL     1       8.757  28.723  56.677  1.00  0.00     0.039 A 
HETATM   16  C   UNL     1       7.542  28.276  56.155  1.00  0.00     0.035 A 
BRANCH  12  17
HETATM   17  O   UNL     1       5.150  30.436  57.847  1.00  0.00    -0.354 OA
HETATM   18  C   UNL     1       4.897  31.800  57.536  1.00  0.00     0.210 C 
ENDBRANCH  12  17
BRANCH  14  19
HETATM   19  O   UNL     1      10.054  30.082  58.040  1.00  0.00    -0.356 OA
HETATM   20  C   UNL     1      11.139  29.777  57.172  1.00  0.00     0.210 C 
ENDBRANCH  14  19
ENDBRANCH   9  11
ENDBRANCH   7   9
ENDBRANCH   5   7
ENDBRANCH   2   5
BRANCH   1  21
HETATM   21  C   UNL     1       6.633  24.550  54.046  1.00  0.00     0.098 A 
HETATM   22  C   UNL     1       7.266  23.441  54.579  1.00  0.00     0.138 A 
HETATM   23  N   UNL     1       7.244  22.856  55.803  1.00  0.00    -0.370 N 
HETATM   24  N   UNL     1       8.094  22.976  53.590  1.00  0.00    -0.240 N 
HETATM   25  C   UNL     1       8.089  21.704  56.121  1.00  0.00     0.081 C 
HETATM   26  H   UNL     1       6.797  23.311  56.600  1.00  0.00     0.161 HD
HETATM   27  C   UNL     1       8.456  21.741  57.603  1.00  0.00     0.032 C 
HETATM   28  C   UNL     1       9.354  21.713  55.249  1.00  0.00     0.061 C 
HETATM   29  C   UNL     1       9.012  21.866  53.757  1.00  0.00     0.221 C 
HETATM   30  N   UNL     1       8.117  23.744  52.489  1.00  0.00    -0.181 NA
HETATM   31  C   UNL     1       7.218  24.695  52.764  1.00  0.00     0.160 A 
BRANCH  29  32
HETATM   32  C   UNL     1       8.418  20.611  53.159  1.00  0.00     0.409 C 
HETATM   33  F   UNL     1       7.120  20.425  53.486  1.00  0.00    -0.169 F 
HETATM   34  F   UNL     1       8.510  20.580  51.813  1.00  0.00    -0.169 F 
HETATM   35  F   UNL     1       9.092  19.523  53.616  1.00  0.00    -0.169 F 
ENDBRANCH  29  32
ENDBRANCH   1  21
TORSDOF 8
ENDMDL
MODEL 4
REMARK VINA RESULT:      -8.7      4.702      7.664
REMARK  8 active torsions:
REMARK  status: ('A' for Active; 'I' for Inactive)
REMARK    1  A    between atoms: C_8  and  C_9 
REMARK       I    between atoms: C_9  and  N_10 
REMARK    2  A    between atoms: N_10  and  N_11 
REMARK    3  A    between atoms: N_11  and  C_12 
REMARK    4  A    between atoms: C_12  and  N_13 
REMARK    5  A    between atoms: N_13  and  C_14 
REMARK    6  A    between atoms: C_15  and  O_16 
REMARK    7  A    between atoms: C_19  and  O_20 
REMARK    8  A    between atoms: C_26  and  C_27 
ROOT
HETATM    1  C   UNL     1       6.483  29.550  56.904  1.00  0.00     0.275 C 
HETATM    2  N   UNL     1       6.875  29.392  55.589  1.00  0.00    -0.263 N 
HETATM    3  O   UNL     1       5.367  29.230  57.308  1.00  0.00    -0.266 OA
HETATM    4  H   UNL     1       7.683  29.888  55.221  1.00  0.00     0.190 HD
ENDROOT
BRANCH   2   5
HETATM    5  N   UNL     1       5.989  28.806  54.678  1.00  0.00    -0.273 N 
HETATM    6  H   UNL     1       5.082  29.272  54.612  1.00  0.00     0.189 HD
BRANCH   5   7
HETATM    7  C   UNL     1       6.436  28.143  53.565  1.00  0.00     0.191 C 
HETATM    8  S   UNL     1       5.743  28.272  52.044  1.00  0.00    -0.039 SA
BRANCH   7   9
HETATM    9  N   UNL     1       7.509  27.314  53.724  1.00  0.00    -0.330 N 
HETATM   10  H   UNL     1       8.397  27.792  53.861  1.00  0.00     0.168 HD
BRANCH   9  11
HETATM   11  C   UNL     1       7.601  25.907  53.840  1.00  0.00     0.068 A 
HETATM   12  C   UNL     1       7.419  25.355  55.126  1.00  0.00     0.097 A 
HETATM   13  C   UNL     1       7.451  23.964  55.306  1.00  0.00     0.075 A 
HETATM   14  C   UNL     1       7.653  23.119  54.214  1.00  0.00     0.070 A 
HETATM   15  C   UNL     1       7.818  23.669  52.944  1.00  0.00     0.039 A 
HETATM   16  C   UNL     1       7.782  25.051  52.752  1.00  0.00     0.035 A 
BRANCH  12  17
HETATM   17  O   UNL     1       7.206  26.270  56.133  1.00  0.00    -0.354 OA
HETATM   18  C   UNL     1       8.155  26.310  57.190  1.00  0.00     0.210 C 
ENDBRANCH  12  17
BRANCH  14  19
HETATM   19  O   UNL     1       7.699  21.752  54.246  1.00  0.00    -0.356 OA
HETATM   20  C   UNL     1       7.946  21.080  53.017  1.00  0.00     0.210 C 
ENDBRANCH  14  19
ENDBRANCH   9  11
ENDBRANCH   7   9
ENDBRANCH   5   7
ENDBRANCH   2   5
BRANCH   1  21
HETATM   21  C   UNL     1       7.494  30.127  57.761  1.00  0.00     0.098 A 
HETATM   22  C   UNL     1       7.331  30.921  58.882  1.00  0.00     0.138 A 
HETATM   23  N   UNL     1       6.244  31.455  59.494  1.00  0.00    -0.370 N 
HETATM   24  N   UNL     1       8.599  31.199  59.327  1.00  0.00    -0.240 N 
HETATM   25  C   UNL     1       6.370  32.338  60.654  1.00  0.00     0.081 C 
HETATM   26  H   UNL     1       5.323  31.428  59.056  1.00  0.00     0.161 HD
HETATM   27  C   UNL     1       5.220  33.344  60.651  1.00  0.00     0.032 C 
HETATM   28  C   UNL     1       7.725  33.064  60.628  1.00  0.00     0.061 C 
HETATM   29  C   UNL     1       8.891  32.079  60.442  1.00  0.00     0.221 C 
HETATM   30  N   UNL     1       9.573  30.725  58.534  1.00  0.00    -0.181 NA
HETATM   31  C   UNL     1       8.899  30.063  57.588  1.00  0.00     0.160 A 
BRANCH  29  32
HETATM   32  C   UNL     1       9.174  31.262  61.682  1.00  0.00     0.409 C 
HETATM   33  F   UNL     1      10.485  30.991  61.857  1.00  0.00    -0.169 F 
HETATM   34  F   UNL     1       8.723  31.853  62.809  1.00  0.00    -0.169 F 
HETATM   35  F   UNL     1       8.539  30.064  61.596  1.00  0.00    -0.169 F 
ENDBRANCH  29  32
ENDBRANCH   1  21
TORSDOF 8
ENDMDL
MODEL 5
REMARK VINA RESULT:      -8.7      1.744      2.868
REMARK  8 active torsions:
REMARK  status: ('A' for Active; 'I' for Inactive)
REMARK    1  A    between atoms: C_8  and  C_9 
REMARK       I    between atoms: C_9  and  N_10 
REMARK    2  A    between atoms: N_10  and  N_11 
REMARK    3  A    between atoms: N_11  and  C_12 
REMARK    4  A    between atoms: C_12  and  N_13 
REMARK    5  A    between atoms: N_13  and  C_14 
REMARK    6  A    between atoms: C_15  and  O_16 
REMARK    7  A    between atoms: C_19  and  O_20 
REMARK    8  A    between atoms: C_26  and  C_27 
ROOT
HETATM    1  C   UNL     1       5.827  24.891  52.458  1.00  0.00     0.275 C 
HETATM    2  N   UNL     1       6.279  25.626  51.380  1.00  0.00    -0.263 N 
HETATM    3  O   UNL     1       4.650  24.886  52.813  1.00  0.00    -0.266 OA
HETATM    4  H   UNL     1       7.270  25.825  51.261  1.00  0.00     0.190 HD
ENDROOT
BRANCH   2   5
HETATM    5  N   UNL     1       5.363  26.366  50.625  1.00  0.00    -0.273 N 
HETATM    6  H   UNL     1       4.437  25.942  50.550  1.00  0.00     0.189 HD
BRANCH   5   7
HETATM    7  C   UNL     1       5.435  27.733  50.546  1.00  0.00     0.191 C 
HETATM    8  S   UNL     1       5.065  28.623  49.174  1.00  0.00    -0.039 SA
BRANCH   7   9
HETATM    9  N   UNL     1       5.853  28.399  51.662  1.00  0.00    -0.330 N 
HETATM   10  H   UNL     1       6.837  28.660  51.656  1.00  0.00     0.168 HD
BRANCH   9  11
HETATM   11  C   UNL     1       5.146  28.888  52.785  1.00  0.00     0.068 A 
HETATM   12  C   UNL     1       5.598  28.479  54.058  1.00  0.00     0.097 A 
HETATM   13  C   UNL     1       4.973  28.961  55.217  1.00  0.00     0.075 A 
HETATM   14  C   UNL     1       3.907  29.857  55.118  1.00  0.00     0.070 A 
HETATM   15  C   UNL     1       3.473  30.270  53.859  1.00  0.00     0.039 A 
HETATM   16  C   UNL     1       4.092  29.800  52.700  1.00  0.00     0.035 A 
BRANCH  12  17
HETATM   17  O   UNL     1       6.667  27.610  54.049  1.00  0.00    -0.354 OA
HETATM   18  C   UNL     1       7.912  28.103  54.527  1.00  0.00     0.210 C 
ENDBRANCH  12  17
BRANCH  14  19
HETATM   19  O   UNL     1       3.216  30.410  56.161  1.00  0.00    -0.356 OA
HETATM   20  C   UNL     1       3.873  30.464  57.421  1.00  0.00     0.210 C 
ENDBRANCH  14  19
ENDBRANCH   9  11
ENDBRANCH   7   9
ENDBRANCH   5   7
ENDBRANCH   2   5
BRANCH   1  21
HETATM   21  C   UNL     1       6.856  24.135  53.137  1.00  0.00     0.098 A 
HETATM   22  C   UNL     1       7.182  24.127  54.481  1.00  0.00     0.138 A 
HETATM   23  N   UNL     1       6.729  24.824  55.553  1.00  0.00    -0.370 N 
HETATM   24  N   UNL     1       8.223  23.242  54.605  1.00  0.00    -0.240 N 
HETATM   25  C   UNL     1       7.318  24.661  56.883  1.00  0.00     0.081 C 
HETATM   26  H   UNL     1       6.107  25.625  55.440  1.00  0.00     0.161 HD
HETATM   27  C   UNL     1       7.215  25.980  57.647  1.00  0.00     0.032 C 
HETATM   28  C   UNL     1       8.783  24.215  56.768  1.00  0.00     0.061 C 
HETATM   29  C   UNL     1       8.931  22.992  55.845  1.00  0.00     0.221 C 
HETATM   30  N   UNL     1       8.659  22.743  53.437  1.00  0.00    -0.181 NA
HETATM   31  C   UNL     1       7.817  23.278  52.546  1.00  0.00     0.160 A 
BRANCH  29  32
HETATM   32  C   UNL     1       8.427  21.715  56.478  1.00  0.00     0.409 C 
HETATM   33  F   UNL     1       8.270  21.807  57.816  1.00  0.00    -0.169 F 
HETATM   34  F   UNL     1       7.254  21.302  55.954  1.00  0.00    -0.169 F 
HETATM   35  F   UNL     1       9.320  20.714  56.261  1.00  0.00    -0.169 F 
ENDBRANCH  29  32
ENDBRANCH   1  21
TORSDOF 8
ENDMDL
MODEL 6
REMARK VINA RESULT:      -8.6      5.155      6.616
REMARK  8 active torsions:
REMARK  status: ('A' for Active; 'I' for Inactive)
REMARK    1  A    between atoms: C_8  and  C_9 
REMARK       I    between atoms: C_9  and  N_10 
REMARK    2  A    between atoms: N_10  and  N_11 
REMARK    3  A    between atoms: N_11  and  C_12 
REMARK    4  A    between atoms: C_12  and  N_13 
REMARK    5  A    between atoms: N_13  and  C_14 
REMARK    6  A    between atoms: C_15  and  O_16 
REMARK    7  A    between atoms: C_19  and  O_20 
REMARK    8  A    between atoms: C_26  and  C_27 
ROOT
HETATM    1  C   UNL     1       7.737  27.707  57.317  1.00  0.00     0.275 C 
HETATM    2  N   UNL     1       7.702  29.044  57.660  1.00  0.00    -0.263 N 
HETATM    3  O   UNL     1       7.927  26.814  58.141  1.00  0.00    -0.266 OA
HETATM    4  H   UNL     1       7.805  29.768  56.952  1.00  0.00     0.190 HD
ENDROOT
BRANCH   2   5
HETATM    5  N   UNL     1       7.844  29.410  59.003  1.00  0.00    -0.273 N 
HETATM    6  H   UNL     1       8.233  28.678  59.600  1.00  0.00     0.189 HD
BRANCH   5   7
HETATM    7  C   UNL     1       8.072  30.709  59.374  1.00  0.00     0.191 C 
HETATM    8  S   UNL     1       9.465  31.568  59.010  1.00  0.00    -0.039 SA
BRANCH   7   9
HETATM    9  N   UNL     1       7.097  31.327  60.103  1.00  0.00    -0.330 N 
HETATM   10  H   UNL     1       6.165  31.273  59.696  1.00  0.00     0.168 HD
BRANCH   9  11
HETATM   11  C   UNL     1       7.122  31.943  61.376  1.00  0.00     0.068 A 
HETATM   12  C   UNL     1       5.961  32.638  61.777  1.00  0.00     0.097 A 
HETATM   13  C   UNL     1       5.899  33.234  63.046  1.00  0.00     0.075 A 
HETATM   14  C   UNL     1       6.981  33.133  63.922  1.00  0.00     0.070 A 
HETATM   15  C   UNL     1       8.120  32.433  63.527  1.00  0.00     0.039 A 
HETATM   16  C   UNL     1       8.189  31.831  62.269  1.00  0.00     0.035 A 
BRANCH  12  17
HETATM   17  O   UNL     1       4.943  32.663  60.850  1.00  0.00    -0.354 OA
HETATM   18  C   UNL     1       3.676  32.165  61.258  1.00  0.00     0.210 C 
ENDBRANCH  12  17
BRANCH  14  19
HETATM   19  O   UNL     1       7.050  33.655  65.184  1.00  0.00    -0.356 OA
HETATM   20  C   UNL     1       5.832  34.084  65.779  1.00  0.00     0.210 C 
ENDBRANCH  14  19
ENDBRANCH   9  11
ENDBRANCH   7   9
ENDBRANCH   5   7
ENDBRANCH   2   5
BRANCH   1  21
HETATM   21  C   UNL     1       7.538  27.448  55.908  1.00  0.00     0.098 A 
HETATM   22  C   UNL     1       7.247  26.251  55.279  1.00  0.00     0.138 A 
HETATM   23  N   UNL     1       7.119  24.975  55.720  1.00  0.00    -0.370 N 
HETATM   24  N   UNL     1       7.157  26.547  53.942  1.00  0.00    -0.240 N 
HETATM   25  C   UNL     1       6.871  23.863  54.801  1.00  0.00     0.081 C 
HETATM   26  H   UNL     1       7.387  24.713  56.670  1.00  0.00     0.161 HD
HETATM   27  C   UNL     1       7.512  22.593  55.359  1.00  0.00     0.032 C 
HETATM   28  C   UNL     1       7.434  24.186  53.408  1.00  0.00     0.061 C 
HETATM   29  C   UNL     1       6.946  25.556  52.905  1.00  0.00     0.221 C 
HETATM   30  N   UNL     1       7.454  27.822  53.643  1.00  0.00    -0.181 NA
HETATM   31  C   UNL     1       7.674  28.371  54.843  1.00  0.00     0.160 A 
BRANCH  29  32
HETATM   32  C   UNL     1       5.493  25.546  52.490  1.00  0.00     0.409 C 
HETATM   33  F   UNL     1       5.235  26.334  51.423  1.00  0.00    -0.169 F 
HETATM   34  F   UNL     1       5.041  24.307  52.203  1.00  0.00    -0.169 F 
HETATM   35  F   UNL     1       4.722  26.009  53.509  1.00  0.00    -0.169 F 
ENDBRANCH  29  32
ENDBRANCH   1  21
TORSDOF 8
ENDMDL
MODEL 7
REMARK VINA RESULT:      -8.5      4.177      5.775
REMARK  8 active torsions:
REMARK  status: ('A' for Active; 'I' for Inactive)
REMARK    1  A    between atoms: C_8  and  C_9 
REMARK       I    between atoms: C_9  and  N_10 
REMARK    2  A    between atoms: N_10  and  N_11 
REMARK    3  A    between atoms: N_11  and  C_12 
REMARK    4  A    between atoms: C_12  and  N_13 
REMARK    5  A    between atoms: N_13  and  C_14 
REMARK    6  A    between atoms: C_15  and  O_16 
REMARK    7  A    between atoms: C_19  and  O_20 
REMARK    8  A    between atoms: C_26  and  C_27 
ROOT
HETATM    1  C   UNL     1       6.847  27.940  56.770  1.00  0.00     0.275 C 
HETATM    2  N   UNL     1       7.862  28.049  57.700  1.00  0.00    -0.263 N 
HETATM    3  O   UNL     1       6.091  28.871  56.499  1.00  0.00    -0.266 OA
HETATM    4  H   UNL     1       8.299  27.220  58.096  1.00  0.00     0.190 HD
ENDROOT
BRANCH   2   5
HETATM    5  N   UNL     1       8.078  29.276  58.336  1.00  0.00    -0.273 N 
HETATM    6  H   UNL     1       7.705  29.331  59.285  1.00  0.00     0.189 HD
BRANCH   5   7
HETATM    7  C   UNL     1       9.167  30.056  58.044  1.00  0.00     0.191 C 
HETATM    8  S   UNL     1      10.370  29.634  56.956  1.00  0.00    -0.039 SA
BRANCH   7   9
HETATM    9  N   UNL     1       9.274  31.246  58.704  1.00  0.00    -0.330 N 
HETATM   10  H   UNL     1       9.773  31.971  58.193  1.00  0.00     0.168 HD
BRANCH   9  11
HETATM   11  C   UNL     1       8.727  31.694  59.930  1.00  0.00     0.068 A 
HETATM   12  C   UNL     1       7.425  32.239  59.892  1.00  0.00     0.097 A 
HETATM   13  C   UNL     1       6.803  32.661  61.076  1.00  0.00     0.075 A 
HETATM   14  C   UNL     1       7.464  32.535  62.299  1.00  0.00     0.070 A 
HETATM   15  C   UNL     1       8.743  31.983  62.333  1.00  0.00     0.039 A 
HETATM   16  C   UNL     1       9.369  31.554  61.161  1.00  0.00     0.035 A 
BRANCH  12  17
HETATM   17  O   UNL     1       6.852  32.302  58.641  1.00  0.00    -0.354 OA
HETATM   18  C   UNL     1       5.518  31.828  58.510  1.00  0.00     0.210 C 
ENDBRANCH  12  17
BRANCH  14  19
HETATM   19  O   UNL     1       6.973  32.896  63.524  1.00  0.00    -0.356 OA
HETATM   20  C   UNL     1       5.580  32.717  63.746  1.00  0.00     0.210 C 
ENDBRANCH  14  19
ENDBRANCH   9  11
ENDBRANCH   7   9
ENDBRANCH   5   7
ENDBRANCH   2   5
BRANCH   1  21
HETATM   21  C   UNL     1       6.745  26.638  56.149  1.00  0.00     0.098 A 
HETATM   22  C   UNL     1       6.533  26.325  54.819  1.00  0.00     0.138 A 
HETATM   23  N   UNL     1       6.297  27.075  53.713  1.00  0.00    -0.370 N 
HETATM   24  N   UNL     1       6.523  24.955  54.757  1.00  0.00    -0.240 N 
HETATM   25  C   UNL     1       6.031  26.464  52.410  1.00  0.00     0.081 C 
HETATM   26  H   UNL     1       6.096  28.073  53.782  1.00  0.00     0.161 HD
HETATM   27  C   UNL     1       5.096  27.368  51.609  1.00  0.00     0.032 C 
HETATM   28  C   UNL     1       5.412  25.069  52.591  1.00  0.00     0.061 C 
HETATM   29  C   UNL     1       6.245  24.200  53.550  1.00  0.00     0.221 C 
HETATM   30  N   UNL     1       6.621  24.352  55.953  1.00  0.00    -0.181 NA
HETATM   31  C   UNL     1       6.769  25.378  56.798  1.00  0.00     0.160 A 
BRANCH  29  32
HETATM   32  C   UNL     1       7.539  23.720  52.933  1.00  0.00     0.409 C 
HETATM   33  F   UNL     1       7.621  22.375  52.840  1.00  0.00    -0.169 F 
HETATM   34  F   UNL     1       7.750  24.231  51.702  1.00  0.00    -0.169 F 
HETATM   35  F   UNL     1       8.588  24.119  53.700  1.00  0.00    -0.169 F 
ENDBRANCH  29  32
ENDBRANCH   1  21
TORSDOF 8
ENDMDL
MODEL 8
REMARK VINA RESULT:      -8.4      3.999      6.383
REMARK  8 active torsions:
REMARK  status: ('A' for Active; 'I' for Inactive)
REMARK    1  A    between atoms: C_8  and  C_9 
REMARK       I    between atoms: C_9  and  N_10 
REMARK    2  A    between atoms: N_10  and  N_11 
REMARK    3  A    between atoms: N_11  and  C_12 
REMARK    4  A    between atoms: C_12  and  N_13 
REMARK    5  A    between atoms: N_13  and  C_14 
REMARK    6  A    between atoms: C_15  and  O_16 
REMARK    7  A    between atoms: C_19  and  O_20 
REMARK    8  A    between atoms: C_26  and  C_27 
ROOT
HETATM    1  C   UNL     1       5.528  24.893  52.710  1.00  0.00     0.275 C 
HETATM    2  N   UNL     1       5.795  25.456  51.477  1.00  0.00    -0.263 N 
HETATM    3  O   UNL     1       4.449  25.031  53.284  1.00  0.00    -0.266 OA
HETATM    4  H   UNL     1       6.751  25.554  51.143  1.00  0.00     0.190 HD
ENDROOT
BRANCH   2   5
HETATM    5  N   UNL     1       4.791  26.180  50.824  1.00  0.00    -0.273 N 
HETATM    6  H   UNL     1       3.843  25.956  51.131  1.00  0.00     0.189 HD
BRANCH   5   7
HETATM    7  C   UNL     1       5.014  27.444  50.344  1.00  0.00     0.191 C 
HETATM    8  S   UNL     1       5.411  28.764  51.297  1.00  0.00    -0.039 SA
BRANCH   7   9
HETATM    9  N   UNL     1       4.883  27.628  48.997  1.00  0.00    -0.330 N 
HETATM   10  H   UNL     1       5.680  27.313  48.447  1.00  0.00     0.168 HD
BRANCH   9  11
HETATM   11  C   UNL     1       3.799  28.083  48.211  1.00  0.00     0.068 A 
HETATM   12  C   UNL     1       2.763  27.161  47.950  1.00  0.00     0.097 A 
HETATM   13  C   UNL     1       1.635  27.556  47.215  1.00  0.00     0.075 A 
HETATM   14  C   UNL     1       1.526  28.867  46.748  1.00  0.00     0.070 A 
HETATM   15  C   UNL     1       2.546  29.779  47.021  1.00  0.00     0.039 A 
HETATM   16  C   UNL     1       3.669  29.396  47.756  1.00  0.00     0.035 A 
BRANCH  12  17
HETATM   17  O   UNL     1       2.955  25.900  48.470  1.00  0.00    -0.354 OA
HETATM   18  C   UNL     1       2.988  24.814  47.554  1.00  0.00     0.210 C 
ENDBRANCH  12  17
BRANCH  14  19
HETATM   19  O   UNL     1       0.484  29.387  46.032  1.00  0.00    -0.356 OA
HETATM   20  C   UNL     1      -0.560  28.495  45.662  1.00  0.00     0.210 C 
ENDBRANCH  14  19
ENDBRANCH   9  11
ENDBRANCH   7   9
ENDBRANCH   5   7
ENDBRANCH   2   5
BRANCH   1  21
HETATM   21  C   UNL     1       6.625  24.135  53.268  1.00  0.00     0.098 A 
HETATM   22  C   UNL     1       7.073  24.092  54.576  1.00  0.00     0.138 A 
HETATM   23  N   UNL     1       6.709  24.750  55.706  1.00  0.00    -0.370 N 
HETATM   24  N   UNL     1       8.134  23.223  54.577  1.00  0.00    -0.240 N 
HETATM   25  C   UNL     1       7.419  24.558  56.971  1.00  0.00     0.081 C 
HETATM   26  H   UNL     1       6.068  25.543  55.675  1.00  0.00     0.161 HD
HETATM   27  C   UNL     1       7.367  25.852  57.782  1.00  0.00     0.032 C 
HETATM   28  C   UNL     1       8.875  24.141  56.710  1.00  0.00     0.061 C 
HETATM   29  C   UNL     1       8.955  22.948  55.740  1.00  0.00     0.221 C 
HETATM   30  N   UNL     1       8.468  22.766  53.360  1.00  0.00    -0.181 NA
HETATM   31  C   UNL     1       7.541  23.313  52.566  1.00  0.00     0.160 A 
BRANCH  29  32
HETATM   32  C   UNL     1       8.530  21.645  56.376  1.00  0.00     0.409 C 
HETATM   33  F   UNL     1       9.386  20.628  56.137  1.00  0.00    -0.169 F 
HETATM   34  F   UNL     1       8.374  21.744  57.713  1.00  0.00    -0.169 F 
HETATM   35  F   UNL     1       7.326  21.263  55.875  1.00  0.00    -0.169 F 
ENDBRANCH  29  32
ENDBRANCH   1  21
TORSDOF 8
ENDMDL
MODEL 9
REMARK VINA RESULT:      -8.4      4.815      6.333
REMARK  8 active torsions:
REMARK  status: ('A' for Active; 'I' for Inactive)
REMARK    1  A    between atoms: C_8  and  C_9 
REMARK       I    between atoms: C_9  and  N_10 
REMARK    2  A    between atoms: N_10  and  N_11 
REMARK    3  A    between atoms: N_11  and  C_12 
REMARK    4  A    between atoms: C_12  and  N_13 
REMARK    5  A    between atoms: N_13  and  C_14 
REMARK    6  A    between atoms: C_15  and  O_16 
REMARK    7  A    between atoms: C_19  and  O_20 
REMARK    8  A    between atoms: C_26  and  C_27 
ROOT
HETATM    1  C   UNL     1       7.471  28.790  56.753  1.00  0.00     0.275 C 
HETATM    2  N   UNL     1       6.867  29.325  57.874  1.00  0.00    -0.263 N 
HETATM    3  O   UNL     1       8.233  29.437  56.037  1.00  0.00    -0.266 OA
HETATM    4  H   UNL     1       6.057  28.876  58.296  1.00  0.00     0.190 HD
ENDROOT
BRANCH   2   5
HETATM    5  N   UNL     1       7.159  30.642  58.246  1.00  0.00    -0.273 N 
HETATM    6  H   UNL     1       6.377  31.292  58.145  1.00  0.00     0.189 HD
BRANCH   5   7
HETATM    7  C   UNL     1       8.093  30.927  59.208  1.00  0.00     0.191 C 
HETATM    8  S   UNL     1       9.655  31.443  58.888  1.00  0.00    -0.039 SA
BRANCH   7   9
HETATM    9  N   UNL     1       7.715  30.759  60.509  1.00  0.00    -0.330 N 
HETATM   10  H   UNL     1       7.681  29.789  60.819  1.00  0.00     0.168 HD
BRANCH   9  11
HETATM   11  C   UNL     1       7.462  31.691  61.543  1.00  0.00     0.068 A 
HETATM   12  C   UNL     1       6.286  32.463  61.438  1.00  0.00     0.097 A 
HETATM   13  C   UNL     1       5.949  33.375  62.450  1.00  0.00     0.075 A 
HETATM   14  C   UNL     1       6.769  33.514  63.571  1.00  0.00     0.070 A 
HETATM   15  C   UNL     1       7.922  32.738  63.676  1.00  0.00     0.039 A 
HETATM   16  C   UNL     1       8.264  31.825  62.678  1.00  0.00     0.035 A 
BRANCH  12  17
HETATM   17  O   UNL     1       5.534  32.238  60.306  1.00  0.00    -0.354 OA
HETATM   18  C   UNL     1       4.900  33.361  59.709  1.00  0.00     0.210 C 
ENDBRANCH  12  17
BRANCH  14  19
HETATM   19  O   UNL     1       6.556  34.353  64.629  1.00  0.00    -0.356 OA
HETATM   20  C   UNL     1       6.908  33.874  65.921  1.00  0.00     0.210 C 
ENDBRANCH  14  19
ENDBRANCH   9  11
ENDBRANCH   7   9
ENDBRANCH   5   7
ENDBRANCH   2   5
BRANCH   1  21
HETATM   21  C   UNL     1       7.125  27.411  56.491  1.00  0.00     0.098 A 
HETATM   22  C   UNL     1       6.829  26.806  55.283  1.00  0.00     0.138 A 
HETATM   23  N   UNL     1       6.702  27.272  54.015  1.00  0.00    -0.370 N 
HETATM   24  N   UNL     1       6.574  25.491  55.580  1.00  0.00    -0.240 N 
HETATM   25  C   UNL     1       6.301  26.399  52.910  1.00  0.00     0.081 C 
HETATM   26  H   UNL     1       6.684  28.273  53.817  1.00  0.00     0.161 HD
HETATM   27  C   UNL     1       5.522  27.214  51.879  1.00  0.00     0.032 C 
HETATM   28  C   UNL     1       5.449  25.232  53.434  1.00  0.00     0.061 C 
HETATM   29  C   UNL     1       6.138  24.510  54.605  1.00  0.00     0.221 C 
HETATM   30  N   UNL     1       6.593  25.213  56.893  1.00  0.00    -0.181 NA
HETATM   31  C   UNL     1       6.940  26.381  57.445  1.00  0.00     0.160 A 
BRANCH  29  32
HETATM   32  C   UNL     1       7.311  23.664  54.165  1.00  0.00     0.409 C 
HETATM   33  F   UNL     1       7.473  22.546  54.906  1.00  0.00    -0.169 F 
HETATM   34  F   UNL     1       7.227  23.290  52.871  1.00  0.00    -0.169 F 
HETATM   35  F   UNL     1       8.461  24.378  54.285  1.00  0.00    -0.169 F 
ENDBRANCH  29  32
ENDBRANCH   1  21
TORSDOF 8
ENDMDL
MODEL 10
REMARK VINA RESULT:      -8.4      3.856      5.318
REMARK  8 active torsions:
REMARK  status: ('A' for Active; 'I' for Inactive)
REMARK    1  A    between atoms: C_8  and  C_9 
REMARK       I    between atoms: C_9  and  N_10 
REMARK    2  A    between atoms: N_10  and  N_11 
REMARK    3  A    between atoms: N_11  and  C_12 
REMARK    4  A    between atoms: C_12  and  N_13 
REMARK    5  A    between atoms: N_13  and  C_14 
REMARK    6  A    between atoms: C_15  and  O_16 
REMARK    7  A    between atoms: C_19  and  O_20 
REMARK    8  A    between atoms: C_26  and  C_27 
ROOT
HETATM    1  C   UNL     1       6.810  28.176  56.100  1.00  0.00     0.275 C 
HETATM    2  N   UNL     1       6.784  28.857  57.301  1.00  0.00    -0.263 N 
HETATM    3  O   UNL     1       6.775  28.748  55.012  1.00  0.00    -0.266 OA
HETATM    4  H   UNL     1       6.553  28.378  58.169  1.00  0.00     0.190 HD
ENDROOT
BRANCH   2   5
HETATM    5  N   UNL     1       6.761  30.256  57.294  1.00  0.00    -0.273 N 
HETATM    6  H   UNL     1       7.240  30.682  56.498  1.00  0.00     0.189 HD
BRANCH   5   7
HETATM    7  C   UNL     1       5.728  30.961  57.855  1.00  0.00     0.191 C 
HETATM    8  S   UNL     1       4.109  30.562  57.688  1.00  0.00    -0.039 SA
BRANCH   7   9
HETATM    9  N   UNL     1       6.055  32.070  58.581  1.00  0.00    -0.330 N 
HETATM   10  H   UNL     1       5.816  32.954  58.136  1.00  0.00     0.168 HD
BRANCH   9  11
HETATM   11  C   UNL     1       6.571  32.218  59.890  1.00  0.00     0.068 A 
HETATM   12  C   UNL     1       7.976  32.229  60.029  1.00  0.00     0.097 A 
HETATM   13  C   UNL     1       8.557  32.417  61.291  1.00  0.00     0.075 A 
HETATM   14  C   UNL     1       7.751  32.607  62.415  1.00  0.00     0.070 A 
HETATM   15  C   UNL     1       6.364  32.610  62.270  1.00  0.00     0.039 A 
HETATM   16  C   UNL     1       5.775  32.428  61.017  1.00  0.00     0.035 A 
BRANCH  12  17
HETATM   17  O   UNL     1       8.683  32.054  58.860  1.00  0.00    -0.354 OA
HETATM   18  C   UNL     1       9.827  31.212  58.908  1.00  0.00     0.210 C 
ENDBRANCH  12  17
BRANCH  14  19
HETATM   19  O   UNL     1       8.183  32.810  63.696  1.00  0.00    -0.356 OA
HETATM   20  C   UNL     1       7.202  33.145  64.669  1.00  0.00     0.210 C 
ENDBRANCH  14  19
ENDBRANCH   9  11
ENDBRANCH   7   9
ENDBRANCH   5   7
ENDBRANCH   2   5
BRANCH   1  21
HETATM   21  C   UNL     1       6.874  26.738  56.232  1.00  0.00     0.098 A 
HETATM   22  C   UNL     1       7.252  25.797  55.292  1.00  0.00     0.138 A 
HETATM   23  N   UNL     1       7.610  25.878  53.985  1.00  0.00    -0.370 N 
HETATM   24  N   UNL     1       7.140  24.581  55.918  1.00  0.00    -0.240 N 
HETATM   25  C   UNL     1       7.900  24.683  53.191  1.00  0.00     0.081 C 
HETATM   26  H   UNL     1       7.497  26.744  53.457  1.00  0.00     0.161 HD
HETATM   27  C   UNL     1       7.515  24.939  51.735  1.00  0.00     0.032 C 
HETATM   28  C   UNL     1       7.136  23.472  53.749  1.00  0.00     0.061 C 
HETATM   29  C   UNL     1       7.363  23.308  55.262  1.00  0.00     0.221 C 
HETATM   30  N   UNL     1       6.634  24.650  57.160  1.00  0.00    -0.181 NA
HETATM   31  C   UNL     1       6.483  25.965  57.353  1.00  0.00     0.160 A 
BRANCH  29  32
HETATM   32  C   UNL     1       8.743  22.790  55.595  1.00  0.00     0.409 C 
HETATM   33  F   UNL     1       8.749  21.894  56.605  1.00  0.00    -0.169 F 
HETATM   34  F   UNL     1       9.357  22.220  54.536  1.00  0.00    -0.169 F 
HETATM   35  F   UNL     1       9.536  23.822  55.989  1.00  0.00    -0.169 F 
ENDBRANCH  29  32
ENDBRANCH   1  21
TORSDOF 8
ENDMDL
