MODEL 1
REMARK VINA RESULT:     -10.1      0.000      0.000
REMARK  8 active torsions:
REMARK  status: ('A' for Active; 'I' for Inactive)
REMARK    1  A    between atoms: C_2  and  C_3 
REMARK    2  A    between atoms: C_6  and  N_7 
REMARK       I    between atoms: N_7  and  C_8 
REMARK    3  A    between atoms: C_8  and  C_9 
REMARK    4  A    between atoms: C_9  and  N_10 
REMARK    5  A    between atoms: C_13  and  C_14 
REMARK       I    between atoms: C_14  and  N_15 
REMARK    6  A    between atoms: N_15  and  C_16 
REMARK    7  A    between atoms: C_17  and  O_18 
REMARK    8  A    between atoms: C_26  and  N_27 
ROOT
HETATM    1  N   UNL     1       6.908  29.422  57.712  1.00  0.00    -0.248 N 
HETATM    2  N   UNL     1       7.977  28.881  58.342  1.00  0.00     0.007 NA
HETATM    3  N   UNL     1       7.964  27.582  58.105  1.00  0.00    -0.150 NA
HETATM    4  C   UNL     1       6.848  27.288  57.350  1.00  0.00     0.187 A 
HETATM    5  C   UNL     1       6.153  28.459  57.092  1.00  0.00     0.151 A 
ENDROOT
BRANCH   1   6
HETATM    6  C   UNL     1       6.748  30.859  57.729  1.00  0.00     0.251 C 
BRANCH   6   7
HETATM    7  C   UNL     1       7.356  31.499  58.965  1.00  0.00     0.241 C 
HETATM    8  N   UNL     1       6.573  31.404  60.104  1.00  0.00    -0.326 N 
HETATM    9  H   UNL     1       5.735  30.825  60.033  1.00  0.00     0.169 HD
HETATM   10  O   UNL     1       8.427  32.098  58.877  1.00  0.00    -0.271 OA
BRANCH   8  11
HETATM   11  C   UNL     1       6.814  31.947  61.381  1.00  0.00     0.034 A 
HETATM   12  C   UNL     1       7.936  31.663  62.156  1.00  0.00     0.030 A 
HETATM   13  C   UNL     1       8.100  32.266  63.410  1.00  0.00     0.009 A 
HETATM   14  C   UNL     1       7.141  33.155  63.910  1.00  0.00    -0.058 A 
HETATM   15  C   UNL     1       6.016  33.441  63.129  1.00  0.00     0.009 A 
HETATM   16  C   UNL     1       5.857  32.843  61.876  1.00  0.00     0.030 A 
BRANCH  14  17
HETATM   17  C   UNL     1       7.332  33.820  65.249  1.00  0.00     0.034 C 
HETATM   18  C   UNL     1       6.005  34.073  65.947  1.00  0.00     0.010 C 
ENDBRANCH  14  17
ENDBRANCH   8  11
ENDBRANCH   6   7
ENDBRANCH   1   6
BRANCH   5  19
HETATM   19  N   UNL     1       5.018  28.704  56.401  1.00  0.00    -0.382 N 
HETATM   20  H   UNL     1       5.005  29.483  55.734  1.00  0.00     0.157 HD
HETATM   21  H   UNL     1       4.089  28.390  56.666  1.00  0.00     0.157 HD
ENDBRANCH   5  19
BRANCH   4  22
HETATM   22  C   UNL     1       6.548  25.931  56.893  1.00  0.00     0.280 C 
HETATM   23  N   UNL     1       7.572  25.433  56.106  1.00  0.00    -0.319 N 
HETATM   24  H   UNL     1       8.260  26.129  55.838  1.00  0.00     0.169 HD
HETATM   25  O   UNL     1       5.477  25.394  57.147  1.00  0.00    -0.265 OA
BRANCH  23  26
HETATM   26  C   UNL     1       7.645  24.190  55.445  1.00  0.00     0.069 A 
HETATM   27  C   UNL     1       7.388  23.960  54.087  1.00  0.00     0.095 A 
HETATM   28  C   UNL     1       7.582  22.688  53.536  1.00  0.00     0.039 A 
HETATM   29  C   UNL     1       7.972  21.618  54.342  1.00  0.00     0.009 A 
HETATM   30  C   UNL     1       8.174  21.811  55.709  1.00  0.00    -0.060 A 
HETATM   31  C   UNL     1       8.577  20.672  56.599  1.00  0.00     0.048 C 
HETATM   32  C   UNL     1       7.995  23.093  56.251  1.00  0.00     0.039 A 
BRANCH  27  33
HETATM   33  O   UNL     1       6.906  24.906  53.224  1.00  0.00    -0.354 OA
HETATM   34  C   UNL     1       7.776  25.056  52.102  1.00  0.00     0.210 C 
ENDBRANCH  27  33
ENDBRANCH  23  26
ENDBRANCH   4  22
TORSDOF 8
ENDMDL
MODEL 2
REMARK VINA RESULT:      -9.7      1.535     10.681
REMARK  8 active torsions:
REMARK  status: ('A' for Active; 'I' for Inactive)
REMARK    1  A    between atoms: C_2  and  C_3 
REMARK    2  A    between atoms: C_6  and  N_7 
REMARK       I    between atoms: N_7  and  C_8 
REMARK    3  A    between atoms: C_8  and  C_9 
REMARK    4  A    between atoms: C_9  and  N_10 
REMARK    5  A    between atoms: C_13  and  C_14 
REMARK       I    between atoms: C_14  and  N_15 
REMARK    6  A    between atoms: N_15  and  C_16 
REMARK    7  A    between atoms: C_17  and  O_18 
REMARK    8  A    between atoms: C_26  and  N_27 
ROOT
HETATM    1  N   UNL     1       6.320  29.453  56.116  1.00  0.00    -0.248 N 
HETATM    2  N   UNL     1       5.157  29.982  56.563  1.00  0.00     0.007 NA
HETATM    3  N   UNL     1       5.438  30.725  57.619  1.00  0.00    -0.150 NA
HETATM    4  C   UNL     1       6.791  30.630  57.870  1.00  0.00     0.187 A 
HETATM    5  C   UNL     1       7.374  29.811  56.916  1.00  0.00     0.151 A 
ENDROOT
BRANCH   1   6
HETATM    6  C   UNL     1       6.302  28.676  54.896  1.00  0.00     0.251 C 
BRANCH   6   7
HETATM    7  C   UNL     1       6.253  27.180  55.159  1.00  0.00     0.241 C 
HETATM    8  N   UNL     1       7.221  26.448  54.490  1.00  0.00    -0.326 N 
HETATM    9  H   UNL     1       7.931  26.984  53.990  1.00  0.00     0.169 HD
HETATM   10  O   UNL     1       5.357  26.714  55.861  1.00  0.00    -0.271 OA
BRANCH   8  11
HETATM   11  C   UNL     1       7.401  25.052  54.465  1.00  0.00     0.034 A 
HETATM   12  C   UNL     1       7.547  24.258  55.600  1.00  0.00     0.030 A 
HETATM   13  C   UNL     1       7.703  22.871  55.477  1.00  0.00     0.009 A 
HETATM   14  C   UNL     1       7.725  22.260  54.219  1.00  0.00    -0.058 A 
HETATM   15  C   UNL     1       7.577  23.058  53.080  1.00  0.00     0.009 A 
HETATM   16  C   UNL     1       7.415  24.441  53.204  1.00  0.00     0.030 A 
BRANCH  14  17
HETATM   17  C   UNL     1       7.870  20.765  54.091  1.00  0.00     0.034 C 
HETATM   18  C   UNL     1       8.481  20.370  52.755  1.00  0.00     0.010 C 
ENDBRANCH  14  17
ENDBRANCH   8  11
ENDBRANCH   6   7
ENDBRANCH   1   6
BRANCH   5  19
HETATM   19  N   UNL     1       8.651  29.415  56.722  1.00  0.00    -0.382 N 
HETATM   20  H   UNL     1       8.950  29.161  55.775  1.00  0.00     0.157 HD
HETATM   21  H   UNL     1       9.276  29.068  57.445  1.00  0.00     0.157 HD
ENDBRANCH   5  19
BRANCH   4  22
HETATM   22  C   UNL     1       7.436  31.355  58.965  1.00  0.00     0.280 C 
HETATM   23  N   UNL     1       6.612  31.416  60.076  1.00  0.00    -0.319 N 
HETATM   24  H   UNL     1       5.660  31.114  59.898  1.00  0.00     0.169 HD
HETATM   25  O   UNL     1       8.533  31.880  58.824  1.00  0.00    -0.265 OA
BRANCH  23  26
HETATM   26  C   UNL     1       6.847  32.059  61.308  1.00  0.00     0.069 A 
HETATM   27  C   UNL     1       7.679  31.599  62.336  1.00  0.00     0.095 A 
HETATM   28  C   UNL     1       7.892  32.381  63.477  1.00  0.00     0.039 A 
HETATM   29  C   UNL     1       7.232  33.599  63.636  1.00  0.00     0.009 A 
HETATM   30  C   UNL     1       6.350  34.049  62.652  1.00  0.00    -0.060 A 
HETATM   31  C   UNL     1       5.615  35.348  62.808  1.00  0.00     0.048 C 
HETATM   32  C   UNL     1       6.155  33.268  61.503  1.00  0.00     0.039 A 
BRANCH  27  33
HETATM   33  O   UNL     1       8.298  30.378  62.337  1.00  0.00    -0.354 OA
HETATM   34  C   UNL     1       9.645  30.495  61.881  1.00  0.00     0.210 C 
ENDBRANCH  27  33
ENDBRANCH  23  26
ENDBRANCH   4  22
TORSDOF 8
ENDMDL
MODEL 3
REMARK VINA RESULT:      -9.5      1.792     10.526
REMARK  8 active torsions:
REMARK  status: ('A' for Active; 'I' for Inactive)
REMARK    1  A    between atoms: C_2  and  C_3 
REMARK    2  A    between atoms: C_6  and  N_7 
REMARK       I    between atoms: N_7  and  C_8 
REMARK    3  A    between atoms: C_8  and  C_9 
REMARK    4  A    between atoms: C_9  and  N_10 
REMARK    5  A    between atoms: C_13  and  C_14 
REMARK       I    between atoms: C_14  and  N_15 
REMARK    6  A    between atoms: N_15  and  C_16 
REMARK    7  A    between atoms: C_17  and  O_18 
REMARK    8  A    between atoms: C_26  and  N_27 
ROOT
HETATM    1  N   UNL     1       6.141  29.297  56.084  1.00  0.00    -0.248 N 
HETATM    2  N   UNL     1       6.939  28.575  56.905  1.00  0.00     0.007 NA
HETATM    3  N   UNL     1       7.202  29.321  57.963  1.00  0.00    -0.150 NA
HETATM    4  C   UNL     1       6.598  30.549  57.790  1.00  0.00     0.187 A 
HETATM    5  C   UNL     1       5.915  30.554  56.584  1.00  0.00     0.151 A 
ENDROOT
BRANCH   1   6
HETATM    6  C   UNL     1       5.619  28.665  54.893  1.00  0.00     0.251 C 
BRANCH   6   7
HETATM    7  C   UNL     1       6.546  27.588  54.351  1.00  0.00     0.241 C 
HETATM    8  N   UNL     1       6.142  26.292  54.629  1.00  0.00    -0.326 N 
HETATM    9  H   UNL     1       5.222  26.184  55.057  1.00  0.00     0.169 HD
HETATM   10  O   UNL     1       7.589  27.910  53.785  1.00  0.00    -0.271 OA
BRANCH   8  11
HETATM   11  C   UNL     1       6.805  25.085  54.332  1.00  0.00     0.034 A 
HETATM   12  C   UNL     1       6.905  24.538  53.056  1.00  0.00     0.030 A 
HETATM   13  C   UNL     1       7.602  23.340  52.854  1.00  0.00     0.009 A 
HETATM   14  C   UNL     1       8.202  22.668  53.925  1.00  0.00    -0.058 A 
HETATM   15  C   UNL     1       8.102  23.221  55.206  1.00  0.00     0.009 A 
HETATM   16  C   UNL     1       7.412  24.419  55.405  1.00  0.00     0.030 A 
BRANCH  14  17
HETATM   17  C   UNL     1       8.970  21.391  53.701  1.00  0.00     0.034 C 
HETATM   18  C   UNL     1       8.247  20.459  52.740  1.00  0.00     0.010 C 
ENDBRANCH  14  17
ENDBRANCH   8  11
ENDBRANCH   6   7
ENDBRANCH   1   6
BRANCH   5  19
HETATM   19  N   UNL     1       5.170  31.499  55.970  1.00  0.00    -0.382 N 
HETATM   20  H   UNL     1       4.481  31.206  55.270  1.00  0.00     0.157 HD
HETATM   21  H   UNL     1       5.404  32.486  55.911  1.00  0.00     0.157 HD
ENDBRANCH   5  19
BRANCH   4  22
HETATM   22  C   UNL     1       6.676  31.607  58.797  1.00  0.00     0.280 C 
HETATM   23  N   UNL     1       6.947  31.083  60.050  1.00  0.00    -0.319 N 
HETATM   24  H   UNL     1       6.874  30.073  60.097  1.00  0.00     0.169 HD
HETATM   25  O   UNL     1       6.446  32.776  58.514  1.00  0.00    -0.265 OA
BRANCH  23  26
HETATM   26  C   UNL     1       7.055  31.763  61.280  1.00  0.00     0.069 A 
HETATM   27  C   UNL     1       8.233  31.978  62.005  1.00  0.00     0.095 A 
HETATM   28  C   UNL     1       8.214  32.747  63.175  1.00  0.00     0.039 A 
HETATM   29  C   UNL     1       7.013  33.257  63.668  1.00  0.00     0.009 A 
HETATM   30  C   UNL     1       5.817  33.003  62.996  1.00  0.00    -0.060 A 
HETATM   31  C   UNL     1       4.511  33.525  63.516  1.00  0.00     0.048 C 
HETATM   32  C   UNL     1       5.847  32.246  61.814  1.00  0.00     0.039 A 
BRANCH  27  33
HETATM   33  O   UNL     1       9.449  31.445  61.674  1.00  0.00    -0.354 OA
HETATM   34  C   UNL     1       9.580  30.124  62.199  1.00  0.00     0.210 C 
ENDBRANCH  27  33
ENDBRANCH  23  26
ENDBRANCH   4  22
TORSDOF 8
ENDMDL
MODEL 4
REMARK VINA RESULT:      -9.5      1.477     10.699
REMARK  8 active torsions:
REMARK  status: ('A' for Active; 'I' for Inactive)
REMARK    1  A    between atoms: C_2  and  C_3 
REMARK    2  A    between atoms: C_6  and  N_7 
REMARK       I    between atoms: N_7  and  C_8 
REMARK    3  A    between atoms: C_8  and  C_9 
REMARK    4  A    between atoms: C_9  and  N_10 
REMARK    5  A    between atoms: C_13  and  C_14 
REMARK       I    between atoms: C_14  and  N_15 
REMARK    6  A    between atoms: N_15  and  C_16 
REMARK    7  A    between atoms: C_17  and  O_18 
REMARK    8  A    between atoms: C_26  and  N_27 
ROOT
HETATM    1  N   UNL     1       6.674  29.033  56.739  1.00  0.00    -0.248 N 
HETATM    2  N   UNL     1       7.606  28.379  57.469  1.00  0.00     0.007 NA
HETATM    3  N   UNL     1       7.996  29.190  58.437  1.00  0.00    -0.150 NA
HETATM    4  C   UNL     1       7.333  30.391  58.291  1.00  0.00     0.187 A 
HETATM    5  C   UNL     1       6.482  30.311  57.200  1.00  0.00     0.151 A 
ENDROOT
BRANCH   1   6
HETATM    6  C   UNL     1       6.006  28.322  55.671  1.00  0.00     0.251 C 
BRANCH   6   7
HETATM    7  C   UNL     1       6.103  26.814  55.826  1.00  0.00     0.241 C 
HETATM    8  N   UNL     1       7.105  26.223  55.074  1.00  0.00    -0.326 N 
HETATM    9  H   UNL     1       7.743  26.856  54.591  1.00  0.00     0.169 HD
HETATM   10  O   UNL     1       5.282  26.219  56.522  1.00  0.00    -0.271 OA
BRANCH   8  11
HETATM   11  C   UNL     1       7.410  24.855  54.941  1.00  0.00     0.034 A 
HETATM   12  C   UNL     1       7.885  24.052  55.976  1.00  0.00     0.030 A 
HETATM   13  C   UNL     1       8.143  22.693  55.754  1.00  0.00     0.009 A 
HETATM   14  C   UNL     1       7.940  22.120  54.493  1.00  0.00    -0.058 A 
HETATM   15  C   UNL     1       7.462  22.928  53.456  1.00  0.00     0.009 A 
HETATM   16  C   UNL     1       7.199  24.281  53.681  1.00  0.00     0.030 A 
BRANCH  14  17
HETATM   17  C   UNL     1       8.198  20.653  54.264  1.00  0.00     0.034 C 
HETATM   18  C   UNL     1       8.440  20.346  52.794  1.00  0.00     0.010 C 
ENDBRANCH  14  17
ENDBRANCH   8  11
ENDBRANCH   6   7
ENDBRANCH   1   6
BRANCH   5  19
HETATM   19  N   UNL     1       5.625  31.201  56.654  1.00  0.00    -0.382 N 
HETATM   20  H   UNL     1       5.337  32.013  57.210  1.00  0.00     0.157 HD
HETATM   21  H   UNL     1       5.010  31.017  55.866  1.00  0.00     0.157 HD
ENDBRANCH   5  19
BRANCH   4  22
HETATM   22  C   UNL     1       7.521  31.505  59.220  1.00  0.00     0.280 C 
HETATM   23  N   UNL     1       6.412  31.671  60.031  1.00  0.00    -0.319 N 
HETATM   24  H   UNL     1       5.606  31.126  59.741  1.00  0.00     0.169 HD
HETATM   25  O   UNL     1       8.524  32.207  59.180  1.00  0.00    -0.265 OA
BRANCH  23  26
HETATM   26  C   UNL     1       6.184  32.653  61.016  1.00  0.00     0.069 A 
HETATM   27  C   UNL     1       5.254  33.697  60.943  1.00  0.00     0.095 A 
HETATM   28  C   UNL     1       5.067  34.556  62.033  1.00  0.00     0.039 A 
HETATM   29  C   UNL     1       5.846  34.423  63.182  1.00  0.00     0.009 A 
HETATM   30  C   UNL     1       6.822  33.428  63.253  1.00  0.00    -0.060 A 
HETATM   31  C   UNL     1       7.685  33.277  64.471  1.00  0.00     0.048 C 
HETATM   32  C   UNL     1       6.991  32.560  62.164  1.00  0.00     0.039 A 
BRANCH  27  33
HETATM   33  O   UNL     1       4.507  33.987  59.833  1.00  0.00    -0.354 OA
HETATM   34  C   UNL     1       3.139  33.637  60.041  1.00  0.00     0.210 C 
ENDBRANCH  27  33
ENDBRANCH  23  26
ENDBRANCH   4  22
TORSDOF 8
ENDMDL
MODEL 5
REMARK VINA RESULT:      -9.2      2.070     10.670
REMARK  8 active torsions:
REMARK  status: ('A' for Active; 'I' for Inactive)
REMARK    1  A    between atoms: C_2  and  C_3 
REMARK    2  A    between atoms: C_6  and  N_7 
REMARK       I    between atoms: N_7  and  C_8 
REMARK    3  A    between atoms: C_8  and  C_9 
REMARK    4  A    between atoms: C_9  and  N_10 
REMARK    5  A    between atoms: C_13  and  C_14 
REMARK       I    between atoms: C_14  and  N_15 
REMARK    6  A    between atoms: N_15  and  C_16 
REMARK    7  A    between atoms: C_17  and  O_18 
REMARK    8  A    between atoms: C_26  and  N_27 
ROOT
HETATM    1  N   UNL     1       5.542  29.371  55.593  1.00  0.00    -0.248 N 
HETATM    2  N   UNL     1       5.972  28.660  56.661  1.00  0.00     0.007 NA
HETATM    3  N   UNL     1       6.096  29.499  57.674  1.00  0.00    -0.150 NA
HETATM    4  C   UNL     1       5.783  30.767  57.230  1.00  0.00     0.187 A 
HETATM    5  C   UNL     1       5.429  30.705  55.892  1.00  0.00     0.151 A 
ENDROOT
BRANCH   1   6
HETATM    6  C   UNL     1       5.225  28.663  54.372  1.00  0.00     0.251 C 
BRANCH   6   7
HETATM    7  C   UNL     1       6.246  27.588  54.040  1.00  0.00     0.241 C 
HETATM    8  N   UNL     1       5.799  26.292  54.238  1.00  0.00    -0.326 N 
HETATM    9  H   UNL     1       4.811  26.182  54.470  1.00  0.00     0.169 HD
HETATM   10  O   UNL     1       7.382  27.911  53.698  1.00  0.00    -0.271 OA
BRANCH   8  11
HETATM   11  C   UNL     1       6.513  25.086  54.093  1.00  0.00     0.034 A 
HETATM   12  C   UNL     1       6.946  24.573  52.873  1.00  0.00     0.030 A 
HETATM   13  C   UNL     1       7.667  23.373  52.828  1.00  0.00     0.009 A 
HETATM   14  C   UNL     1       7.958  22.666  54.000  1.00  0.00    -0.058 A 
HETATM   15  C   UNL     1       7.524  23.184  55.224  1.00  0.00     0.009 A 
HETATM   16  C   UNL     1       6.810  24.384  55.268  1.00  0.00     0.030 A 
BRANCH  14  17
HETATM   17  C   UNL     1       8.755  21.387  53.949  1.00  0.00     0.034 C 
HETATM   18  C   UNL     1       8.282  20.472  52.830  1.00  0.00     0.010 C 
ENDBRANCH  14  17
ENDBRANCH   8  11
ENDBRANCH   6   7
ENDBRANCH   1   6
BRANCH   5  19
HETATM   19  N   UNL     1       5.039  31.655  55.014  1.00  0.00    -0.382 N 
HETATM   20  H   UNL     1       5.126  31.465  54.011  1.00  0.00     0.157 HD
HETATM   21  H   UNL     1       4.932  32.643  55.226  1.00  0.00     0.157 HD
ENDBRANCH   5  19
BRANCH   4  22
HETATM   22  C   UNL     1       5.798  31.931  58.115  1.00  0.00     0.280 C 
HETATM   23  N   UNL     1       5.735  31.548  59.444  1.00  0.00    -0.319 N 
HETATM   24  H   UNL     1       5.517  30.566  59.579  1.00  0.00     0.169 HD
HETATM   25  O   UNL     1       5.793  33.072  57.670  1.00  0.00    -0.265 OA
BRANCH  23  26
HETATM   26  C   UNL     1       5.683  32.365  60.591  1.00  0.00     0.069 A 
HETATM   27  C   UNL     1       4.665  33.270  60.917  1.00  0.00     0.095 A 
HETATM   28  C   UNL     1       4.694  33.960  62.134  1.00  0.00     0.039 A 
HETATM   29  C   UNL     1       5.766  33.803  63.013  1.00  0.00     0.009 A 
HETATM   30  C   UNL     1       6.822  32.953  62.682  1.00  0.00    -0.060 A 
HETATM   31  C   UNL     1       7.994  32.782  63.602  1.00  0.00     0.048 C 
HETATM   32  C   UNL     1       6.778  32.252  61.467  1.00  0.00     0.039 A 
BRANCH  27  33
HETATM   33  O   UNL     1       3.619  33.581  60.091  1.00  0.00    -0.354 OA
HETATM   34  C   UNL     1       2.543  34.154  60.834  1.00  0.00     0.210 C 
ENDBRANCH  27  33
ENDBRANCH  23  26
ENDBRANCH   4  22
TORSDOF 8
ENDMDL
MODEL 6
REMARK VINA RESULT:      -9.0      1.876      2.445
REMARK  8 active torsions:
REMARK  status: ('A' for Active; 'I' for Inactive)
REMARK    1  A    between atoms: C_2  and  C_3 
REMARK    2  A    between atoms: C_6  and  N_7 
REMARK       I    between atoms: N_7  and  C_8 
REMARK    3  A    between atoms: C_8  and  C_9 
REMARK    4  A    between atoms: C_9  and  N_10 
REMARK    5  A    between atoms: C_13  and  C_14 
REMARK       I    between atoms: C_14  and  N_15 
REMARK    6  A    between atoms: N_15  and  C_16 
REMARK    7  A    between atoms: C_17  and  O_18 
REMARK    8  A    between atoms: C_26  and  N_27 
ROOT
HETATM    1  N   UNL     1       8.983  30.248  58.239  1.00  0.00    -0.248 N 
HETATM    2  N   UNL     1       9.965  29.526  57.650  1.00  0.00     0.007 NA
HETATM    3  N   UNL     1       9.393  28.515  57.021  1.00  0.00    -0.150 NA
HETATM    4  C   UNL     1       8.034  28.572  57.250  1.00  0.00     0.187 A 
HETATM    5  C   UNL     1       7.752  29.677  58.037  1.00  0.00     0.151 A 
ENDROOT
BRANCH   1   6
HETATM    6  C   UNL     1       9.336  31.478  58.912  1.00  0.00     0.251 C 
BRANCH   6   7
HETATM    7  C   UNL     1       8.917  31.484  60.373  1.00  0.00     0.241 C 
HETATM    8  N   UNL     1       8.020  32.486  60.708  1.00  0.00    -0.326 N 
HETATM    9  H   UNL     1       7.645  33.037  59.935  1.00  0.00     0.169 HD
HETATM   10  O   UNL     1       9.424  30.683  61.156  1.00  0.00    -0.271 OA
BRANCH   8  11
HETATM   11  C   UNL     1       7.495  32.804  61.975  1.00  0.00     0.034 A 
HETATM   12  C   UNL     1       8.211  32.714  63.166  1.00  0.00     0.030 A 
HETATM   13  C   UNL     1       7.610  33.072  64.380  1.00  0.00     0.009 A 
HETATM   14  C   UNL     1       6.283  33.515  64.422  1.00  0.00    -0.058 A 
HETATM   15  C   UNL     1       5.567  33.607  63.224  1.00  0.00     0.009 A 
HETATM   16  C   UNL     1       6.169  33.256  62.013  1.00  0.00     0.030 A 
BRANCH  14  17
HETATM   17  C   UNL     1       5.647  33.920  65.726  1.00  0.00     0.034 C 
HETATM   18  C   UNL     1       6.689  34.200  66.799  1.00  0.00     0.010 C 
ENDBRANCH  14  17
ENDBRANCH   8  11
ENDBRANCH   6   7
ENDBRANCH   1   6
BRANCH   5  19
HETATM   19  N   UNL     1       6.591  30.170  58.523  1.00  0.00    -0.382 N 
HETATM   20  H   UNL     1       6.578  30.551  59.474  1.00  0.00     0.157 HD
HETATM   21  H   UNL     1       5.665  29.951  58.167  1.00  0.00     0.157 HD
ENDBRANCH   5  19
BRANCH   4  22
HETATM   22  C   UNL     1       7.102  27.604  56.671  1.00  0.00     0.280 C 
HETATM   23  N   UNL     1       7.584  27.103  55.474  1.00  0.00    -0.319 N 
HETATM   24  H   UNL     1       8.392  27.601  55.116  1.00  0.00     0.169 HD
HETATM   25  O   UNL     1       6.019  27.370  57.193  1.00  0.00    -0.265 OA
BRANCH  23  26
HETATM   26  C   UNL     1       6.969  26.190  54.594  1.00  0.00     0.069 A 
HETATM   27  C   UNL     1       5.790  26.406  53.871  1.00  0.00     0.095 A 
HETATM   28  C   UNL     1       5.331  25.445  52.962  1.00  0.00     0.039 A 
HETATM   29  C   UNL     1       6.006  24.234  52.809  1.00  0.00     0.009 A 
HETATM   30  C   UNL     1       7.149  23.971  53.565  1.00  0.00    -0.060 A 
HETATM   31  C   UNL     1       7.882  22.669  53.432  1.00  0.00     0.048 C 
HETATM   32  C   UNL     1       7.613  24.947  54.461  1.00  0.00     0.039 A 
BRANCH  27  33
HETATM   33  O   UNL     1       4.990  27.508  54.011  1.00  0.00    -0.354 OA
HETATM   34  C   UNL     1       5.344  28.512  53.060  1.00  0.00     0.210 C 
ENDBRANCH  27  33
ENDBRANCH  23  26
ENDBRANCH   4  22
TORSDOF 8
ENDMDL
MODEL 7
REMARK VINA RESULT:      -8.9      2.488     11.271
REMARK  8 active torsions:
REMARK  status: ('A' for Active; 'I' for Inactive)
REMARK    1  A    between atoms: C_2  and  C_3 
REMARK    2  A    between atoms: C_6  and  N_7 
REMARK       I    between atoms: N_7  and  C_8 
REMARK    3  A    between atoms: C_8  and  C_9 
REMARK    4  A    between atoms: C_9  and  N_10 
REMARK    5  A    between atoms: C_13  and  C_14 
REMARK       I    between atoms: C_14  and  N_15 
REMARK    6  A    between atoms: N_15  and  C_16 
REMARK    7  A    between atoms: C_17  and  O_18 
REMARK    8  A    between atoms: C_26  and  N_27 
ROOT
HETATM    1  N   UNL     1       8.082  31.200  60.284  1.00  0.00    -0.248 N 
HETATM    2  N   UNL     1       8.753  30.625  61.310  1.00  0.00     0.007 NA
HETATM    3  N   UNL     1       8.078  30.875  62.418  1.00  0.00    -0.150 NA
HETATM    4  C   UNL     1       6.988  31.657  62.096  1.00  0.00     0.187 A 
HETATM    5  C   UNL     1       6.977  31.881  60.728  1.00  0.00     0.151 A 
ENDROOT
BRANCH   1   6
HETATM    6  C   UNL     1       8.560  30.984  58.937  1.00  0.00     0.251 C 
BRANCH   6   7
HETATM    7  C   UNL     1       7.752  29.934  58.193  1.00  0.00     0.241 C 
HETATM    8  N   UNL     1       8.502  28.881  57.694  1.00  0.00    -0.326 N 
HETATM    9  H   UNL     1       9.484  28.852  57.970  1.00  0.00     0.169 HD
HETATM   10  O   UNL     1       6.546  30.102  58.021  1.00  0.00    -0.271 OA
BRANCH   8  11
HETATM   11  C   UNL     1       8.072  27.794  56.909  1.00  0.00     0.034 A 
HETATM   12  C   UNL     1       7.700  27.892  55.570  1.00  0.00     0.030 A 
HETATM   13  C   UNL     1       7.303  26.750  54.862  1.00  0.00     0.009 A 
HETATM   14  C   UNL     1       7.264  25.497  55.484  1.00  0.00    -0.058 A 
HETATM   15  C   UNL     1       7.640  25.400  56.828  1.00  0.00     0.009 A 
HETATM   16  C   UNL     1       8.042  26.539  57.531  1.00  0.00     0.030 A 
BRANCH  14  17
HETATM   17  C   UNL     1       6.859  24.267  54.713  1.00  0.00     0.034 C 
HETATM   18  C   UNL     1       8.054  23.592  54.058  1.00  0.00     0.010 C 
ENDBRANCH  14  17
ENDBRANCH   8  11
ENDBRANCH   6   7
ENDBRANCH   1   6
BRANCH   5  19
HETATM   19  N   UNL     1       6.129  32.566  59.930  1.00  0.00    -0.382 N 
HETATM   20  H   UNL     1       6.421  32.782  58.971  1.00  0.00     0.157 HD
HETATM   21  H   UNL     1       5.354  33.139  60.251  1.00  0.00     0.157 HD
ENDBRANCH   5  19
BRANCH   4  22
HETATM   22  C   UNL     1       6.017  32.095  63.098  1.00  0.00     0.280 C 
HETATM   23  N   UNL     1       6.441  33.250  63.732  1.00  0.00    -0.319 N 
HETATM   24  H   UNL     1       7.404  33.499  63.531  1.00  0.00     0.169 HD
HETATM   25  O   UNL     1       5.015  31.436  63.346  1.00  0.00    -0.265 OA
BRANCH  23  26
HETATM   26  C   UNL     1       5.815  33.957  64.779  1.00  0.00     0.069 A 
HETATM   27  C   UNL     1       4.629  34.694  64.685  1.00  0.00     0.095 A 
HETATM   28  C   UNL     1       4.067  35.279  65.826  1.00  0.00     0.039 A 
HETATM   29  C   UNL     1       4.711  35.189  67.059  1.00  0.00     0.009 A 
HETATM   30  C   UNL     1       5.927  34.511  67.165  1.00  0.00    -0.060 A 
HETATM   31  C   UNL     1       6.648  34.415  68.477  1.00  0.00     0.048 C 
HETATM   32  C   UNL     1       6.475  33.912  66.020  1.00  0.00     0.039 A 
BRANCH  27  33
HETATM   33  O   UNL     1       3.963  34.936  63.514  1.00  0.00    -0.354 OA
HETATM   34  C   UNL     1       2.736  34.209  63.472  1.00  0.00     0.210 C 
ENDBRANCH  27  33
ENDBRANCH  23  26
ENDBRANCH   4  22
TORSDOF 8
ENDMDL
MODEL 8
REMARK VINA RESULT:      -8.8      2.325      9.867
REMARK  8 active torsions:
REMARK  status: ('A' for Active; 'I' for Inactive)
REMARK    1  A    between atoms: C_2  and  C_3 
REMARK    2  A    between atoms: C_6  and  N_7 
REMARK       I    between atoms: N_7  and  C_8 
REMARK    3  A    between atoms: C_8  and  C_9 
REMARK    4  A    between atoms: C_9  and  N_10 
REMARK    5  A    between atoms: C_13  and  C_14 
REMARK       I    between atoms: C_14  and  N_15 
REMARK    6  A    between atoms: N_15  and  C_16 
REMARK    7  A    between atoms: C_17  and  O_18 
REMARK    8  A    between atoms: C_26  and  N_27 
ROOT
HETATM    1  N   UNL     1       4.097  31.020  57.211  1.00  0.00    -0.248 N 
HETATM    2  N   UNL     1       4.969  31.861  56.606  1.00  0.00     0.007 NA
HETATM    3  N   UNL     1       5.451  32.670  57.533  1.00  0.00    -0.150 NA
HETATM    4  C   UNL     1       4.843  32.367  58.733  1.00  0.00     0.187 A 
HETATM    5  C   UNL     1       3.965  31.311  58.545  1.00  0.00     0.151 A 
ENDROOT
BRANCH   1   6
HETATM    6  C   UNL     1       3.503  29.959  56.429  1.00  0.00     0.251 C 
BRANCH   6   7
HETATM    7  C   UNL     1       4.514  28.903  56.017  1.00  0.00     0.241 C 
HETATM    8  N   UNL     1       4.988  28.123  57.060  1.00  0.00    -0.326 N 
HETATM    9  H   UNL     1       4.534  28.252  57.965  1.00  0.00     0.169 HD
HETATM   10  O   UNL     1       4.893  28.845  54.848  1.00  0.00    -0.271 OA
BRANCH   8  11
HETATM   11  C   UNL     1       5.972  27.117  57.025  1.00  0.00     0.034 A 
HETATM   12  C   UNL     1       7.308  27.314  57.365  1.00  0.00     0.030 A 
HETATM   13  C   UNL     1       8.213  26.245  57.318  1.00  0.00     0.009 A 
HETATM   14  C   UNL     1       7.798  24.969  56.923  1.00  0.00    -0.058 A 
HETATM   15  C   UNL     1       6.455  24.773  56.584  1.00  0.00     0.009 A 
HETATM   16  C   UNL     1       5.552  25.838  56.637  1.00  0.00     0.030 A 
BRANCH  14  17
HETATM   17  C   UNL     1       8.770  23.817  56.896  1.00  0.00     0.034 C 
HETATM   18  C   UNL     1       8.812  23.147  55.531  1.00  0.00     0.010 C 
ENDBRANCH  14  17
ENDBRANCH   8  11
ENDBRANCH   6   7
ENDBRANCH   1   6
BRANCH   5  19
HETATM   19  N   UNL     1       3.150  30.649  59.395  1.00  0.00    -0.382 N 
HETATM   20  H   UNL     1       3.027  29.639  59.274  1.00  0.00     0.157 HD
HETATM   21  H   UNL     1       2.424  31.075  59.965  1.00  0.00     0.157 HD
ENDBRANCH   5  19
BRANCH   4  22
HETATM   22  C   UNL     1       5.172  33.067  59.975  1.00  0.00     0.280 C 
HETATM   23  N   UNL     1       5.899  32.254  60.828  1.00  0.00    -0.319 N 
HETATM   24  H   UNL     1       5.932  31.282  60.540  1.00  0.00     0.169 HD
HETATM   25  O   UNL     1       4.762  34.199  60.197  1.00  0.00    -0.265 OA
BRANCH  23  26
HETATM   26  C   UNL     1       6.365  32.540  62.127  1.00  0.00     0.069 A 
HETATM   27  C   UNL     1       7.697  32.496  62.556  1.00  0.00     0.095 A 
HETATM   28  C   UNL     1       8.035  32.889  63.857  1.00  0.00     0.039 A 
HETATM   29  C   UNL     1       7.044  33.269  64.762  1.00  0.00     0.009 A 
HETATM   30  C   UNL     1       5.704  33.261  64.376  1.00  0.00    -0.060 A 
HETATM   31  C   UNL     1       4.619  33.649  65.337  1.00  0.00     0.048 C 
HETATM   32  C   UNL     1       5.375  32.883  63.065  1.00  0.00     0.039 A 
BRANCH  27  33
HETATM   33  O   UNL     1       8.738  32.045  61.791  1.00  0.00    -0.354 OA
HETATM   34  C   UNL     1       8.937  30.645  61.985  1.00  0.00     0.210 C 
ENDBRANCH  27  33
ENDBRANCH  23  26
ENDBRANCH   4  22
TORSDOF 8
ENDMDL
MODEL 9
REMARK VINA RESULT:      -8.7      4.835      9.137
REMARK  8 active torsions:
REMARK  status: ('A' for Active; 'I' for Inactive)
REMARK    1  A    between atoms: C_2  and  C_3 
REMARK    2  A    between atoms: C_6  and  N_7 
REMARK       I    between atoms: N_7  and  C_8 
REMARK    3  A    between atoms: C_8  and  C_9 
REMARK    4  A    between atoms: C_9  and  N_10 
REMARK    5  A    between atoms: C_13  and  C_14 
REMARK       I    between atoms: C_14  and  N_15 
REMARK    6  A    between atoms: N_15  and  C_16 
REMARK    7  A    between atoms: C_17  and  O_18 
REMARK    8  A    between atoms: C_26  and  N_27 
ROOT
HETATM    1  N   UNL     1       6.135  28.082  56.229  1.00  0.00    -0.248 N 
HETATM    2  N   UNL     1       4.823  27.843  56.456  1.00  0.00     0.007 NA
HETATM    3  N   UNL     1       4.168  28.122  55.343  1.00  0.00    -0.150 NA
HETATM    4  C   UNL     1       5.074  28.585  54.411  1.00  0.00     0.187 A 
HETATM    5  C   UNL     1       6.344  28.571  54.965  1.00  0.00     0.151 A 
ENDROOT
BRANCH   1   6
HETATM    6  C   UNL     1       7.088  27.755  57.266  1.00  0.00     0.251 C 
BRANCH   6   7
HETATM    7  C   UNL     1       7.802  26.439  57.008  1.00  0.00     0.241 C 
HETATM    8  N   UNL     1       7.192  25.631  56.062  1.00  0.00    -0.326 N 
HETATM    9  H   UNL     1       6.405  26.040  55.556  1.00  0.00     0.169 HD
HETATM   10  O   UNL     1       8.795  26.144  57.671  1.00  0.00    -0.271 OA
BRANCH   8  11
HETATM   11  C   UNL     1       7.556  24.335  55.649  1.00  0.00     0.034 A 
HETATM   12  C   UNL     1       7.652  23.238  56.502  1.00  0.00     0.030 A 
HETATM   13  C   UNL     1       8.005  21.980  55.996  1.00  0.00     0.009 A 
HETATM   14  C   UNL     1       8.275  21.803  54.635  1.00  0.00    -0.058 A 
HETATM   15  C   UNL     1       8.176  22.906  53.780  1.00  0.00     0.009 A 
HETATM   16  C   UNL     1       7.818  24.159  54.284  1.00  0.00     0.030 A 
BRANCH  14  17
HETATM   17  C   UNL     1       8.632  20.443  54.091  1.00  0.00     0.034 C 
HETATM   18  C   UNL     1       8.303  20.323  52.611  1.00  0.00     0.010 C 
ENDBRANCH  14  17
ENDBRANCH   8  11
ENDBRANCH   6   7
ENDBRANCH   1   6
BRANCH   5  19
HETATM   19  N   UNL     1       7.552  28.915  54.467  1.00  0.00    -0.382 N 
HETATM   20  H   UNL     1       8.272  29.257  55.112  1.00  0.00     0.157 HD
HETATM   21  H   UNL     1       7.744  29.145  53.496  1.00  0.00     0.157 HD
ENDBRANCH   5  19
BRANCH   4  22
HETATM   22  C   UNL     1       4.676  28.961  53.054  1.00  0.00     0.280 C 
HETATM   23  N   UNL     1       5.233  28.109  52.117  1.00  0.00    -0.319 N 
HETATM   24  H   UNL     1       5.944  27.492  52.494  1.00  0.00     0.169 HD
HETATM   25  O   UNL     1       3.996  29.958  52.842  1.00  0.00    -0.265 OA
BRANCH  23  26
HETATM   26  C   UNL     1       5.129  28.161  50.712  1.00  0.00     0.069 A 
HETATM   27  C   UNL     1       5.611  29.183  49.885  1.00  0.00     0.095 A 
HETATM   28  C   UNL     1       5.518  29.069  48.492  1.00  0.00     0.039 A 
HETATM   29  C   UNL     1       4.889  27.968  47.911  1.00  0.00     0.009 A 
HETATM   30  C   UNL     1       4.347  26.967  48.718  1.00  0.00    -0.060 A 
HETATM   31  C   UNL     1       3.651  25.782  48.117  1.00  0.00     0.048 C 
HETATM   32  C   UNL     1       4.460  27.079  50.112  1.00  0.00     0.039 A 
BRANCH  27  33
HETATM   33  O   UNL     1       6.154  30.353  50.342  1.00  0.00    -0.354 OA
HETATM   34  C   UNL     1       6.018  31.387  49.368  1.00  0.00     0.210 C 
ENDBRANCH  27  33
ENDBRANCH  23  26
ENDBRANCH   4  22
TORSDOF 8
ENDMDL
MODEL 10
REMARK VINA RESULT:      -8.5      2.166     10.775
REMARK  8 active torsions:
REMARK  status: ('A' for Active; 'I' for Inactive)
REMARK    1  A    between atoms: C_2  and  C_3 
REMARK    2  A    between atoms: C_6  and  N_7 
REMARK       I    between atoms: N_7  and  C_8 
REMARK    3  A    between atoms: C_8  and  C_9 
REMARK    4  A    between atoms: C_9  and  N_10 
REMARK    5  A    between atoms: C_13  and  C_14 
REMARK       I    between atoms: C_14  and  N_15 
REMARK    6  A    between atoms: N_15  and  C_16 
REMARK    7  A    between atoms: C_17  and  O_18 
REMARK    8  A    between atoms: C_26  and  N_27 
ROOT
HETATM    1  N   UNL     1       4.375  29.680  56.373  1.00  0.00    -0.248 N 
HETATM    2  N   UNL     1       3.161  30.056  56.840  1.00  0.00     0.007 NA
HETATM    3  N   UNL     1       3.362  30.936  57.805  1.00  0.00    -0.150 NA
HETATM    4  C   UNL     1       4.721  31.086  57.982  1.00  0.00     0.187 A 
HETATM    5  C   UNL     1       5.390  30.282  57.072  1.00  0.00     0.151 A 
ENDROOT
BRANCH   1   6
HETATM    6  C   UNL     1       4.432  28.793  55.232  1.00  0.00     0.251 C 
BRANCH   6   7
HETATM    7  C   UNL     1       5.058  27.450  55.570  1.00  0.00     0.241 C 
HETATM    8  N   UNL     1       5.910  26.953  54.597  1.00  0.00    -0.326 N 
HETATM    9  H   UNL     1       6.123  27.577  53.817  1.00  0.00     0.169 HD
HETATM   10  O   UNL     1       4.737  26.871  56.606  1.00  0.00    -0.271 OA
BRANCH   8  11
HETATM   11  C   UNL     1       6.587  25.718  54.571  1.00  0.00     0.034 A 
HETATM   12  C   UNL     1       7.556  25.335  55.495  1.00  0.00     0.030 A 
HETATM   13  C   UNL     1       8.163  24.076  55.401  1.00  0.00     0.009 A 
HETATM   14  C   UNL     1       7.816  23.186  54.377  1.00  0.00    -0.058 A 
HETATM   15  C   UNL     1       6.841  23.573  53.452  1.00  0.00     0.009 A 
HETATM   16  C   UNL     1       6.232  24.826  53.551  1.00  0.00     0.030 A 
BRANCH  14  17
HETATM   17  C   UNL     1       8.454  21.824  54.292  1.00  0.00     0.034 C 
HETATM   18  C   UNL     1       8.160  21.145  52.963  1.00  0.00     0.010 C 
ENDBRANCH  14  17
ENDBRANCH   8  11
ENDBRANCH   6   7
ENDBRANCH   1   6
BRANCH   5  19
HETATM   19  N   UNL     1       6.705  30.080  56.838  1.00  0.00    -0.382 N 
HETATM   20  H   UNL     1       7.377  30.293  57.582  1.00  0.00     0.157 HD
HETATM   21  H   UNL     1       7.134  30.010  55.919  1.00  0.00     0.157 HD
ENDBRANCH   5  19
BRANCH   4  22
HETATM   22  C   UNL     1       5.285  32.012  58.965  1.00  0.00     0.280 C 
HETATM   23  N   UNL     1       4.700  31.835  60.207  1.00  0.00    -0.319 N 
HETATM   24  H   UNL     1       3.881  31.237  60.194  1.00  0.00     0.169 HD
HETATM   25  O   UNL     1       6.110  32.858  58.645  1.00  0.00    -0.265 OA
BRANCH  23  26
HETATM   26  C   UNL     1       4.934  32.555  61.396  1.00  0.00     0.069 A 
HETATM   27  C   UNL     1       4.027  33.406  62.039  1.00  0.00     0.095 A 
HETATM   28  C   UNL     1       4.356  33.995  63.266  1.00  0.00     0.039 A 
HETATM   29  C   UNL     1       5.613  33.792  63.835  1.00  0.00     0.009 A 
HETATM   30  C   UNL     1       6.556  32.997  63.181  1.00  0.00    -0.060 A 
HETATM   31  C   UNL     1       7.920  32.778  63.765  1.00  0.00     0.048 C 
HETATM   32  C   UNL     1       6.212  32.396  61.961  1.00  0.00     0.039 A 
BRANCH  27  33
HETATM   33  O   UNL     1       2.807  33.759  61.528  1.00  0.00    -0.354 OA
HETATM   34  C   UNL     1       2.029  34.445  62.509  1.00  0.00     0.210 C 
ENDBRANCH  27  33
ENDBRANCH  23  26
ENDBRANCH   4  22
TORSDOF 8
ENDMDL
