MODEL 1
REMARK VINA RESULT:      -9.7      0.000      0.000
REMARK  4 active torsions:
REMARK  status: ('A' for Active; 'I' for Inactive)
REMARK    1  A    between atoms: O_2  and  C_3 
REMARK    2  A    between atoms: C_6  and  C_7 
REMARK    3  A    between atoms: C_12  and  N_13 
REMARK    4  A    between atoms: C_15  and  C_16 
ROOT
HETATM    1  C   UNL     1       5.629  26.517  56.279  1.00  0.00     0.135 C 
HETATM    2  N   UNL     1       4.847  26.898  55.109  1.00  0.00    -0.214 N 
HETATM    3  C   UNL     1       5.299  26.627  53.867  1.00  0.00     0.736 A 
HETATM    4  N   UNL     1       6.346  25.770  53.655  1.00  0.00    -0.074 N 
HETATM    5  N   UNL     1       6.713  25.765  52.361  1.00  0.00     0.037 NA
HETATM    6  C   UNL     1       5.778  26.551  51.834  1.00  0.00     0.753 A 
HETATM    7  N   UNL     1       4.913  27.121  52.719  1.00  0.00     0.131 NA
HETATM    8  C   UNL     1       7.104  25.133  54.727  1.00  0.00     0.164 C 
HETATM    9  C   UNL     1       6.300  25.153  56.040  1.00  0.00     0.063 C 
HETATM   10  H   UNL     1       4.250  27.713  55.216  1.00  0.00     0.178 HD
ENDROOT
BRANCH   1  11
HETATM   11  C   UNL     1       6.607  27.592  56.737  1.00  0.00    -0.035 A 
HETATM   12  C   UNL     1       7.986  27.381  56.871  1.00  0.00     0.012 A 
HETATM   13  C   UNL     1       8.831  28.413  57.291  1.00  0.00     0.037 A 
HETATM   14  C   UNL     1       8.326  29.679  57.583  1.00  0.00     0.068 A 
HETATM   15  C   UNL     1       6.957  29.904  57.464  1.00  0.00     0.037 A 
HETATM   16  C   UNL     1       6.109  28.872  57.044  1.00  0.00     0.012 A 
BRANCH  14  17
HETATM   17  O   UNL     1       9.262  30.595  57.972  1.00  0.00    -0.356 OA
HETATM   18  C   UNL     1      10.551  30.489  57.381  1.00  0.00     0.210 C 
ENDBRANCH  14  17
ENDBRANCH   1  11
BRANCH   8  19
HETATM   19  C   UNL     1       7.522  23.708  54.385  1.00  0.00    -0.031 A 
HETATM   20  C   UNL     1       7.902  22.829  55.412  1.00  0.00     0.028 A 
HETATM   21  C   UNL     1       8.262  21.513  55.116  1.00  0.00     0.011 A 
HETATM   22 BR   UNL     1       8.773  20.345  56.513  1.00  0.00    -0.051 Br
HETATM   23  C   UNL     1       8.244  21.051  53.802  1.00  0.00     0.019 A 
HETATM   24  C   UNL     1       7.867  21.912  52.774  1.00  0.00     0.002 A 
HETATM   25  C   UNL     1       7.506  23.230  53.063  1.00  0.00     0.009 A 
ENDBRANCH   8  19
BRANCH   6  26
HETATM   26  N   UNL     1       5.666  26.860  50.545  1.00  0.00    -0.229 N 
HETATM   27  H   UNL     1       4.954  26.369  50.021  1.00  0.00     0.174 HD
HETATM   28  H   UNL     1       6.526  27.032  50.044  1.00  0.00     0.174 HD
ENDBRANCH   6  26
TORSDOF 4
ENDMDL
MODEL 2
REMARK VINA RESULT:      -9.2      4.007      6.924
REMARK  4 active torsions:
REMARK  status: ('A' for Active; 'I' for Inactive)
REMARK    1  A    between atoms: O_2  and  C_3 
REMARK    2  A    between atoms: C_6  and  C_7 
REMARK    3  A    between atoms: C_12  and  N_13 
REMARK    4  A    between atoms: C_15  and  C_16 
ROOT
HETATM    1  C   UNL     1       6.265  25.276  56.459  1.00  0.00     0.135 C 
HETATM    2  N   UNL     1       7.098  26.075  57.349  1.00  0.00    -0.214 N 
HETATM    3  C   UNL     1       7.703  27.194  56.897  1.00  0.00     0.736 A 
HETATM    4  N   UNL     1       7.359  27.763  55.700  1.00  0.00    -0.074 N 
HETATM    5  N   UNL     1       8.186  28.777  55.390  1.00  0.00     0.037 NA
HETATM    6  C   UNL     1       8.930  28.837  56.491  1.00  0.00     0.753 A 
HETATM    7  N   UNL     1       8.689  27.872  57.424  1.00  0.00     0.131 NA
HETATM    8  C   UNL     1       6.377  27.193  54.783  1.00  0.00     0.164 C 
HETATM    9  C   UNL     1       5.464  26.197  55.521  1.00  0.00     0.063 C 
HETATM   10  H   UNL     1       7.559  25.574  58.103  1.00  0.00     0.178 HD
ENDROOT
BRANCH   1  11
HETATM   11  C   UNL     1       7.032  24.188  55.718  1.00  0.00    -0.035 A 
HETATM   12  C   UNL     1       6.823  23.873  54.368  1.00  0.00     0.012 A 
HETATM   13  C   UNL     1       7.566  22.866  53.745  1.00  0.00     0.037 A 
HETATM   14  C   UNL     1       8.535  22.150  54.446  1.00  0.00     0.068 A 
HETATM   15  C   UNL     1       8.749  22.443  55.791  1.00  0.00     0.037 A 
HETATM   16  C   UNL     1       8.006  23.452  56.418  1.00  0.00     0.012 A 
BRANCH  14  17
HETATM   17  O   UNL     1       9.191  21.202  53.714  1.00  0.00    -0.356 OA
HETATM   18  C   UNL     1       8.403  20.402  52.843  1.00  0.00     0.210 C 
ENDBRANCH  14  17
ENDBRANCH   1  11
BRANCH   8  19
HETATM   19  C   UNL     1       5.540  28.256  54.082  1.00  0.00    -0.031 A 
HETATM   20  C   UNL     1       5.728  28.500  52.711  1.00  0.00     0.028 A 
HETATM   21  C   UNL     1       4.949  29.451  52.051  1.00  0.00     0.011 A 
HETATM   22 BR   UNL     1       5.220  29.767  50.206  1.00  0.00    -0.051 Br
HETATM   23  C   UNL     1       3.973  30.170  52.738  1.00  0.00     0.019 A 
HETATM   24  C   UNL     1       3.775  29.936  54.097  1.00  0.00     0.002 A 
HETATM   25  C   UNL     1       4.550  28.985  54.764  1.00  0.00     0.009 A 
ENDBRANCH   8  19
BRANCH   6  26
HETATM   26  N   UNL     1       9.907  29.710  56.716  1.00  0.00    -0.229 N 
HETATM   27  H   UNL     1      10.835  29.438  56.419  1.00  0.00     0.174 HD
HETATM   28  H   UNL     1       9.868  30.221  57.587  1.00  0.00     0.174 HD
ENDBRANCH   6  26
TORSDOF 4
ENDMDL
MODEL 3
REMARK VINA RESULT:      -9.0      3.440      6.929
REMARK  4 active torsions:
REMARK  status: ('A' for Active; 'I' for Inactive)
REMARK    1  A    between atoms: O_2  and  C_3 
REMARK    2  A    between atoms: C_6  and  C_7 
REMARK    3  A    between atoms: C_12  and  N_13 
REMARK    4  A    between atoms: C_15  and  C_16 
ROOT
HETATM    1  C   UNL     1       7.527  27.469  53.458  1.00  0.00     0.135 C 
HETATM    2  N   UNL     1       6.195  28.060  53.507  1.00  0.00    -0.214 N 
HETATM    3  C   UNL     1       5.679  28.486  54.679  1.00  0.00     0.736 A 
HETATM    4  N   UNL     1       6.459  28.629  55.797  1.00  0.00    -0.074 N 
HETATM    5  N   UNL     1       5.710  28.924  56.874  1.00  0.00     0.037 NA
HETATM    6  C   UNL     1       4.509  29.053  56.316  1.00  0.00     0.753 A 
HETATM    7  N   UNL     1       4.440  28.767  54.985  1.00  0.00     0.131 NA
HETATM    8  C   UNL     1       7.874  28.279  55.850  1.00  0.00     0.164 C 
HETATM    9  C   UNL     1       8.465  28.207  54.430  1.00  0.00     0.063 C 
HETATM   10  H   UNL     1       5.537  27.742  52.802  1.00  0.00     0.178 HD
ENDROOT
BRANCH   1  11
HETATM   11  C   UNL     1       7.532  25.958  53.652  1.00  0.00    -0.035 A 
HETATM   12  C   UNL     1       7.171  25.329  54.852  1.00  0.00     0.012 A 
HETATM   13  C   UNL     1       7.192  23.935  54.963  1.00  0.00     0.037 A 
HETATM   14  C   UNL     1       7.568  23.135  53.886  1.00  0.00     0.068 A 
HETATM   15  C   UNL     1       7.938  23.744  52.690  1.00  0.00     0.037 A 
HETATM   16  C   UNL     1       7.919  25.140  52.576  1.00  0.00     0.012 A 
BRANCH  14  17
HETATM   17  O   UNL     1       7.534  21.791  54.129  1.00  0.00    -0.356 OA
HETATM   18  C   UNL     1       7.933  20.934  53.067  1.00  0.00     0.210 C 
ENDBRANCH  14  17
ENDBRANCH   1  11
BRANCH   8  19
HETATM   19  C   UNL     1       8.685  29.240  56.711  1.00  0.00    -0.031 A 
HETATM   20  C   UNL     1       8.184  29.653  57.956  1.00  0.00     0.028 A 
HETATM   21  C   UNL     1       8.929  30.511  58.767  1.00  0.00     0.011 A 
HETATM   22 BR   UNL     1       8.235  31.057  60.439  1.00  0.00    -0.051 Br
HETATM   23  C   UNL     1      10.180  30.966  58.357  1.00  0.00     0.019 A 
HETATM   24  C   UNL     1      10.690  30.562  57.125  1.00  0.00     0.002 A 
HETATM   25  C   UNL     1       9.950  29.704  56.309  1.00  0.00     0.009 A 
ENDBRANCH   8  19
BRANCH   6  26
HETATM   26  N   UNL     1       3.390  29.375  56.957  1.00  0.00    -0.229 N 
HETATM   27  H   UNL     1       3.103  28.758  57.705  1.00  0.00     0.174 HD
HETATM   28  H   UNL     1       2.637  29.748  56.397  1.00  0.00     0.174 HD
ENDBRANCH   6  26
TORSDOF 4
ENDMDL
MODEL 4
REMARK VINA RESULT:      -8.9      4.074      6.853
REMARK  4 active torsions:
REMARK  status: ('A' for Active; 'I' for Inactive)
REMARK    1  A    between atoms: O_2  and  C_3 
REMARK    2  A    between atoms: C_6  and  C_7 
REMARK    3  A    between atoms: C_12  and  N_13 
REMARK    4  A    between atoms: C_15  and  C_16 
ROOT
HETATM    1  C   UNL     1       4.952  27.770  55.339  1.00  0.00     0.135 C 
HETATM    2  N   UNL     1       4.974  26.568  56.164  1.00  0.00    -0.214 N 
HETATM    3  C   UNL     1       6.146  26.054  56.592  1.00  0.00     0.736 A 
HETATM    4  N   UNL     1       7.315  26.762  56.505  1.00  0.00    -0.074 N 
HETATM    5  N   UNL     1       8.368  26.003  56.855  1.00  0.00     0.037 NA
HETATM    6  C   UNL     1       7.753  24.891  57.248  1.00  0.00     0.753 A 
HETATM    7  N   UNL     1       6.401  24.867  57.078  1.00  0.00     0.131 NA
HETATM    8  C   UNL     1       7.421  28.082  55.892  1.00  0.00     0.164 C 
HETATM    9  C   UNL     1       6.037  28.753  55.815  1.00  0.00     0.063 C 
HETATM   10  H   UNL     1       4.206  25.917  56.028  1.00  0.00     0.178 HD
ENDROOT
BRANCH   1  11
HETATM   11  C   UNL     1       5.016  27.485  53.844  1.00  0.00    -0.035 A 
HETATM   12  C   UNL     1       5.022  26.193  53.300  1.00  0.00     0.012 A 
HETATM   13  C   UNL     1       5.077  25.999  51.916  1.00  0.00     0.037 A 
HETATM   14  C   UNL     1       5.124  27.084  51.041  1.00  0.00     0.068 A 
HETATM   15  C   UNL     1       5.128  28.374  51.565  1.00  0.00     0.037 A 
HETATM   16  C   UNL     1       5.074  28.570  52.951  1.00  0.00     0.012 A 
BRANCH  14  17
HETATM   17  O   UNL     1       5.165  26.751  49.716  1.00  0.00    -0.356 OA
HETATM   18  C   UNL     1       4.329  27.497  48.840  1.00  0.00     0.210 C 
ENDBRANCH  14  17
ENDBRANCH   1  11
BRANCH   8  19
HETATM   19  C   UNL     1       8.407  28.990  56.618  1.00  0.00    -0.031 A 
HETATM   20  C   UNL     1       8.108  29.450  57.911  1.00  0.00     0.028 A 
HETATM   21  C   UNL     1       9.015  30.260  58.597  1.00  0.00     0.011 A 
HETATM   22 BR   UNL     1       8.594  30.871  60.336  1.00  0.00    -0.051 Br
HETATM   23  C   UNL     1      10.227  30.620  58.014  1.00  0.00     0.019 A 
HETATM   24  C   UNL     1      10.537  30.169  56.733  1.00  0.00     0.002 A 
HETATM   25  C   UNL     1       9.635  29.358  56.041  1.00  0.00     0.009 A 
ENDBRANCH   8  19
BRANCH   6  26
HETATM   26  N   UNL     1       8.354  23.805  57.726  1.00  0.00    -0.229 N 
HETATM   27  H   UNL     1       8.968  23.310  57.093  1.00  0.00     0.174 HD
HETATM   28  H   UNL     1       7.807  23.217  58.340  1.00  0.00     0.174 HD
ENDBRANCH   6  26
TORSDOF 4
ENDMDL
MODEL 5
REMARK VINA RESULT:      -8.8      3.379      5.434
REMARK  4 active torsions:
REMARK  status: ('A' for Active; 'I' for Inactive)
REMARK    1  A    between atoms: O_2  and  C_3 
REMARK    2  A    between atoms: C_6  and  C_7 
REMARK    3  A    between atoms: C_12  and  N_13 
REMARK    4  A    between atoms: C_15  and  C_16 
ROOT
HETATM    1  C   UNL     1       7.163  26.911  52.671  1.00  0.00     0.135 C 
HETATM    2  N   UNL     1       6.834  27.394  54.007  1.00  0.00    -0.214 N 
HETATM    3  C   UNL     1       6.255  26.572  54.908  1.00  0.00     0.736 A 
HETATM    4  N   UNL     1       6.199  25.218  54.711  1.00  0.00    -0.074 N 
HETATM    5  N   UNL     1       5.455  24.622  55.661  1.00  0.00     0.037 NA
HETATM    6  C   UNL     1       5.191  25.655  56.455  1.00  0.00     0.753 A 
HETATM    7  N   UNL     1       5.634  26.868  56.020  1.00  0.00     0.131 NA
HETATM    8  C   UNL     1       6.684  24.551  53.508  1.00  0.00     0.164 C 
HETATM    9  C   UNL     1       7.669  25.459  52.748  1.00  0.00     0.063 C 
HETATM   10  H   UNL     1       6.627  28.385  54.087  1.00  0.00     0.178 HD
ENDROOT
BRANCH   1  11
HETATM   11  C   UNL     1       6.040  27.101  51.660  1.00  0.00    -0.035 A 
HETATM   12  C   UNL     1       5.640  26.112  50.750  1.00  0.00     0.012 A 
HETATM   13  C   UNL     1       4.596  26.349  49.850  1.00  0.00     0.037 A 
HETATM   14  C   UNL     1       3.925  27.571  49.834  1.00  0.00     0.068 A 
HETATM   15  C   UNL     1       4.317  28.567  50.724  1.00  0.00     0.037 A 
HETATM   16  C   UNL     1       5.362  28.333  51.627  1.00  0.00     0.012 A 
BRANCH  14  17
HETATM   17  O   UNL     1       2.921  27.663  48.911  1.00  0.00    -0.356 OA
HETATM   18  C   UNL     1       1.820  28.499  49.241  1.00  0.00     0.210 C 
ENDBRANCH  14  17
ENDBRANCH   1  11
BRANCH   8  19
HETATM   19  C   UNL     1       7.330  23.202  53.802  1.00  0.00    -0.031 A 
HETATM   20  C   UNL     1       7.565  22.818  55.133  1.00  0.00     0.028 A 
HETATM   21  C   UNL     1       8.131  21.574  55.417  1.00  0.00     0.011 A 
HETATM   22 BR   UNL     1       8.443  21.077  57.215  1.00  0.00    -0.051 Br
HETATM   23  C   UNL     1       8.467  20.695  54.390  1.00  0.00     0.019 A 
HETATM   24  C   UNL     1       8.236  21.063  53.066  1.00  0.00     0.002 A 
HETATM   25  C   UNL     1       7.670  22.306  52.774  1.00  0.00     0.009 A 
ENDBRANCH   8  19
BRANCH   6  26
HETATM   26  N   UNL     1       4.491  25.601  57.584  1.00  0.00    -0.229 N 
HETATM   27  H   UNL     1       4.856  26.123  58.370  1.00  0.00     0.174 HD
HETATM   28  H   UNL     1       4.074  24.711  57.818  1.00  0.00     0.174 HD
ENDBRANCH   6  26
TORSDOF 4
ENDMDL
MODEL 6
REMARK VINA RESULT:      -8.4     12.872     14.555
REMARK  4 active torsions:
REMARK  status: ('A' for Active; 'I' for Inactive)
REMARK    1  A    between atoms: O_2  and  C_3 
REMARK    2  A    between atoms: C_6  and  C_7 
REMARK    3  A    between atoms: C_12  and  N_13 
REMARK    4  A    between atoms: C_15  and  C_16 
ROOT
HETATM    1  C   UNL     1       5.974  33.730  64.491  1.00  0.00     0.135 C 
HETATM    2  N   UNL     1       4.843  33.054  63.866  1.00  0.00    -0.214 N 
HETATM    3  C   UNL     1       3.808  33.765  63.374  1.00  0.00     0.736 A 
HETATM    4  N   UNL     1       3.888  35.121  63.199  1.00  0.00    -0.074 N 
HETATM    5  N   UNL     1       2.698  35.634  62.837  1.00  0.00     0.037 NA
HETATM    6  C   UNL     1       1.979  34.523  62.704  1.00  0.00     0.753 A 
HETATM    7  N   UNL     1       2.607  33.363  63.049  1.00  0.00     0.131 NA
HETATM    8  C   UNL     1       5.046  35.922  63.581  1.00  0.00     0.164 C 
HETATM    9  C   UNL     1       6.292  35.031  63.733  1.00  0.00     0.063 C 
HETATM   10  H   UNL     1       4.642  32.116  64.200  1.00  0.00     0.178 HD
ENDROOT
BRANCH   1  11
HETATM   11  C   UNL     1       5.807  33.937  65.991  1.00  0.00    -0.035 A 
HETATM   12  C   UNL     1       4.571  33.882  66.650  1.00  0.00     0.012 A 
HETATM   13  C   UNL     1       4.487  34.076  68.032  1.00  0.00     0.037 A 
HETATM   14  C   UNL     1       5.629  34.324  68.793  1.00  0.00     0.068 A 
HETATM   15  C   UNL     1       6.864  34.391  68.153  1.00  0.00     0.037 A 
HETATM   16  C   UNL     1       6.951  34.198  66.769  1.00  0.00     0.012 A 
BRANCH  14  17
HETATM   17  O   UNL     1       5.404  34.484  70.131  1.00  0.00    -0.356 OA
HETATM   18  C   UNL     1       6.511  34.894  70.924  1.00  0.00     0.210 C 
ENDBRANCH  14  17
ENDBRANCH   1  11
BRANCH   8  19
HETATM   19  C   UNL     1       5.325  37.057  62.602  1.00  0.00    -0.031 A 
HETATM   20  C   UNL     1       6.129  38.138  63.000  1.00  0.00     0.028 A 
HETATM   21  C   UNL     1       6.415  39.170  62.105  1.00  0.00     0.011 A 
HETATM   22 BR   UNL     1       7.496  40.619  62.661  1.00  0.00    -0.051 Br
HETATM   23  C   UNL     1       5.914  39.142  60.806  1.00  0.00     0.019 A 
HETATM   24  C   UNL     1       5.117  38.074  60.398  1.00  0.00     0.002 A 
HETATM   25  C   UNL     1       4.827  37.038  61.288  1.00  0.00     0.009 A 
ENDBRANCH   8  19
BRANCH   6  26
HETATM   26  N   UNL     1       0.705  34.468  62.326  1.00  0.00    -0.229 N 
HETATM   27  H   UNL     1       0.345  33.558  62.073  1.00  0.00     0.174 HD
HETATM   28  H   UNL     1       0.366  35.235  61.762  1.00  0.00     0.174 HD
ENDBRANCH   6  26
TORSDOF 4
ENDMDL
MODEL 7
REMARK VINA RESULT:      -8.4      3.737      6.564
REMARK  4 active torsions:
REMARK  status: ('A' for Active; 'I' for Inactive)
REMARK    1  A    between atoms: O_2  and  C_3 
REMARK    2  A    between atoms: C_6  and  C_7 
REMARK    3  A    between atoms: C_12  and  N_13 
REMARK    4  A    between atoms: C_15  and  C_16 
ROOT
HETATM    1  C   UNL     1       6.050  27.875  51.276  1.00  0.00     0.135 C 
HETATM    2  N   UNL     1       5.793  28.889  52.291  1.00  0.00    -0.214 N 
HETATM    3  C   UNL     1       5.300  28.540  53.498  1.00  0.00     0.736 A 
HETATM    4  N   UNL     1       5.273  27.234  53.912  1.00  0.00    -0.074 N 
HETATM    5  N   UNL     1       4.612  27.109  55.076  1.00  0.00     0.037 NA
HETATM    6  C   UNL     1       4.367  28.385  55.362  1.00  0.00     0.753 A 
HETATM    7  N   UNL     1       4.743  29.289  54.414  1.00  0.00     0.131 NA
HETATM    8  C   UNL     1       5.700  26.111  53.084  1.00  0.00     0.164 C 
HETATM    9  C   UNL     1       6.605  26.600  51.938  1.00  0.00     0.063 C 
HETATM   10  H   UNL     1       5.560  29.817  51.949  1.00  0.00     0.178 HD
ENDROOT
BRANCH   1  11
HETATM   11  C   UNL     1       4.859  27.607  50.366  1.00  0.00    -0.035 A 
HETATM   12  C   UNL     1       3.831  28.533  50.140  1.00  0.00     0.012 A 
HETATM   13  C   UNL     1       2.766  28.227  49.286  1.00  0.00     0.037 A 
HETATM   14  C   UNL     1       2.700  26.996  48.635  1.00  0.00     0.068 A 
HETATM   15  C   UNL     1       3.708  26.061  48.855  1.00  0.00     0.037 A 
HETATM   16  C   UNL     1       4.775  26.365  49.710  1.00  0.00     0.012 A 
BRANCH  14  17
HETATM   17  O   UNL     1       1.612  26.833  47.824  1.00  0.00    -0.356 OA
HETATM   18  C   UNL     1       1.327  27.886  46.912  1.00  0.00     0.210 C 
ENDBRANCH  14  17
ENDBRANCH   1  11
BRANCH   8  19
HETATM   19  C   UNL     1       6.406  25.024  53.886  1.00  0.00    -0.031 A 
HETATM   20  C   UNL     1       6.788  23.829  53.253  1.00  0.00     0.028 A 
HETATM   21  C   UNL     1       7.459  22.837  53.969  1.00  0.00     0.011 A 
HETATM   22 BR   UNL     1       7.962  21.234  53.101  1.00  0.00    -0.051 Br
HETATM   23  C   UNL     1       7.764  23.017  55.316  1.00  0.00     0.019 A 
HETATM   24  C   UNL     1       7.393  24.198  55.955  1.00  0.00     0.002 A 
HETATM   25  C   UNL     1       6.722  25.196  55.245  1.00  0.00     0.009 A 
ENDBRANCH   8  19
BRANCH   6  26
HETATM   26  N   UNL     1       3.743  28.826  56.450  1.00  0.00    -0.229 N 
HETATM   27  H   UNL     1       3.818  29.816  56.646  1.00  0.00     0.174 HD
HETATM   28  H   UNL     1       3.767  28.226  57.262  1.00  0.00     0.174 HD
ENDBRANCH   6  26
TORSDOF 4
ENDMDL
MODEL 8
REMARK VINA RESULT:      -8.3      9.048     12.996
REMARK  4 active torsions:
REMARK  status: ('A' for Active; 'I' for Inactive)
REMARK    1  A    between atoms: O_2  and  C_3 
REMARK    2  A    between atoms: C_6  and  C_7 
REMARK    3  A    between atoms: C_12  and  N_13 
REMARK    4  A    between atoms: C_15  and  C_16 
ROOT
HETATM    1  C   UNL     1       4.650  32.879  61.247  1.00  0.00     0.135 C 
HETATM    2  N   UNL     1       4.306  32.512  62.616  1.00  0.00    -0.214 N 
HETATM    3  C   UNL     1       4.716  33.275  63.651  1.00  0.00     0.736 A 
HETATM    4  N   UNL     1       5.224  34.532  63.460  1.00  0.00    -0.074 N 
HETATM    5  N   UNL     1       5.697  35.043  64.611  1.00  0.00     0.037 NA
HETATM    6  C   UNL     1       5.341  34.092  65.471  1.00  0.00     0.753 A 
HETATM    7  N   UNL     1       4.767  32.983  64.925  1.00  0.00     0.131 NA
HETATM    8  C   UNL     1       5.433  35.132  62.147  1.00  0.00     0.164 C 
HETATM    9  C   UNL     1       4.588  34.409  61.083  1.00  0.00     0.063 C 
HETATM   10  H   UNL     1       4.178  31.521  62.795  1.00  0.00     0.178 HD
ENDROOT
BRANCH   1  11
HETATM   11  C   UNL     1       5.965  32.279  60.766  1.00  0.00    -0.035 A 
HETATM   12  C   UNL     1       6.972  31.825  61.629  1.00  0.00     0.012 A 
HETATM   13  C   UNL     1       8.155  31.277  61.122  1.00  0.00     0.037 A 
HETATM   14  C   UNL     1       8.363  31.165  59.748  1.00  0.00     0.068 A 
HETATM   15  C   UNL     1       7.377  31.620  58.877  1.00  0.00     0.037 A 
HETATM   16  C   UNL     1       6.191  32.169  59.382  1.00  0.00     0.012 A 
BRANCH  14  17
HETATM   17  O   UNL     1       9.557  30.604  59.392  1.00  0.00    -0.356 OA
HETATM   18  C   UNL     1      10.113  31.012  58.148  1.00  0.00     0.210 C 
ENDBRANCH  14  17
ENDBRANCH   1  11
BRANCH   8  19
HETATM   19  C   UNL     1       5.136  36.627  62.129  1.00  0.00    -0.031 A 
HETATM   20  C   UNL     1       6.194  37.548  62.204  1.00  0.00     0.028 A 
HETATM   21  C   UNL     1       5.938  38.920  62.161  1.00  0.00     0.011 A 
HETATM   22 BR   UNL     1       7.375  40.144  62.267  1.00  0.00    -0.051 Br
HETATM   23  C   UNL     1       4.634  39.395  62.040  1.00  0.00     0.019 A 
HETATM   24  C   UNL     1       3.576  38.492  61.962  1.00  0.00     0.002 A 
HETATM   25  C   UNL     1       3.825  37.119  62.004  1.00  0.00     0.009 A 
ENDBRANCH   8  19
BRANCH   6  26
HETATM   26  N   UNL     1       5.555  34.118  66.783  1.00  0.00    -0.229 N 
HETATM   27  H   UNL     1       5.068  33.425  67.335  1.00  0.00     0.174 HD
HETATM   28  H   UNL     1       5.635  35.030  67.211  1.00  0.00     0.174 HD
ENDBRANCH   6  26
TORSDOF 4
ENDMDL
MODEL 9
REMARK VINA RESULT:      -8.1      3.711      6.669
REMARK  4 active torsions:
REMARK  status: ('A' for Active; 'I' for Inactive)
REMARK    1  A    between atoms: O_2  and  C_3 
REMARK    2  A    between atoms: C_6  and  C_7 
REMARK    3  A    between atoms: C_12  and  N_13 
REMARK    4  A    between atoms: C_15  and  C_16 
ROOT
HETATM    1  C   UNL     1       4.018  27.553  53.084  1.00  0.00     0.135 C 
HETATM    2  N   UNL     1       4.256  26.120  53.202  1.00  0.00    -0.214 N 
HETATM    3  C   UNL     1       5.469  25.656  53.570  1.00  0.00     0.736 A 
HETATM    4  N   UNL     1       6.425  26.484  54.096  1.00  0.00    -0.074 N 
HETATM    5  N   UNL     1       7.593  25.836  54.253  1.00  0.00     0.037 NA
HETATM    6  C   UNL     1       7.241  24.600  53.909  1.00  0.00     0.753 A 
HETATM    7  N   UNL     1       5.964  24.450  53.458  1.00  0.00     0.131 NA
HETATM    8  C   UNL     1       6.258  27.925  54.244  1.00  0.00     0.164 C 
HETATM    9  C   UNL     1       4.765  28.302  54.203  1.00  0.00     0.063 C 
HETATM   10  H   UNL     1       3.696  25.522  52.601  1.00  0.00     0.178 HD
ENDROOT
BRANCH   1  11
HETATM   11  C   UNL     1       4.307  28.108  51.696  1.00  0.00    -0.035 A 
HETATM   12  C   UNL     1       4.812  27.335  50.641  1.00  0.00     0.012 A 
HETATM   13  C   UNL     1       5.051  27.905  49.386  1.00  0.00     0.037 A 
HETATM   14  C   UNL     1       4.790  29.254  49.149  1.00  0.00     0.068 A 
HETATM   15  C   UNL     1       4.297  30.038  50.189  1.00  0.00     0.037 A 
HETATM   16  C   UNL     1       4.058  29.470  51.446  1.00  0.00     0.012 A 
BRANCH  14  17
HETATM   17  O   UNL     1       5.059  29.676  47.878  1.00  0.00    -0.356 OA
HETATM   18  C   UNL     1       4.674  31.004  47.547  1.00  0.00     0.210 C 
ENDBRANCH  14  17
ENDBRANCH   1  11
BRANCH   8  19
HETATM   19  C   UNL     1       6.903  28.465  55.516  1.00  0.00    -0.031 A 
HETATM   20  C   UNL     1       8.274  28.770  55.526  1.00  0.00     0.028 A 
HETATM   21  C   UNL     1       8.871  29.291  56.675  1.00  0.00     0.011 A 
HETATM   22 BR   UNL     1      10.719  29.692  56.670  1.00  0.00    -0.051 Br
HETATM   23  C   UNL     1       8.119  29.519  57.824  1.00  0.00     0.019 A 
HETATM   24  C   UNL     1       6.757  29.223  57.827  1.00  0.00     0.002 A 
HETATM   25  C   UNL     1       6.153  28.703  56.681  1.00  0.00     0.009 A 
ENDBRANCH   8  19
BRANCH   6  26
HETATM   26  N   UNL     1       8.042  23.539  53.916  1.00  0.00    -0.229 N 
HETATM   27  H   UNL     1       8.763  23.519  54.625  1.00  0.00     0.174 HD
HETATM   28  H   UNL     1       8.317  23.173  53.015  1.00  0.00     0.174 HD
ENDBRANCH   6  26
TORSDOF 4
ENDMDL
MODEL 10
REMARK VINA RESULT:      -8.0      9.935     12.786
REMARK  4 active torsions:
REMARK  status: ('A' for Active; 'I' for Inactive)
REMARK    1  A    between atoms: O_2  and  C_3 
REMARK    2  A    between atoms: C_6  and  C_7 
REMARK    3  A    between atoms: C_12  and  N_13 
REMARK    4  A    between atoms: C_15  and  C_16 
ROOT
HETATM    1  C   UNL     1       4.041  33.987  65.043  1.00  0.00     0.135 C 
HETATM    2  N   UNL     1       3.449  35.227  64.557  1.00  0.00    -0.214 N 
HETATM    3  C   UNL     1       4.047  35.931  63.573  1.00  0.00     0.736 A 
HETATM    4  N   UNL     1       5.058  35.395  62.820  1.00  0.00    -0.074 N 
HETATM    5  N   UNL     1       5.596  36.319  62.004  1.00  0.00     0.037 NA
HETATM    6  C   UNL     1       4.791  37.353  62.234  1.00  0.00     0.753 A 
HETATM    7  N   UNL     1       3.851  37.170  63.204  1.00  0.00     0.131 NA
HETATM    8  C   UNL     1       5.623  34.069  63.046  1.00  0.00     0.164 C 
HETATM    9  C   UNL     1       4.652  33.202  63.868  1.00  0.00     0.063 C 
HETATM   10  H   UNL     1       2.894  35.751  65.227  1.00  0.00     0.178 HD
ENDROOT
BRANCH   1  11
HETATM   11  C   UNL     1       5.012  34.185  66.199  1.00  0.00    -0.035 A 
HETATM   12  C   UNL     1       6.396  33.996  66.091  1.00  0.00     0.012 A 
HETATM   13  C   UNL     1       7.235  34.201  67.192  1.00  0.00     0.037 A 
HETATM   14  C   UNL     1       6.718  34.601  68.423  1.00  0.00     0.068 A 
HETATM   15  C   UNL     1       5.344  34.785  68.550  1.00  0.00     0.037 A 
HETATM   16  C   UNL     1       4.502  34.580  67.450  1.00  0.00     0.012 A 
BRANCH  14  17
HETATM   17  O   UNL     1       7.649  34.774  69.408  1.00  0.00    -0.356 OA
HETATM   18  C   UNL     1       7.639  36.020  70.092  1.00  0.00     0.210 C 
ENDBRANCH  14  17
ENDBRANCH   1  11
BRANCH   8  19
HETATM   19  C   UNL     1       5.995  33.360  61.749  1.00  0.00    -0.031 A 
HETATM   20  C   UNL     1       7.332  33.000  61.511  1.00  0.00     0.028 A 
HETATM   21  C   UNL     1       7.682  32.325  60.339  1.00  0.00     0.011 A 
HETATM   22 BR   UNL     1       9.487  31.852  60.036  1.00  0.00    -0.051 Br
HETATM   23  C   UNL     1       6.714  31.996  59.394  1.00  0.00     0.019 A 
HETATM   24  C   UNL     1       5.384  32.345  59.619  1.00  0.00     0.002 A 
HETATM   25  C   UNL     1       5.026  33.019  60.789  1.00  0.00     0.009 A 
ENDBRANCH   8  19
BRANCH   6  26
HETATM   26  N   UNL     1       4.873  38.542  61.644  1.00  0.00    -0.229 N 
HETATM   27  H   UNL     1       4.289  38.686  60.830  1.00  0.00     0.174 HD
HETATM   28  H   UNL     1       5.791  38.960  61.592  1.00  0.00     0.174 HD
ENDBRANCH   6  26
TORSDOF 4
ENDMDL
