MODEL 1
REMARK VINA RESULT:     -10.4      0.000      0.000
REMARK  8 active torsions:
REMARK  status: ('A' for Active; 'I' for Inactive)
REMARK    1  A    between atoms: C_4  and  S_5 
REMARK    2  A    between atoms: S_5  and  C_6 
REMARK    3  A    between atoms: C_6  and  C_7 
REMARK       I    between atoms: C_7  and  N_8 
REMARK    4  A    between atoms: N_8  and  C_9 
REMARK    5  A    between atoms: C_9  and  C_10 
REMARK    6  A    between atoms: C_20  and  C_21 
REMARK    7  A    between atoms: C_26  and  C_27 
REMARK       I    between atoms: C_27  and  N_28 
REMARK    8  A    between atoms: N_28  and  C_29 
ROOT
HETATM    1  C   UNL     1       9.755  31.366  58.714  1.00  0.00     0.069 C 
HETATM    2  C   UNL     1       8.517  30.618  58.272  1.00  0.00     0.019 C 
HETATM    3  N   UNL     1       8.748  29.637  57.317  1.00  0.00    -0.353 N 
HETATM    4  C   UNL     1       7.830  28.688  56.901  1.00  0.00     0.088 C 
HETATM    5  C   UNL     1       6.539  28.835  57.283  1.00  0.00     0.071 C 
HETATM    6  C   UNL     1       5.512  27.899  56.946  1.00  0.00     0.099 C 
HETATM    7  N   UNL     1       4.662  27.151  56.693  1.00  0.00    -0.192 NA
HETATM    8  C   UNL     1       6.105  30.039  58.132  1.00  0.00     0.130 C 
HETATM    9  C   UNL     1       7.261  30.833  58.741  1.00  0.00     0.048 C 
HETATM   10  H   UNL     1       9.723  29.396  57.182  1.00  0.00     0.166 HD
ENDROOT
BRANCH   4  11
HETATM   11  S   UNL     1       8.300  27.287  55.929  1.00  0.00    -0.102 SA
BRANCH  11  12
HETATM   12  C   UNL     1       7.632  27.685  54.292  1.00  0.00     0.183 C 
BRANCH  12  13
HETATM   13  C   UNL     1       7.052  26.484  53.566  1.00  0.00     0.227 C 
HETATM   14  N   UNL     1       7.912  25.438  53.330  1.00  0.00    -0.356 N 
HETATM   15  H   UNL     1       8.901  25.659  53.273  1.00  0.00     0.162 HD
HETATM   16  O   UNL     1       5.851  26.428  53.306  1.00  0.00    -0.273 OA
BRANCH  14  17
HETATM   17  C   UNL     1       7.442  24.254  52.645  1.00  0.00     0.161 C 
BRANCH  17  18
HETATM   18  C   UNL     1       7.575  22.987  53.451  1.00  0.00    -0.041 A 
HETATM   19  C   UNL     1       7.907  21.753  52.874  1.00  0.00     0.009 A 
HETATM   20  C   UNL     1       8.066  20.614  53.667  1.00  0.00     0.001 A 
HETATM   21  C   UNL     1       7.920  20.698  55.049  1.00  0.00     0.000 A 
HETATM   22  C   UNL     1       7.617  21.920  55.642  1.00  0.00     0.001 A 
HETATM   23  C   UNL     1       7.448  23.057  54.849  1.00  0.00     0.009 A 
ENDBRANCH  17  18
ENDBRANCH  14  17
ENDBRANCH  12  13
ENDBRANCH  11  12
ENDBRANCH   4  11
BRANCH   8  24
HETATM   24  C   UNL     1       5.159  30.938  57.375  1.00  0.00     0.066 A 
HETATM   25  O   UNL     1       5.503  31.221  56.086  1.00  0.00    -0.326 OA
HETATM   26  C   UNL     1       4.530  32.019  55.580  1.00  0.00     0.142 A 
HETATM   27  C   UNL     1       3.559  32.251  56.525  1.00  0.00     0.027 A 
HETATM   28  C   UNL     1       3.962  31.550  57.688  1.00  0.00     0.035 A 
ENDBRANCH   8  24
BRANCH   9  29
HETATM   29  C   UNL     1       7.008  31.804  59.879  1.00  0.00     0.255 C 
HETATM   30  N   UNL     1       6.951  31.274  61.152  1.00  0.00    -0.322 N 
HETATM   31  H   UNL     1       7.024  30.271  61.287  1.00  0.00     0.169 HD
HETATM   32  O   UNL     1       6.916  33.007  59.647  1.00  0.00    -0.268 OA
BRANCH  30  33
HETATM   33  C   UNL     1       6.815  31.987  62.378  1.00  0.00     0.057 A 
HETATM   34  C   UNL     1       5.517  32.261  62.858  1.00  0.00     0.062 A 
HETATM   35 CL   UNL     1       4.114  31.723  62.001  1.00  0.00    -0.082 Cl
HETATM   36  C   UNL     1       5.316  32.947  64.060  1.00  0.00     0.050 A 
HETATM   37  C   UNL     1       6.414  33.374  64.797  1.00  0.00     0.035 A 
HETATM   38 CL   UNL     1       6.179  34.214  66.279  1.00  0.00    -0.084 Cl
HETATM   39  C   UNL     1       7.703  33.122  64.341  1.00  0.00     0.026 A 
HETATM   40  C   UNL     1       7.902  32.432  63.139  1.00  0.00     0.033 A 
ENDBRANCH  30  33
ENDBRANCH   9  29
TORSDOF 8
ENDMDL
MODEL 2
REMARK VINA RESULT:     -10.2      1.378      1.766
REMARK  8 active torsions:
REMARK  status: ('A' for Active; 'I' for Inactive)
REMARK    1  A    between atoms: C_4  and  S_5 
REMARK    2  A    between atoms: S_5  and  C_6 
REMARK    3  A    between atoms: C_6  and  C_7 
REMARK       I    between atoms: C_7  and  N_8 
REMARK    4  A    between atoms: N_8  and  C_9 
REMARK    5  A    between atoms: C_9  and  C_10 
REMARK    6  A    between atoms: C_20  and  C_21 
REMARK    7  A    between atoms: C_26  and  C_27 
REMARK       I    between atoms: C_27  and  N_28 
REMARK    8  A    between atoms: N_28  and  C_29 
ROOT
HETATM    1  C   UNL     1       9.541  31.499  59.106  1.00  0.00     0.069 C 
HETATM    2  C   UNL     1       8.274  30.927  58.512  1.00  0.00     0.019 C 
HETATM    3  N   UNL     1       8.480  29.992  57.507  1.00  0.00    -0.353 N 
HETATM    4  C   UNL     1       7.506  29.182  56.949  1.00  0.00     0.088 C 
HETATM    5  C   UNL     1       6.209  29.449  57.236  1.00  0.00     0.071 C 
HETATM    6  C   UNL     1       5.121  28.659  56.750  1.00  0.00     0.099 C 
HETATM    7  N   UNL     1       4.222  28.030  56.373  1.00  0.00    -0.192 NA
HETATM    8  C   UNL     1       5.834  30.634  58.138  1.00  0.00     0.130 C 
HETATM    9  C   UNL     1       7.011  31.250  58.895  1.00  0.00     0.048 C 
HETATM   10  H   UNL     1       9.432  29.652  57.432  1.00  0.00     0.166 HD
ENDROOT
BRANCH   4  11
HETATM   11  S   UNL     1       7.906  27.805  55.913  1.00  0.00    -0.102 SA
BRANCH  11  12
HETATM   12  C   UNL     1       8.601  26.606  57.082  1.00  0.00     0.183 C 
BRANCH  12  13
HETATM   13  C   UNL     1       7.920  25.250  57.036  1.00  0.00     0.227 C 
HETATM   14  N   UNL     1       8.741  24.158  56.881  1.00  0.00    -0.356 N 
HETATM   15  H   UNL     1       9.632  24.313  56.421  1.00  0.00     0.162 HD
HETATM   16  O   UNL     1       6.710  25.148  57.234  1.00  0.00    -0.273 OA
BRANCH  14  17
HETATM   17  C   UNL     1       8.175  22.827  56.828  1.00  0.00     0.161 C 
BRANCH  17  18
HETATM   18  C   UNL     1       8.057  22.268  55.433  1.00  0.00    -0.041 A 
HETATM   19  C   UNL     1       7.951  23.083  54.296  1.00  0.00     0.009 A 
HETATM   20  C   UNL     1       7.891  22.521  53.019  1.00  0.00     0.001 A 
HETATM   21  C   UNL     1       7.960  21.140  52.858  1.00  0.00     0.000 A 
HETATM   22  C   UNL     1       8.092  20.317  53.974  1.00  0.00     0.001 A 
HETATM   23  C   UNL     1       8.142  20.877  55.252  1.00  0.00     0.009 A 
ENDBRANCH  17  18
ENDBRANCH  14  17
ENDBRANCH  12  13
ENDBRANCH  11  12
ENDBRANCH   4  11
BRANCH   8  24
HETATM   24  C   UNL     1       5.059  31.682  57.378  1.00  0.00     0.066 A 
HETATM   25  O   UNL     1       5.466  31.918  56.098  1.00  0.00    -0.326 OA
HETATM   26  C   UNL     1       4.643  32.870  55.588  1.00  0.00     0.142 A 
HETATM   27  C   UNL     1       3.708  33.247  56.522  1.00  0.00     0.027 A 
HETATM   28  C   UNL     1       3.973  32.478  57.682  1.00  0.00     0.035 A 
ENDBRANCH   8  24
BRANCH   9  29
HETATM   29  C   UNL     1       6.766  32.165  60.079  1.00  0.00     0.255 C 
HETATM   30  N   UNL     1       6.742  31.579  61.329  1.00  0.00    -0.322 N 
HETATM   31  H   UNL     1       6.834  30.571  61.417  1.00  0.00     0.169 HD
HETATM   32  O   UNL     1       6.650  33.375  59.903  1.00  0.00    -0.268 OA
BRANCH  30  33
HETATM   33  C   UNL     1       6.619  32.234  62.587  1.00  0.00     0.057 A 
HETATM   34  C   UNL     1       5.327  32.511  63.080  1.00  0.00     0.062 A 
HETATM   35 CL   UNL     1       3.914  32.044  62.198  1.00  0.00    -0.082 Cl
HETATM   36  C   UNL     1       5.137  33.142  64.314  1.00  0.00     0.050 A 
HETATM   37  C   UNL     1       6.244  33.511  65.071  1.00  0.00     0.035 A 
HETATM   38 CL   UNL     1       6.023  34.282  66.591  1.00  0.00    -0.084 Cl
HETATM   39  C   UNL     1       7.528  33.254  64.604  1.00  0.00     0.026 A 
HETATM   40  C   UNL     1       7.714  32.620  63.370  1.00  0.00     0.033 A 
ENDBRANCH  30  33
ENDBRANCH   9  29
TORSDOF 8
ENDMDL
MODEL 3
REMARK VINA RESULT:     -10.0      3.991     10.493
REMARK  8 active torsions:
REMARK  status: ('A' for Active; 'I' for Inactive)
REMARK    1  A    between atoms: C_4  and  S_5 
REMARK    2  A    between atoms: S_5  and  C_6 
REMARK    3  A    between atoms: C_6  and  C_7 
REMARK       I    between atoms: C_7  and  N_8 
REMARK    4  A    between atoms: N_8  and  C_9 
REMARK    5  A    between atoms: C_9  and  C_10 
REMARK    6  A    between atoms: C_20  and  C_21 
REMARK    7  A    between atoms: C_26  and  C_27 
REMARK       I    between atoms: C_27  and  N_28 
REMARK    8  A    between atoms: N_28  and  C_29 
ROOT
HETATM    1  C   UNL     1       4.212  28.239  54.296  1.00  0.00     0.069 C 
HETATM    2  C   UNL     1       5.063  28.831  55.397  1.00  0.00     0.019 C 
HETATM    3  N   UNL     1       4.785  30.159  55.688  1.00  0.00    -0.353 N 
HETATM    4  C   UNL     1       5.275  30.865  56.774  1.00  0.00     0.088 C 
HETATM    5  C   UNL     1       6.268  30.305  57.506  1.00  0.00     0.071 C 
HETATM    6  C   UNL     1       6.825  30.922  58.670  1.00  0.00     0.099 C 
HETATM    7  N   UNL     1       7.290  31.398  59.621  1.00  0.00    -0.192 NA
HETATM    8  C   UNL     1       6.849  28.936  57.122  1.00  0.00     0.130 C 
HETATM    9  C   UNL     1       6.025  28.167  56.089  1.00  0.00     0.048 C 
HETATM   10  H   UNL     1       3.924  30.512  55.287  1.00  0.00     0.166 HD
ENDROOT
BRANCH   4  11
HETATM   11  S   UNL     1       4.622  32.439  57.246  1.00  0.00    -0.102 SA
BRANCH  11  12
HETATM   12  C   UNL     1       3.633  32.046  58.714  1.00  0.00     0.183 C 
BRANCH  12  13
HETATM   13  C   UNL     1       3.637  33.146  59.760  1.00  0.00     0.227 C 
HETATM   14  N   UNL     1       4.820  33.350  60.430  1.00  0.00    -0.356 N 
HETATM   15  H   UNL     1       5.453  32.560  60.497  1.00  0.00     0.162 HD
HETATM   16  O   UNL     1       2.656  33.873  59.909  1.00  0.00    -0.273 OA
BRANCH  14  17
HETATM   17  C   UNL     1       4.913  34.379  61.442  1.00  0.00     0.161 C 
BRANCH  17  18
HETATM   18  C   UNL     1       5.734  33.984  62.643  1.00  0.00    -0.041 A 
HETATM   19  C   UNL     1       6.960  33.311  62.534  1.00  0.00     0.009 A 
HETATM   20  C   UNL     1       7.710  33.006  63.672  1.00  0.00     0.001 A 
HETATM   21  C   UNL     1       7.258  33.391  64.932  1.00  0.00     0.000 A 
HETATM   22  C   UNL     1       6.056  34.084  65.056  1.00  0.00     0.001 A 
HETATM   23  C   UNL     1       5.301  34.380  63.920  1.00  0.00     0.009 A 
ENDBRANCH  17  18
ENDBRANCH  14  17
ENDBRANCH  12  13
ENDBRANCH  11  12
ENDBRANCH   4  11
BRANCH   8  24
HETATM   24  C   UNL     1       8.294  29.047  56.702  1.00  0.00     0.066 A 
HETATM   25  O   UNL     1       8.518  29.239  55.371  1.00  0.00    -0.326 OA
HETATM   26  C   UNL     1       9.862  29.327  55.203  1.00  0.00     0.142 A 
HETATM   27  C   UNL     1      10.507  29.199  56.410  1.00  0.00     0.027 A 
HETATM   28  C   UNL     1       9.494  29.019  57.384  1.00  0.00     0.035 A 
ENDBRANCH   8  24
BRANCH   9  29
HETATM   29  C   UNL     1       6.251  26.682  55.880  1.00  0.00     0.255 C 
HETATM   30  N   UNL     1       7.115  26.316  54.868  1.00  0.00    -0.322 N 
HETATM   31  H   UNL     1       7.525  27.028  54.270  1.00  0.00     0.169 HD
HETATM   32  O   UNL     1       5.714  25.871  56.630  1.00  0.00    -0.268 OA
BRANCH  30  33
HETATM   33  C   UNL     1       7.553  25.001  54.539  1.00  0.00     0.057 A 
HETATM   34  C   UNL     1       7.196  24.465  53.284  1.00  0.00     0.062 A 
HETATM   35 CL   UNL     1       6.271  25.387  52.148  1.00  0.00    -0.082 Cl
HETATM   36  C   UNL     1       7.603  23.185  52.896  1.00  0.00     0.050 A 
HETATM   37  C   UNL     1       8.370  22.418  53.766  1.00  0.00     0.035 A 
HETATM   38 CL   UNL     1       8.881  20.845  53.298  1.00  0.00    -0.084 Cl
HETATM   39  C   UNL     1       8.730  22.922  55.011  1.00  0.00     0.026 A 
HETATM   40  C   UNL     1       8.323  24.205  55.394  1.00  0.00     0.033 A 
ENDBRANCH  30  33
ENDBRANCH   9  29
TORSDOF 8
ENDMDL
MODEL 4
REMARK VINA RESULT:      -9.8      4.942      8.903
REMARK  8 active torsions:
REMARK  status: ('A' for Active; 'I' for Inactive)
REMARK    1  A    between atoms: C_4  and  S_5 
REMARK    2  A    between atoms: S_5  and  C_6 
REMARK    3  A    between atoms: C_6  and  C_7 
REMARK       I    between atoms: C_7  and  N_8 
REMARK    4  A    between atoms: N_8  and  C_9 
REMARK    5  A    between atoms: C_9  and  C_10 
REMARK    6  A    between atoms: C_20  and  C_21 
REMARK    7  A    between atoms: C_26  and  C_27 
REMARK       I    between atoms: C_27  and  N_28 
REMARK    8  A    between atoms: N_28  and  C_29 
ROOT
HETATM    1  C   UNL     1       5.708  26.638  51.038  1.00  0.00     0.069 C 
HETATM    2  C   UNL     1       5.338  27.486  52.234  1.00  0.00     0.019 C 
HETATM    3  N   UNL     1       4.876  28.756  51.918  1.00  0.00    -0.353 N 
HETATM    4  C   UNL     1       4.290  29.643  52.804  1.00  0.00     0.088 C 
HETATM    5  C   UNL     1       4.350  29.359  54.128  1.00  0.00     0.071 C 
HETATM    6  C   UNL     1       3.748  30.180  55.132  1.00  0.00     0.099 C 
HETATM    7  N   UNL     1       3.263  30.826  55.965  1.00  0.00    -0.192 NA
HETATM    8  C   UNL     1       5.072  28.099  54.627  1.00  0.00     0.130 C 
HETATM    9  C   UNL     1       5.415  27.090  53.531  1.00  0.00     0.048 C 
HETATM   10  H   UNL     1       4.647  28.894  50.940  1.00  0.00     0.166 HD
ENDROOT
BRANCH   4  11
HETATM   11  S   UNL     1       3.444  31.098  52.260  1.00  0.00    -0.102 SA
BRANCH  11  12
HETATM   12  C   UNL     1       4.712  31.973  51.305  1.00  0.00     0.183 C 
BRANCH  12  13
HETATM   13  C   UNL     1       5.170  31.217  50.070  1.00  0.00     0.227 C 
HETATM   14  N   UNL     1       4.274  31.144  49.030  1.00  0.00    -0.356 N 
HETATM   15  H   UNL     1       3.289  31.219  49.265  1.00  0.00     0.162 HD
HETATM   16  O   UNL     1       6.321  30.793  49.985  1.00  0.00    -0.273 OA
BRANCH  14  17
HETATM   17  C   UNL     1       4.629  30.444  47.815  1.00  0.00     0.161 C 
BRANCH  17  18
HETATM   18  C   UNL     1       4.283  28.977  47.831  1.00  0.00    -0.041 A 
HETATM   19  C   UNL     1       5.203  27.978  47.478  1.00  0.00     0.009 A 
HETATM   20  C   UNL     1       4.854  26.628  47.554  1.00  0.00     0.001 A 
HETATM   21  C   UNL     1       3.590  26.256  48.005  1.00  0.00     0.000 A 
HETATM   22  C   UNL     1       2.673  27.233  48.384  1.00  0.00     0.001 A 
HETATM   23  C   UNL     1       3.018  28.584  48.300  1.00  0.00     0.009 A 
ENDBRANCH  17  18
ENDBRANCH  14  17
ENDBRANCH  12  13
ENDBRANCH  11  12
ENDBRANCH   4  11
BRANCH   8  24
HETATM   24  C   UNL     1       6.286  28.449  55.452  1.00  0.00     0.066 A 
HETATM   25  O   UNL     1       7.460  28.572  54.770  1.00  0.00    -0.326 OA
HETATM   26  C   UNL     1       8.415  28.901  55.676  1.00  0.00     0.142 A 
HETATM   27  C   UNL     1       7.871  28.996  56.935  1.00  0.00     0.027 A 
HETATM   28  C   UNL     1       6.491  28.707  56.793  1.00  0.00     0.035 A 
ENDBRANCH   8  24
BRANCH   9  29
HETATM   29  C   UNL     1       5.787  25.665  53.891  1.00  0.00     0.255 C 
HETATM   30  N   UNL     1       7.117  25.414  54.163  1.00  0.00    -0.322 N 
HETATM   31  H   UNL     1       7.802  26.157  54.066  1.00  0.00     0.169 HD
HETATM   32  O   UNL     1       4.911  24.808  53.979  1.00  0.00    -0.268 OA
BRANCH  30  33
HETATM   33  C   UNL     1       7.691  24.189  54.606  1.00  0.00     0.057 A 
HETATM   34  C   UNL     1       7.832  23.974  55.994  1.00  0.00     0.062 A 
HETATM   35 CL   UNL     1       7.299  25.154  57.141  1.00  0.00    -0.082 Cl
HETATM   36  C   UNL     1       8.378  22.787  56.495  1.00  0.00     0.050 A 
HETATM   37  C   UNL     1       8.795  21.799  55.611  1.00  0.00     0.035 A 
HETATM   38 CL   UNL     1       9.462  20.334  56.215  1.00  0.00    -0.084 Cl
HETATM   39  C   UNL     1       8.671  21.990  54.239  1.00  0.00     0.026 A 
HETATM   40  C   UNL     1       8.122  23.177  53.741  1.00  0.00     0.033 A 
ENDBRANCH  30  33
ENDBRANCH   9  29
TORSDOF 8
ENDMDL
MODEL 5
REMARK VINA RESULT:      -9.7      3.703      9.656
REMARK  8 active torsions:
REMARK  status: ('A' for Active; 'I' for Inactive)
REMARK    1  A    between atoms: C_4  and  S_5 
REMARK    2  A    between atoms: S_5  and  C_6 
REMARK    3  A    between atoms: C_6  and  C_7 
REMARK       I    between atoms: C_7  and  N_8 
REMARK    4  A    between atoms: N_8  and  C_9 
REMARK    5  A    between atoms: C_9  and  C_10 
REMARK    6  A    between atoms: C_20  and  C_21 
REMARK    7  A    between atoms: C_26  and  C_27 
REMARK       I    between atoms: C_27  and  N_28 
REMARK    8  A    between atoms: N_28  and  C_29 
ROOT
HETATM    1  C   UNL     1       5.242  28.570  51.511  1.00  0.00     0.069 C 
HETATM    2  C   UNL     1       5.009  28.835  52.981  1.00  0.00     0.019 C 
HETATM    3  N   UNL     1       4.612  30.132  53.276  1.00  0.00    -0.353 N 
HETATM    4  C   UNL     1       4.146  30.571  54.504  1.00  0.00     0.088 C 
HETATM    5  C   UNL     1       4.276  29.746  55.571  1.00  0.00     0.071 C 
HETATM    6  C   UNL     1       3.798  30.076  56.878  1.00  0.00     0.099 C 
HETATM    7  N   UNL     1       3.413  30.317  57.945  1.00  0.00    -0.192 NA
HETATM    8  C   UNL     1       4.946  28.372  55.422  1.00  0.00     0.130 C 
HETATM    9  C   UNL     1       5.147  27.920  53.975  1.00  0.00     0.048 C 
HETATM   10  H   UNL     1       4.326  30.682  52.475  1.00  0.00     0.166 HD
ENDROOT
BRANCH   4  11
HETATM   11  S   UNL     1       3.362  32.144  54.706  1.00  0.00    -0.102 SA
BRANCH  11  12
HETATM   12  C   UNL     1       4.715  33.200  55.289  1.00  0.00     0.183 C 
BRANCH  12  13
HETATM   13  C   UNL     1       4.624  33.542  56.766  1.00  0.00     0.227 C 
HETATM   14  N   UNL     1       5.389  32.782  57.618  1.00  0.00    -0.356 N 
HETATM   15  H   UNL     1       5.629  31.845  57.310  1.00  0.00     0.162 HD
HETATM   16  O   UNL     1       3.976  34.516  57.145  1.00  0.00    -0.273 OA
BRANCH  14  17
HETATM   17  C   UNL     1       5.363  33.040  59.041  1.00  0.00     0.161 C 
BRANCH  17  18
HETATM   18  C   UNL     1       6.465  32.353  59.808  1.00  0.00    -0.041 A 
HETATM   19  C   UNL     1       7.340  31.432  59.214  1.00  0.00     0.009 A 
HETATM   20  C   UNL     1       8.376  30.855  59.951  1.00  0.00     0.001 A 
HETATM   21  C   UNL     1       8.567  31.208  61.285  1.00  0.00     0.000 A 
HETATM   22  C   UNL     1       7.724  32.141  61.883  1.00  0.00     0.001 A 
HETATM   23  C   UNL     1       6.682  32.711  61.149  1.00  0.00     0.009 A 
ENDBRANCH  17  18
ENDBRANCH  14  17
ENDBRANCH  12  13
ENDBRANCH  11  12
ENDBRANCH   4  11
BRANCH   8  24
HETATM   24  C   UNL     1       6.233  28.298  56.206  1.00  0.00     0.066 A 
HETATM   25  O   UNL     1       7.353  28.733  55.563  1.00  0.00    -0.326 OA
HETATM   26  C   UNL     1       8.388  28.600  56.431  1.00  0.00     0.142 A 
HETATM   27  C   UNL     1       7.948  28.089  57.629  1.00  0.00     0.027 A 
HETATM   28  C   UNL     1       6.552  27.894  57.487  1.00  0.00     0.035 A 
ENDBRANCH   8  24
BRANCH   9  29
HETATM   29  C   UNL     1       5.448  26.467  53.662  1.00  0.00     0.255 C 
HETATM   30  N   UNL     1       6.676  25.981  54.063  1.00  0.00    -0.322 N 
HETATM   31  H   UNL     1       7.350  26.605  54.497  1.00  0.00     0.169 HD
HETATM   32  O   UNL     1       4.593  25.769  53.122  1.00  0.00    -0.268 OA
BRANCH  30  33
HETATM   33  C   UNL     1       7.149  24.642  53.963  1.00  0.00     0.057 A 
HETATM   34  C   UNL     1       7.169  23.845  55.127  1.00  0.00     0.062 A 
HETATM   35 CL   UNL     1       6.609  24.462  56.643  1.00  0.00    -0.082 Cl
HETATM   36  C   UNL     1       7.611  22.518  55.094  1.00  0.00     0.050 A 
HETATM   37  C   UNL     1       8.045  21.971  53.892  1.00  0.00     0.035 A 
HETATM   38 CL   UNL     1       8.585  20.340  53.838  1.00  0.00    -0.084 Cl
HETATM   39  C   UNL     1       8.040  22.738  52.732  1.00  0.00     0.026 A 
HETATM   40  C   UNL     1       7.594  24.065  52.768  1.00  0.00     0.033 A 
ENDBRANCH  30  33
ENDBRANCH   9  29
TORSDOF 8
ENDMDL
MODEL 6
REMARK VINA RESULT:      -9.5      2.478      3.286
REMARK  8 active torsions:
REMARK  status: ('A' for Active; 'I' for Inactive)
REMARK    1  A    between atoms: C_4  and  S_5 
REMARK    2  A    between atoms: S_5  and  C_6 
REMARK    3  A    between atoms: C_6  and  C_7 
REMARK       I    between atoms: C_7  and  N_8 
REMARK    4  A    between atoms: N_8  and  C_9 
REMARK    5  A    between atoms: C_9  and  C_10 
REMARK    6  A    between atoms: C_20  and  C_21 
REMARK    7  A    between atoms: C_26  and  C_27 
REMARK       I    between atoms: C_27  and  N_28 
REMARK    8  A    between atoms: N_28  and  C_29 
ROOT
HETATM    1  C   UNL     1       8.308  31.944  61.075  1.00  0.00     0.069 C 
HETATM    2  C   UNL     1       6.991  31.863  60.337  1.00  0.00     0.019 C 
HETATM    3  N   UNL     1       7.109  31.609  58.977  1.00  0.00    -0.353 N 
HETATM    4  C   UNL     1       6.065  31.291  58.125  1.00  0.00     0.088 C 
HETATM    5  C   UNL     1       4.798  31.439  58.582  1.00  0.00     0.071 C 
HETATM    6  C   UNL     1       3.643  31.106  57.807  1.00  0.00     0.099 C 
HETATM    7  N   UNL     1       2.690  30.837  57.201  1.00  0.00    -0.192 NA
HETATM    8  C   UNL     1       4.532  31.970  59.998  1.00  0.00     0.130 C 
HETATM    9  C   UNL     1       5.765  32.006  60.902  1.00  0.00     0.048 C 
HETATM   10  H   UNL     1       8.028  31.305  58.679  1.00  0.00     0.166 HD
ENDROOT
BRANCH   4  11
HETATM   11  S   UNL     1       6.338  30.669  56.492  1.00  0.00    -0.102 SA
BRANCH  11  12
HETATM   12  C   UNL     1       6.808  28.944  56.787  1.00  0.00     0.183 C 
BRANCH  12  13
HETATM   13  C   UNL     1       5.933  27.943  56.054  1.00  0.00     0.227 C 
HETATM   14  N   UNL     1       6.581  27.032  55.255  1.00  0.00    -0.356 N 
HETATM   15  H   UNL     1       7.487  27.304  54.888  1.00  0.00     0.162 HD
HETATM   16  O   UNL     1       4.721  27.901  56.260  1.00  0.00    -0.273 OA
BRANCH  14  17
HETATM   17  C   UNL     1       5.823  26.042  54.521  1.00  0.00     0.161 C 
BRANCH  17  18
HETATM   18  C   UNL     1       6.594  24.781  54.220  1.00  0.00    -0.041 A 
HETATM   19  C   UNL     1       7.077  24.477  52.939  1.00  0.00     0.009 A 
HETATM   20  C   UNL     1       7.827  23.320  52.716  1.00  0.00     0.001 A 
HETATM   21  C   UNL     1       8.126  22.465  53.774  1.00  0.00     0.000 A 
HETATM   22  C   UNL     1       7.677  22.765  55.057  1.00  0.00     0.001 A 
HETATM   23  C   UNL     1       6.919  23.916  55.279  1.00  0.00     0.009 A 
ENDBRANCH  17  18
ENDBRANCH  14  17
ENDBRANCH  12  13
ENDBRANCH  11  12
ENDBRANCH   4  11
BRANCH   8  24
HETATM   24  C   UNL     1       3.835  33.308  59.964  1.00  0.00     0.066 A 
HETATM   25  O   UNL     1       2.514  33.305  60.300  1.00  0.00    -0.326 OA
HETATM   26  C   UNL     1       2.081  34.589  60.224  1.00  0.00     0.142 A 
HETATM   27  C   UNL     1       3.108  35.421  59.848  1.00  0.00     0.027 A 
HETATM   28  C   UNL     1       4.247  34.595  59.682  1.00  0.00     0.035 A 
ENDBRANCH   8  24
BRANCH   9  29
HETATM   29  C   UNL     1       5.609  32.149  62.404  1.00  0.00     0.255 C 
HETATM   30  N   UNL     1       6.067  33.321  62.971  1.00  0.00    -0.322 N 
HETATM   31  H   UNL     1       6.531  34.016  62.394  1.00  0.00     0.169 HD
HETATM   32  O   UNL     1       5.049  31.265  63.047  1.00  0.00    -0.268 OA
BRANCH  30  33
HETATM   33  C   UNL     1       5.953  33.723  64.333  1.00  0.00     0.057 A 
HETATM   34  C   UNL     1       4.709  34.204  64.792  1.00  0.00     0.062 A 
HETATM   35 CL   UNL     1       3.337  34.283  63.740  1.00  0.00    -0.082 Cl
HETATM   36  C   UNL     1       4.527  34.603  66.120  1.00  0.00     0.050 A 
HETATM   37  C   UNL     1       5.594  34.531  67.008  1.00  0.00     0.035 A 
HETATM   38 CL   UNL     1       5.381  35.014  68.644  1.00  0.00    -0.084 Cl
HETATM   39  C   UNL     1       6.832  34.066  66.578  1.00  0.00     0.026 A 
HETATM   40  C   UNL     1       7.009  33.664  65.249  1.00  0.00     0.033 A 
ENDBRANCH  30  33
ENDBRANCH   9  29
TORSDOF 8
ENDMDL
MODEL 7
REMARK VINA RESULT:      -9.5      4.099     11.014
REMARK  8 active torsions:
REMARK  status: ('A' for Active; 'I' for Inactive)
REMARK    1  A    between atoms: C_4  and  S_5 
REMARK    2  A    between atoms: S_5  and  C_6 
REMARK    3  A    between atoms: C_6  and  C_7 
REMARK       I    between atoms: C_7  and  N_8 
REMARK    4  A    between atoms: N_8  and  C_9 
REMARK    5  A    between atoms: C_9  and  C_10 
REMARK    6  A    between atoms: C_20  and  C_21 
REMARK    7  A    between atoms: C_26  and  C_27 
REMARK       I    between atoms: C_27  and  N_28 
REMARK    8  A    between atoms: N_28  and  C_29 
ROOT
HETATM    1  C   UNL     1       4.080  28.722  55.248  1.00  0.00     0.069 C 
HETATM    2  C   UNL     1       5.097  29.255  56.231  1.00  0.00     0.019 C 
HETATM    3  N   UNL     1       4.906  30.581  56.596  1.00  0.00    -0.353 N 
HETATM    4  C   UNL     1       5.567  31.237  57.620  1.00  0.00     0.088 C 
HETATM    5  C   UNL     1       6.636  30.627  58.187  1.00  0.00     0.071 C 
HETATM    6  C   UNL     1       7.372  31.190  59.275  1.00  0.00     0.099 C 
HETATM    7  N   UNL     1       7.982  31.623  60.163  1.00  0.00    -0.192 NA
HETATM    8  C   UNL     1       7.113  29.256  57.686  1.00  0.00     0.130 C 
HETATM    9  C   UNL     1       6.126  28.543  56.759  1.00  0.00     0.048 C 
HETATM   10  H   UNL     1       4.008  30.969  56.332  1.00  0.00     0.166 HD
ENDROOT
BRANCH   4  11
HETATM   11  S   UNL     1       5.038  32.813  58.225  1.00  0.00    -0.102 SA
BRANCH  11  12
HETATM   12  C   UNL     1       3.818  32.374  59.491  1.00  0.00     0.183 C 
BRANCH  12  13
HETATM   13  C   UNL     1       3.185  33.578  60.166  1.00  0.00     0.227 C 
HETATM   14  N   UNL     1       2.628  33.363  61.404  1.00  0.00    -0.356 N 
HETATM   15  H   UNL     1       2.314  32.420  61.610  1.00  0.00     0.162 HD
HETATM   16  O   UNL     1       3.270  34.696  59.661  1.00  0.00    -0.273 OA
BRANCH  14  17
HETATM   17  C   UNL     1       2.005  34.456  62.118  1.00  0.00     0.161 C 
BRANCH  17  18
HETATM   18  C   UNL     1       2.904  35.115  63.133  1.00  0.00    -0.041 A 
HETATM   19  C   UNL     1       3.465  36.385  62.935  1.00  0.00     0.009 A 
HETATM   20  C   UNL     1       4.255  36.977  63.924  1.00  0.00     0.001 A 
HETATM   21  C   UNL     1       4.474  36.319  65.132  1.00  0.00     0.000 A 
HETATM   22  C   UNL     1       3.903  35.070  65.355  1.00  0.00     0.001 A 
HETATM   23  C   UNL     1       3.122  34.473  64.364  1.00  0.00     0.009 A 
ENDBRANCH  17  18
ENDBRANCH  14  17
ENDBRANCH  12  13
ENDBRANCH  11  12
ENDBRANCH   4  11
BRANCH   8  24
HETATM   24  C   UNL     1       8.486  29.340  57.067  1.00  0.00     0.066 A 
HETATM   25  O   UNL     1       8.530  29.354  55.704  1.00  0.00    -0.326 OA
HETATM   26  C   UNL     1       9.836  29.448  55.348  1.00  0.00     0.142 A 
HETATM   27  C   UNL     1      10.636  29.501  56.465  1.00  0.00     0.027 A 
HETATM   28  C   UNL     1       9.764  29.434  57.580  1.00  0.00     0.035 A 
ENDBRANCH   8  24
BRANCH   9  29
HETATM   29  C   UNL     1       6.274  27.060  56.479  1.00  0.00     0.255 C 
HETATM   30  N   UNL     1       6.978  26.703  55.347  1.00  0.00    -0.322 N 
HETATM   31  H   UNL     1       7.324  27.422  54.719  1.00  0.00     0.169 HD
HETATM   32  O   UNL     1       5.819  26.240  57.273  1.00  0.00    -0.268 OA
BRANCH  30  33
HETATM   33  C   UNL     1       7.323  25.388  54.924  1.00  0.00     0.057 A 
HETATM   34  C   UNL     1       6.699  24.864  53.772  1.00  0.00     0.062 A 
HETATM   35 CL   UNL     1       5.558  25.801  52.869  1.00  0.00    -0.082 Cl
HETATM   36  C   UNL     1       7.002  23.584  53.298  1.00  0.00     0.050 A 
HETATM   37  C   UNL     1       7.933  22.806  53.976  1.00  0.00     0.035 A 
HETATM   38 CL   UNL     1       8.318  21.233  53.399  1.00  0.00    -0.084 Cl
HETATM   39  C   UNL     1       8.558  23.297  55.117  1.00  0.00     0.026 A 
HETATM   40  C   UNL     1       8.254  24.581  55.587  1.00  0.00     0.033 A 
ENDBRANCH  30  33
ENDBRANCH   9  29
TORSDOF 8
ENDMDL
MODEL 8
REMARK VINA RESULT:      -9.4      2.144      2.837
REMARK  8 active torsions:
REMARK  status: ('A' for Active; 'I' for Inactive)
REMARK    1  A    between atoms: C_4  and  S_5 
REMARK    2  A    between atoms: S_5  and  C_6 
REMARK    3  A    between atoms: C_6  and  C_7 
REMARK       I    between atoms: C_7  and  N_8 
REMARK    4  A    between atoms: N_8  and  C_9 
REMARK    5  A    between atoms: C_9  and  C_10 
REMARK    6  A    between atoms: C_20  and  C_21 
REMARK    7  A    between atoms: C_26  and  C_27 
REMARK       I    between atoms: C_27  and  N_28 
REMARK    8  A    between atoms: N_28  and  C_29 
ROOT
HETATM    1  C   UNL     1       8.952  31.908  60.768  1.00  0.00     0.069 C 
HETATM    2  C   UNL     1       7.814  31.613  59.817  1.00  0.00     0.019 C 
HETATM    3  N   UNL     1       8.204  31.049  58.610  1.00  0.00    -0.353 N 
HETATM    4  C   UNL     1       7.353  30.506  57.663  1.00  0.00     0.088 C 
HETATM    5  C   UNL     1       6.022  30.717  57.803  1.00  0.00     0.071 C 
HETATM    6  C   UNL     1       5.046  30.174  56.910  1.00  0.00     0.099 C 
HETATM    7  N   UNL     1       4.234  29.740  56.204  1.00  0.00    -0.192 NA
HETATM    8  C   UNL     1       5.479  31.558  58.968  1.00  0.00     0.130 C 
HETATM    9  C   UNL     1       6.500  31.845  60.070  1.00  0.00     0.048 C 
HETATM   10  H   UNL     1       9.160  30.714  58.586  1.00  0.00     0.166 HD
ENDROOT
BRANCH   4  11
HETATM   11  S   UNL     1       7.946  29.527  56.315  1.00  0.00    -0.102 SA
BRANCH  11  12
HETATM   12  C   UNL     1       8.554  28.030  57.136  1.00  0.00     0.183 C 
BRANCH  12  13
HETATM   13  C   UNL     1       7.617  26.842  57.001  1.00  0.00     0.227 C 
HETATM   14  N   UNL     1       8.205  25.599  56.976  1.00  0.00    -0.356 N 
HETATM   15  H   UNL     1       9.164  25.551  56.650  1.00  0.00     0.162 HD
HETATM   16  O   UNL     1       6.397  27.000  57.022  1.00  0.00    -0.273 OA
BRANCH  14  17
HETATM   17  C   UNL     1       7.386  24.413  56.851  1.00  0.00     0.161 C 
BRANCH  17  18
HETATM   18  C   UNL     1       7.460  23.758  55.495  1.00  0.00    -0.041 A 
HETATM   19  C   UNL     1       7.237  24.462  54.302  1.00  0.00     0.009 A 
HETATM   20  C   UNL     1       7.362  23.825  53.065  1.00  0.00     0.001 A 
HETATM   21  C   UNL     1       7.735  22.484  53.003  1.00  0.00     0.000 A 
HETATM   22  C   UNL     1       7.986  21.779  54.176  1.00  0.00     0.001 A 
HETATM   23  C   UNL     1       7.851  22.411  55.413  1.00  0.00     0.009 A 
ENDBRANCH  17  18
ENDBRANCH  14  17
ENDBRANCH  12  13
ENDBRANCH  11  12
ENDBRANCH   4  11
BRANCH   8  24
HETATM   24  C   UNL     1       4.828  32.827  58.477  1.00  0.00     0.066 A 
HETATM   25  O   UNL     1       5.480  33.488  57.478  1.00  0.00    -0.326 OA
HETATM   26  C   UNL     1       4.735  34.580  57.171  1.00  0.00     0.142 A 
HETATM   27  C   UNL     1       3.608  34.630  57.957  1.00  0.00     0.027 A 
HETATM   28  C   UNL     1       3.664  33.494  58.802  1.00  0.00     0.035 A 
ENDBRANCH   8  24
BRANCH   9  29
HETATM   29  C   UNL     1       6.042  32.332  61.430  1.00  0.00     0.255 C 
HETATM   30  N   UNL     1       6.186  33.680  61.694  1.00  0.00    -0.322 N 
HETATM   31  H   UNL     1       6.632  34.284  61.011  1.00  0.00     0.169 HD
HETATM   32  O   UNL     1       5.521  31.547  62.218  1.00  0.00    -0.268 OA
BRANCH  30  33
HETATM   33  C   UNL     1       5.752  34.384  62.853  1.00  0.00     0.057 A 
HETATM   34  C   UNL     1       6.466  34.206  64.057  1.00  0.00     0.062 A 
HETATM   35 CL   UNL     1       7.858  33.180  64.129  1.00  0.00    -0.082 Cl
HETATM   36  C   UNL     1       6.098  34.877  65.228  1.00  0.00     0.050 A 
HETATM   37  C   UNL     1       5.003  35.733  65.211  1.00  0.00     0.035 A 
HETATM   38 CL   UNL     1       4.545  36.567  66.643  1.00  0.00    -0.084 Cl
HETATM   39  C   UNL     1       4.280  35.920  64.038  1.00  0.00     0.026 A 
HETATM   40  C   UNL     1       4.653  35.249  62.867  1.00  0.00     0.033 A 
ENDBRANCH  30  33
ENDBRANCH   9  29
TORSDOF 8
ENDMDL
MODEL 9
REMARK VINA RESULT:      -9.3      4.407     10.155
REMARK  8 active torsions:
REMARK  status: ('A' for Active; 'I' for Inactive)
REMARK    1  A    between atoms: C_4  and  S_5 
REMARK    2  A    between atoms: S_5  and  C_6 
REMARK    3  A    between atoms: C_6  and  C_7 
REMARK       I    between atoms: C_7  and  N_8 
REMARK    4  A    between atoms: N_8  and  C_9 
REMARK    5  A    between atoms: C_9  and  C_10 
REMARK    6  A    between atoms: C_20  and  C_21 
REMARK    7  A    between atoms: C_26  and  C_27 
REMARK       I    between atoms: C_27  and  N_28 
REMARK    8  A    between atoms: N_28  and  C_29 
ROOT
HETATM    1  C   UNL     1       5.336  28.158  51.722  1.00  0.00     0.069 C 
HETATM    2  C   UNL     1       5.126  28.539  53.170  1.00  0.00     0.019 C 
HETATM    3  N   UNL     1       4.764  29.864  53.370  1.00  0.00    -0.353 N 
HETATM    4  C   UNL     1       4.323  30.406  54.565  1.00  0.00     0.088 C 
HETATM    5  C   UNL     1       4.445  29.660  55.690  1.00  0.00     0.071 C 
HETATM    6  C   UNL     1       3.989  30.099  56.973  1.00  0.00     0.099 C 
HETATM    7  N   UNL     1       3.622  30.429  58.023  1.00  0.00    -0.192 NA
HETATM    8  C   UNL     1       5.079  28.263  55.640  1.00  0.00     0.130 C 
HETATM    9  C   UNL     1       5.254  27.698  54.229  1.00  0.00     0.048 C 
HETATM   10  H   UNL     1       4.483  30.359  52.532  1.00  0.00     0.166 HD
ENDROOT
BRANCH   4  11
HETATM   11  S   UNL     1       3.580  32.009  54.655  1.00  0.00    -0.102 SA
BRANCH  11  12
HETATM   12  C   UNL     1       4.994  33.094  54.984  1.00  0.00     0.183 C 
BRANCH  12  13
HETATM   13  C   UNL     1       4.786  34.018  56.170  1.00  0.00     0.227 C 
HETATM   14  N   UNL     1       4.099  33.495  57.240  1.00  0.00    -0.356 N 
HETATM   15  H   UNL     1       3.454  32.737  57.046  1.00  0.00     0.162 HD
HETATM   16  O   UNL     1       5.303  35.134  56.195  1.00  0.00    -0.273 OA
BRANCH  14  17
HETATM   17  C   UNL     1       3.857  34.306  58.413  1.00  0.00     0.161 C 
BRANCH  17  18
HETATM   18  C   UNL     1       4.168  33.609  59.713  1.00  0.00    -0.041 A 
HETATM   19  C   UNL     1       5.402  32.990  59.965  1.00  0.00     0.009 A 
HETATM   20  C   UNL     1       5.663  32.397  61.202  1.00  0.00     0.001 A 
HETATM   21  C   UNL     1       4.705  32.435  62.213  1.00  0.00     0.000 A 
HETATM   22  C   UNL     1       3.486  33.068  61.989  1.00  0.00     0.001 A 
HETATM   23  C   UNL     1       3.220  33.653  60.749  1.00  0.00     0.009 A 
ENDBRANCH  17  18
ENDBRANCH  14  17
ENDBRANCH  12  13
ENDBRANCH  11  12
ENDBRANCH   4  11
BRANCH   8  24
HETATM   24  C   UNL     1       6.373  28.215  56.415  1.00  0.00     0.066 A 
HETATM   25  O   UNL     1       6.571  27.107  57.184  1.00  0.00    -0.326 OA
HETATM   26  C   UNL     1       7.781  27.247  57.781  1.00  0.00     0.142 A 
HETATM   27  C   UNL     1       8.369  28.431  57.403  1.00  0.00     0.027 A 
HETATM   28  C   UNL     1       7.460  29.059  56.516  1.00  0.00     0.035 A 
ENDBRANCH   8  24
BRANCH   9  29
HETATM   29  C   UNL     1       5.515  26.219  54.024  1.00  0.00     0.255 C 
HETATM   30  N   UNL     1       6.757  25.745  54.399  1.00  0.00    -0.322 N 
HETATM   31  H   UNL     1       7.462  26.389  54.743  1.00  0.00     0.169 HD
HETATM   32  O   UNL     1       4.623  25.494  53.590  1.00  0.00    -0.268 OA
BRANCH  30  33
HETATM   33  C   UNL     1       7.203  24.392  54.387  1.00  0.00     0.057 A 
HETATM   34  C   UNL     1       7.743  23.871  53.192  1.00  0.00     0.062 A 
HETATM   35 CL   UNL     1       7.890  24.851  51.774  1.00  0.00    -0.082 Cl
HETATM   36  C   UNL     1       8.209  22.554  53.117  1.00  0.00     0.050 A 
HETATM   37  C   UNL     1       8.136  21.738  54.240  1.00  0.00     0.035 A 
HETATM   38 CL   UNL     1       8.712  20.120  54.162  1.00  0.00    -0.084 Cl
HETATM   39  C   UNL     1       7.603  22.227  55.427  1.00  0.00     0.026 A 
HETATM   40  C   UNL     1       7.140  23.546  55.499  1.00  0.00     0.033 A 
ENDBRANCH  30  33
ENDBRANCH   9  29
TORSDOF 8
ENDMDL
MODEL 10
REMARK VINA RESULT:      -9.1      4.876      8.487
REMARK  8 active torsions:
REMARK  status: ('A' for Active; 'I' for Inactive)
REMARK    1  A    between atoms: C_4  and  S_5 
REMARK    2  A    between atoms: S_5  and  C_6 
REMARK    3  A    between atoms: C_6  and  C_7 
REMARK       I    between atoms: C_7  and  N_8 
REMARK    4  A    between atoms: N_8  and  C_9 
REMARK    5  A    between atoms: C_9  and  C_10 
REMARK    6  A    between atoms: C_20  and  C_21 
REMARK    7  A    between atoms: C_26  and  C_27 
REMARK       I    between atoms: C_27  and  N_28 
REMARK    8  A    between atoms: N_28  and  C_29 
ROOT
HETATM    1  C   UNL     1       4.588  27.524  53.468  1.00  0.00     0.069 C 
HETATM    2  C   UNL     1       5.054  28.514  54.511  1.00  0.00     0.019 C 
HETATM    3  N   UNL     1       4.763  29.839  54.218  1.00  0.00    -0.353 N 
HETATM    4  C   UNL     1       4.899  30.905  55.091  1.00  0.00     0.088 C 
HETATM    5  C   UNL     1       5.564  30.700  56.253  1.00  0.00     0.071 C 
HETATM    6  C   UNL     1       5.734  31.714  57.247  1.00  0.00     0.099 C 
HETATM    7  N   UNL     1       5.880  32.517  58.071  1.00  0.00    -0.192 NA
HETATM    8  C   UNL     1       6.170  29.326  56.578  1.00  0.00     0.130 C 
HETATM    9  C   UNL     1       5.698  28.195  55.664  1.00  0.00     0.048 C 
HETATM   10  H   UNL     1       4.102  29.972  53.461  1.00  0.00     0.166 HD
ENDROOT
BRANCH   4  11
HETATM   11  S   UNL     1       4.207  32.496  54.749  1.00  0.00    -0.102 SA
BRANCH  11  12
HETATM   12  C   UNL     1       2.677  32.093  53.864  1.00  0.00     0.183 C 
BRANCH  12  13
HETATM   13  C   UNL     1       2.852  32.009  52.359  1.00  0.00     0.227 C 
HETATM   14  N   UNL     1       2.346  30.887  51.745  1.00  0.00    -0.356 N 
HETATM   15  H   UNL     1       2.266  30.049  52.312  1.00  0.00     0.162 HD
HETATM   16  O   UNL     1       3.330  32.952  51.729  1.00  0.00    -0.273 OA
BRANCH  14  17
HETATM   17  C   UNL     1       2.469  30.727  50.313  1.00  0.00     0.161 C 
BRANCH  17  18
HETATM   18  C   UNL     1       3.200  29.475  49.898  1.00  0.00    -0.041 A 
HETATM   19  C   UNL     1       2.574  28.426  49.208  1.00  0.00     0.009 A 
HETATM   20  C   UNL     1       3.303  27.306  48.802  1.00  0.00     0.001 A 
HETATM   21  C   UNL     1       4.670  27.229  49.057  1.00  0.00     0.000 A 
HETATM   22  C   UNL     1       5.312  28.273  49.717  1.00  0.00     0.001 A 
HETATM   23  C   UNL     1       4.583  29.389  50.132  1.00  0.00     0.009 A 
ENDBRANCH  17  18
ENDBRANCH  14  17
ENDBRANCH  12  13
ENDBRANCH  11  12
ENDBRANCH   4  11
BRANCH   8  24
HETATM   24  C   UNL     1       7.676  29.388  56.644  1.00  0.00     0.066 A 
HETATM   25  O   UNL     1       8.213  29.611  57.877  1.00  0.00    -0.326 OA
HETATM   26  C   UNL     1       9.562  29.617  57.729  1.00  0.00     0.142 A 
HETATM   27  C   UNL     1       9.902  29.395  56.415  1.00  0.00     0.027 A 
HETATM   28  C   UNL     1       8.682  29.244  55.711  1.00  0.00     0.035 A 
ENDBRANCH   8  24
BRANCH   9  29
HETATM   29  C   UNL     1       5.906  26.748  56.067  1.00  0.00     0.255 C 
HETATM   30  N   UNL     1       6.928  26.064  55.440  1.00  0.00    -0.322 N 
HETATM   31  H   UNL     1       7.466  26.517  54.708  1.00  0.00     0.169 HD
HETATM   32  O   UNL     1       5.212  26.254  56.951  1.00  0.00    -0.268 OA
BRANCH  30  33
HETATM   33  C   UNL     1       7.371  24.738  55.709  1.00  0.00     0.057 A 
HETATM   34  C   UNL     1       7.164  23.745  54.729  1.00  0.00     0.062 A 
HETATM   35 CL   UNL     1       6.414  24.124  53.216  1.00  0.00    -0.082 Cl
HETATM   36  C   UNL     1       7.586  22.426  54.927  1.00  0.00     0.050 A 
HETATM   37  C   UNL     1       8.218  22.081  56.116  1.00  0.00     0.035 A 
HETATM   38 CL   UNL     1       8.745  20.464  56.368  1.00  0.00    -0.084 Cl
HETATM   39  C   UNL     1       8.428  23.040  57.100  1.00  0.00     0.026 A 
HETATM   40  C   UNL     1       8.007  24.360  56.897  1.00  0.00     0.033 A 
ENDBRANCH  30  33
ENDBRANCH   9  29
TORSDOF 8
ENDMDL
