MODEL 1
REMARK VINA RESULT:     -10.7      0.000      0.000
REMARK  12 active torsions:
REMARK  status: ('A' for Active; 'I' for Inactive)
REMARK    1  A    between atoms: C_2  and  N_3 
REMARK    2  A    between atoms: N_3  and  C_5 
REMARK    3  A    between atoms: N_3  and  C_25 
REMARK    4  A    between atoms: C_7  and  C_8 
REMARK    5  A    between atoms: C_8  and  C_9 
REMARK    6  A    between atoms: C_9  and  C_10 
REMARK    7  A    between atoms: C_18  and  C_19 
REMARK    8  A    between atoms: C_25  and  C_26 
REMARK    9  A    between atoms: C_28  and  N_29 
REMARK   10  A    between atoms: C_32  and  N_33 
REMARK   11  A    between atoms: C_39  and  O_40 
REMARK   12  A    between atoms: C_41  and  O_42 
ROOT
HETATM    1  N   UNL     1       5.500  29.224  54.850  1.00  0.00    -0.061 N 
HETATM    2  H   UNL     1       6.157  29.191  54.057  1.00  0.00     0.280 HD
ENDROOT
BRANCH   1   3
HETATM    3  C   UNL     1       4.280  30.019  54.379  1.00  0.00     0.180 C 
HETATM    4  C   UNL     1       4.043  29.864  52.880  1.00  0.00     0.039 C 
HETATM    5  C   UNL     1       4.307  31.484  54.805  1.00  0.00     0.039 C 
ENDBRANCH   1   3
BRANCH   1   6
HETATM    6  C   UNL     1       6.156  29.869  56.045  1.00  0.00     0.189 C 
HETATM    7  C   UNL     1       5.832  29.197  57.414  1.00  0.00     0.038 C 
HETATM    8  C   UNL     1       7.310  29.417  57.821  1.00  0.00    -0.010 C 
HETATM    9  C   UNL     1       7.624  29.425  56.304  1.00  0.00     0.038 C 
BRANCH   8  10
HETATM   10  C   UNL     1       7.679  30.712  58.547  1.00  0.00     0.012 C 
BRANCH  10  11
HETATM   11  C   UNL     1       8.471  30.425  59.826  1.00  0.00     0.079 C 
BRANCH  11  12
HETATM   12  C   UNL     1       7.972  31.258  60.957  1.00  0.00     0.105 A 
HETATM   13  N   UNL     1       8.647  31.597  62.037  1.00  0.00    -0.233 NA
HETATM   14  C   UNL     1       7.775  32.339  62.800  1.00  0.00     0.085 A 
HETATM   15  C   UNL     1       6.548  32.466  62.167  1.00  0.00     0.063 A 
HETATM   16  C   UNL     1       7.953  32.937  64.051  1.00  0.00     0.034 A 
HETATM   17  N   UNL     1       6.701  31.778  60.990  1.00  0.00    -0.343 N 
HETATM   18  C   UNL     1       5.470  33.169  62.713  1.00  0.00     0.039 A 
HETATM   19  H   UNL     1       5.991  31.667  60.281  1.00  0.00     0.167 HD
HETATM   20  C   UNL     1       5.636  33.775  63.979  1.00  0.00    -0.048 A 
HETATM   21  C   UNL     1       6.882  33.646  64.624  1.00  0.00     0.010 A 
BRANCH  20  22
HETATM   22  C   UNL     1       4.461  34.554  64.606  1.00  0.00    -0.024 C 
HETATM   23  C   UNL     1       4.661  36.086  64.627  1.00  0.00     0.019 C 
HETATM   24  C   UNL     1       3.170  34.273  63.805  1.00  0.00     0.019 C 
HETATM   25  C   UNL     1       4.257  34.103  66.070  1.00  0.00     0.019 C 
ENDBRANCH  20  22
ENDBRANCH  11  12
ENDBRANCH  10  11
ENDBRANCH   8  10
ENDBRANCH   1   6
BRANCH   1  26
HETATM   26  C   UNL     1       5.217  27.756  55.206  1.00  0.00     0.270 C 
BRANCH  26  27
HETATM   27  C   UNL     1       5.889  26.799  54.215  1.00  0.00     0.181 C 
HETATM   28  O   UNL     1       7.044  26.159  54.791  1.00  0.00    -0.354 OA
HETATM   29  C   UNL     1       7.285  24.978  53.962  1.00  0.00     0.262 C 
HETATM   30  C   UNL     1       5.992  24.694  53.168  1.00  0.00     0.198 C 
HETATM   31  C   UNL     1       4.990  25.647  53.806  1.00  0.00     0.181 C 
BRANCH  29  32
HETATM   32  N   UNL     1       7.713  23.864  54.779  1.00  0.00    -0.294 N 
HETATM   33  C   UNL     1       7.966  22.617  54.277  1.00  0.00     0.167 A 
HETATM   34  C   UNL     1       8.391  21.871  55.363  1.00  0.00     0.149 A 
HETATM   35  N   UNL     1       7.825  22.214  53.003  1.00  0.00    -0.222 NA
HETATM   36  C   UNL     1       8.739  20.534  55.106  1.00  0.00     0.155 A 
HETATM   37  N   UNL     1       8.371  22.641  56.511  1.00  0.00    -0.236 NA
HETATM   38  N   UNL     1       8.609  20.070  53.841  1.00  0.00    -0.222 NA
HETATM   39  C   UNL     1       8.178  20.914  52.880  1.00  0.00     0.237 A 
HETATM   40  C   UNL     1       7.972  23.833  56.119  1.00  0.00     0.214 A 
BRANCH  36  41
HETATM   41  N   UNL     1       9.199  19.663  56.079  1.00  0.00    -0.382 N 
HETATM   42  H   UNL     1       8.822  18.725  56.025  1.00  0.00     0.157 HD
HETATM   43  H   UNL     1      10.188  19.767  56.266  1.00  0.00     0.157 HD
ENDBRANCH  36  41
ENDBRANCH  29  32
BRANCH  30  44
HETATM   44  O   UNL     1       6.139  25.065  51.788  1.00  0.00    -0.388 OA
HETATM   45  H   UNL     1       5.244  25.039  51.390  1.00  0.00     0.210 HD
ENDBRANCH  30  44
BRANCH  31  46
HETATM   46  O   UNL     1       3.969  26.076  52.927  1.00  0.00    -0.390 OA
HETATM   47  H   UNL     1       3.488  25.267  52.642  1.00  0.00     0.210 HD
ENDBRANCH  31  46
ENDBRANCH  26  27
ENDBRANCH   1  26
TORSDOF 12
ENDMDL
MODEL 2
REMARK VINA RESULT:     -10.5      3.615     12.600
REMARK  12 active torsions:
REMARK  status: ('A' for Active; 'I' for Inactive)
REMARK    1  A    between atoms: C_2  and  N_3 
REMARK    2  A    between atoms: N_3  and  C_5 
REMARK    3  A    between atoms: N_3  and  C_25 
REMARK    4  A    between atoms: C_7  and  C_8 
REMARK    5  A    between atoms: C_8  and  C_9 
REMARK    6  A    between atoms: C_9  and  C_10 
REMARK    7  A    between atoms: C_18  and  C_19 
REMARK    8  A    between atoms: C_25  and  C_26 
REMARK    9  A    between atoms: C_28  and  N_29 
REMARK   10  A    between atoms: C_32  and  N_33 
REMARK   11  A    between atoms: C_39  and  O_40 
REMARK   12  A    between atoms: C_41  and  O_42 
ROOT
HETATM    1  N   UNL     1       5.125  31.580  59.003  1.00  0.00    -0.061 N 
HETATM    2  H   UNL     1       5.410  30.940  59.760  1.00  0.00     0.280 HD
ENDROOT
BRANCH   1   3
HETATM    3  C   UNL     1       3.685  32.001  59.302  1.00  0.00     0.180 C 
HETATM    4  C   UNL     1       3.486  33.505  59.145  1.00  0.00     0.039 C 
HETATM    5  C   UNL     1       3.169  31.494  60.645  1.00  0.00     0.039 C 
ENDBRANCH   1   3
BRANCH   1   6
HETATM    6  C   UNL     1       5.238  30.891  57.667  1.00  0.00     0.189 C 
HETATM    7  C   UNL     1       5.601  29.376  57.739  1.00  0.00     0.038 C 
HETATM    8  C   UNL     1       4.596  29.128  56.587  1.00  0.00    -0.010 C 
HETATM    9  C   UNL     1       3.887  30.422  57.057  1.00  0.00     0.038 C 
BRANCH   8  10
HETATM   10  C   UNL     1       5.114  29.180  55.148  1.00  0.00     0.012 C 
BRANCH  10  11
HETATM   11  C   UNL     1       4.380  28.174  54.256  1.00  0.00     0.079 C 
BRANCH  11  12
HETATM   12  C   UNL     1       5.247  27.001  53.953  1.00  0.00     0.105 A 
HETATM   13  N   UNL     1       5.923  26.794  52.841  1.00  0.00    -0.233 NA
HETATM   14  C   UNL     1       6.548  25.579  53.009  1.00  0.00     0.085 A 
HETATM   15  C   UNL     1       6.258  25.042  54.254  1.00  0.00     0.063 A 
HETATM   16  C   UNL     1       7.379  24.863  52.142  1.00  0.00     0.034 A 
HETATM   17  N   UNL     1       5.437  25.970  54.841  1.00  0.00    -0.343 N 
HETATM   18  C   UNL     1       6.757  23.813  54.696  1.00  0.00     0.039 A 
HETATM   19  H   UNL     1       5.033  25.894  55.763  1.00  0.00     0.167 HD
HETATM   20  C   UNL     1       7.595  23.077  53.827  1.00  0.00    -0.048 A 
HETATM   21  C   UNL     1       7.890  23.622  52.561  1.00  0.00     0.010 A 
BRANCH  20  22
HETATM   22  C   UNL     1       8.158  21.716  54.289  1.00  0.00    -0.024 C 
HETATM   23  C   UNL     1       7.388  21.086  55.472  1.00  0.00     0.019 C 
HETATM   24  C   UNL     1       8.099  20.710  53.118  1.00  0.00     0.019 C 
HETATM   25  C   UNL     1       9.625  21.884  54.741  1.00  0.00     0.019 C 
ENDBRANCH  20  22
ENDBRANCH  11  12
ENDBRANCH  10  11
ENDBRANCH   8  10
ENDBRANCH   1   6
BRANCH   1  26
HETATM   26  C   UNL     1       6.152  32.724  59.030  1.00  0.00     0.270 C 
BRANCH  26  27
HETATM   27  C   UNL     1       6.884  32.789  60.375  1.00  0.00     0.181 C 
HETATM   28  O   UNL     1       6.267  33.731  61.273  1.00  0.00    -0.354 OA
HETATM   29  C   UNL     1       6.736  33.356  62.607  1.00  0.00     0.262 C 
HETATM   30  C   UNL     1       7.278  31.913  62.523  1.00  0.00     0.198 C 
HETATM   31  C   UNL     1       6.846  31.474  61.131  1.00  0.00     0.181 C 
BRANCH  29  32
HETATM   32  N   UNL     1       5.678  33.516  63.580  1.00  0.00    -0.294 N 
HETATM   33  C   UNL     1       5.906  33.777  64.904  1.00  0.00     0.167 A 
HETATM   34  C   UNL     1       4.649  33.905  65.467  1.00  0.00     0.149 A 
HETATM   35  N   UNL     1       7.099  33.882  65.513  1.00  0.00    -0.222 NA
HETATM   36  C   UNL     1       4.606  34.199  66.841  1.00  0.00     0.155 A 
HETATM   37  N   UNL     1       3.671  33.698  64.512  1.00  0.00    -0.236 NA
HETATM   38  N   UNL     1       5.778  34.308  67.510  1.00  0.00    -0.222 NA
HETATM   39  C   UNL     1       6.932  34.155  66.827  1.00  0.00     0.237 A 
HETATM   40  C   UNL     1       4.326  33.481  63.391  1.00  0.00     0.214 A 
BRANCH  36  41
HETATM   41  N   UNL     1       3.429  34.375  67.549  1.00  0.00    -0.382 N 
HETATM   42  H   UNL     1       2.585  34.322  66.994  1.00  0.00     0.157 HD
HETATM   43  H   UNL     1       3.436  33.909  68.448  1.00  0.00     0.157 HD
ENDBRANCH  36  41
ENDBRANCH  29  32
BRANCH  30  44
HETATM   44  O   UNL     1       8.713  31.894  62.569  1.00  0.00    -0.388 OA
HETATM   45  H   UNL     1       9.028  31.887  61.641  1.00  0.00     0.210 HD
ENDBRANCH  30  44
BRANCH  31  46
HETATM   46  O   UNL     1       7.704  30.516  60.542  1.00  0.00    -0.390 OA
HETATM   47  H   UNL     1       7.454  29.645  60.925  1.00  0.00     0.210 HD
ENDBRANCH  31  46
ENDBRANCH  26  27
ENDBRANCH   1  26
TORSDOF 12
ENDMDL
MODEL 3
REMARK VINA RESULT:     -10.4      3.582     12.759
REMARK  12 active torsions:
REMARK  status: ('A' for Active; 'I' for Inactive)
REMARK    1  A    between atoms: C_2  and  N_3 
REMARK    2  A    between atoms: N_3  and  C_5 
REMARK    3  A    between atoms: N_3  and  C_25 
REMARK    4  A    between atoms: C_7  and  C_8 
REMARK    5  A    between atoms: C_8  and  C_9 
REMARK    6  A    between atoms: C_9  and  C_10 
REMARK    7  A    between atoms: C_18  and  C_19 
REMARK    8  A    between atoms: C_25  and  C_26 
REMARK    9  A    between atoms: C_28  and  N_29 
REMARK   10  A    between atoms: C_32  and  N_33 
REMARK   11  A    between atoms: C_39  and  O_40 
REMARK   12  A    between atoms: C_41  and  O_42 
ROOT
HETATM    1  N   UNL     1       6.749  31.548  58.186  1.00  0.00    -0.061 N 
HETATM    2  H   UNL     1       7.333  32.055  57.503  1.00  0.00     0.280 HD
ENDROOT
BRANCH   1   3
HETATM    3  C   UNL     1       7.699  30.977  59.241  1.00  0.00     0.180 C 
HETATM    4  C   UNL     1       8.820  31.953  59.586  1.00  0.00     0.039 C 
HETATM    5  C   UNL     1       8.235  29.592  58.891  1.00  0.00     0.039 C 
ENDBRANCH   1   3
BRANCH   1   6
HETATM    6  C   UNL     1       5.966  30.460  57.495  1.00  0.00     0.189 C 
HETATM    7  C   UNL     1       4.722  30.954  56.696  1.00  0.00     0.038 C 
HETATM    8  C   UNL     1       5.080  29.927  55.593  1.00  0.00    -0.010 C 
HETATM    9  C   UNL     1       6.534  30.018  56.117  1.00  0.00     0.038 C 
BRANCH   8  10
HETATM   10  C   UNL     1       4.467  28.528  55.676  1.00  0.00     0.012 C 
BRANCH  10  11
HETATM   11  C   UNL     1       4.186  27.960  54.282  1.00  0.00     0.079 C 
BRANCH  11  12
HETATM   12  C   UNL     1       5.107  26.831  53.972  1.00  0.00     0.105 A 
HETATM   13  N   UNL     1       5.806  26.670  52.866  1.00  0.00    -0.233 NA
HETATM   14  C   UNL     1       6.480  25.482  53.025  1.00  0.00     0.085 A 
HETATM   15  C   UNL     1       6.199  24.913  54.257  1.00  0.00     0.063 A 
HETATM   16  C   UNL     1       7.353  24.815  52.158  1.00  0.00     0.034 A 
HETATM   17  N   UNL     1       5.330  25.795  54.847  1.00  0.00    -0.343 N 
HETATM   18  C   UNL     1       6.745  23.700  54.689  1.00  0.00     0.039 A 
HETATM   19  H   UNL     1       4.919  25.688  55.763  1.00  0.00     0.167 HD
HETATM   20  C   UNL     1       7.626  23.015  53.820  1.00  0.00    -0.048 A 
HETATM   21  C   UNL     1       7.912  23.591  52.566  1.00  0.00     0.010 A 
BRANCH  20  22
HETATM   22  C   UNL     1       8.241  21.673  54.269  1.00  0.00    -0.024 C 
HETATM   23  C   UNL     1       9.720  21.773  54.706  1.00  0.00     0.019 C 
HETATM   24  C   UNL     1       7.446  21.119  55.472  1.00  0.00     0.019 C 
HETATM   25  C   UNL     1       8.179  20.655  53.108  1.00  0.00     0.019 C 
ENDBRANCH  20  22
ENDBRANCH  11  12
ENDBRANCH  10  11
ENDBRANCH   8  10
ENDBRANCH   1   6
BRANCH   1  26
HETATM   26  C   UNL     1       5.746  32.586  58.713  1.00  0.00     0.270 C 
BRANCH  26  27
HETATM   27  C   UNL     1       5.267  32.236  60.126  1.00  0.00     0.181 C 
HETATM   28  O   UNL     1       5.964  33.000  61.130  1.00  0.00    -0.354 OA
HETATM   29  C   UNL     1       5.119  32.932  62.322  1.00  0.00     0.262 C 
HETATM   30  C   UNL     1       3.709  32.495  61.871  1.00  0.00     0.198 C 
HETATM   31  C   UNL     1       3.805  32.571  60.353  1.00  0.00     0.181 C 
BRANCH  29  32
HETATM   32  N   UNL     1       5.131  34.197  63.024  1.00  0.00    -0.294 N 
HETATM   33  C   UNL     1       4.933  34.310  64.373  1.00  0.00     0.167 A 
HETATM   34  C   UNL     1       5.071  35.660  64.645  1.00  0.00     0.149 A 
HETATM   35  N   UNL     1       4.661  33.318  65.236  1.00  0.00    -0.222 NA
HETATM   36  C   UNL     1       4.930  36.045  65.989  1.00  0.00     0.155 A 
HETATM   37  N   UNL     1       5.320  36.361  63.479  1.00  0.00    -0.236 NA
HETATM   38  N   UNL     1       4.647  35.089  66.904  1.00  0.00    -0.222 NA
HETATM   39  C   UNL     1       4.537  33.807  66.491  1.00  0.00     0.237 A 
HETATM   40  C   UNL     1       5.363  35.449  62.531  1.00  0.00     0.214 A 
BRANCH  36  41
HETATM   41  N   UNL     1       5.056  37.353  66.427  1.00  0.00    -0.382 N 
HETATM   42  H   UNL     1       5.735  37.909  65.922  1.00  0.00     0.157 HD
HETATM   43  H   UNL     1       4.167  37.780  66.656  1.00  0.00     0.157 HD
ENDBRANCH  36  41
ENDBRANCH  29  32
BRANCH  30  44
HETATM   44  O   UNL     1       3.449  31.129  62.231  1.00  0.00    -0.388 OA
HETATM   45  H   UNL     1       3.717  31.027  63.168  1.00  0.00     0.210 HD
ENDBRANCH  30  44
BRANCH  31  46
HETATM   46  O   UNL     1       2.957  31.660  59.681  1.00  0.00    -0.390 OA
HETATM   47  H   UNL     1       2.563  31.082  60.373  1.00  0.00     0.210 HD
ENDBRANCH  31  46
ENDBRANCH  26  27
ENDBRANCH   1  26
TORSDOF 12
ENDMDL
MODEL 4
REMARK VINA RESULT:     -10.3      1.897      3.115
REMARK  12 active torsions:
REMARK  status: ('A' for Active; 'I' for Inactive)
REMARK    1  A    between atoms: C_2  and  N_3 
REMARK    2  A    between atoms: N_3  and  C_5 
REMARK    3  A    between atoms: N_3  and  C_25 
REMARK    4  A    between atoms: C_7  and  C_8 
REMARK    5  A    between atoms: C_8  and  C_9 
REMARK    6  A    between atoms: C_9  and  C_10 
REMARK    7  A    between atoms: C_18  and  C_19 
REMARK    8  A    between atoms: C_25  and  C_26 
REMARK    9  A    between atoms: C_28  and  N_29 
REMARK   10  A    between atoms: C_32  and  N_33 
REMARK   11  A    between atoms: C_39  and  O_40 
REMARK   12  A    between atoms: C_41  and  O_42 
ROOT
HETATM    1  N   UNL     1       6.159  28.537  56.292  1.00  0.00    -0.061 N 
HETATM    2  H   UNL     1       7.125  28.182  56.225  1.00  0.00     0.280 HD
ENDROOT
BRANCH   1   3
HETATM    3  C   UNL     1       5.707  28.856  54.866  1.00  0.00     0.180 C 
HETATM    4  C   UNL     1       4.247  28.479  54.632  1.00  0.00     0.039 C 
HETATM    5  C   UNL     1       6.624  28.278  53.792  1.00  0.00     0.039 C 
ENDBRANCH   1   3
BRANCH   1   6
HETATM    6  C   UNL     1       6.111  29.756  57.177  1.00  0.00     0.189 C 
HETATM    7  C   UNL     1       5.799  31.092  56.437  1.00  0.00     0.038 C 
HETATM    8  C   UNL     1       4.907  31.496  57.636  1.00  0.00    -0.010 C 
HETATM    9  C   UNL     1       4.758  29.979  57.910  1.00  0.00     0.038 C 
BRANCH   8  10
HETATM   10  C   UNL     1       5.544  32.284  58.783  1.00  0.00     0.012 C 
BRANCH  10  11
HETATM   11  C   UNL     1       4.478  32.915  59.684  1.00  0.00     0.079 C 
BRANCH  11  12
HETATM   12  C   UNL     1       5.007  33.135  61.059  1.00  0.00     0.105 A 
HETATM   13  N   UNL     1       6.208  32.814  61.497  1.00  0.00    -0.233 NA
HETATM   14  C   UNL     1       6.228  33.181  62.822  1.00  0.00     0.085 A 
HETATM   15  C   UNL     1       5.021  33.751  63.197  1.00  0.00     0.063 A 
HETATM   16  C   UNL     1       7.241  33.058  63.779  1.00  0.00     0.034 A 
HETATM   17  N   UNL     1       4.263  33.720  62.055  1.00  0.00    -0.343 N 
HETATM   18  C   UNL     1       4.758  34.217  64.489  1.00  0.00     0.039 A 
HETATM   19  H   UNL     1       3.316  34.059  61.972  1.00  0.00     0.167 HD
HETATM   20  C   UNL     1       5.773  34.095  65.466  1.00  0.00    -0.048 A 
HETATM   21  C   UNL     1       7.000  33.515  65.087  1.00  0.00     0.010 A 
BRANCH  20  22
HETATM   22  C   UNL     1       5.508  34.598  66.901  1.00  0.00    -0.024 C 
HETATM   23  C   UNL     1       6.726  34.481  67.844  1.00  0.00     0.019 C 
HETATM   24  C   UNL     1       5.106  36.090  66.857  1.00  0.00     0.019 C 
HETATM   25  C   UNL     1       4.361  33.782  67.537  1.00  0.00     0.019 C 
ENDBRANCH  20  22
ENDBRANCH  11  12
ENDBRANCH  10  11
ENDBRANCH   8  10
ENDBRANCH   1   6
BRANCH   1  26
HETATM   26  C   UNL     1       5.364  27.420  56.987  1.00  0.00     0.270 C 
BRANCH  26  27
HETATM   27  C   UNL     1       6.264  26.234  57.352  1.00  0.00     0.181 C 
HETATM   28  O   UNL     1       5.911  25.049  56.613  1.00  0.00    -0.354 OA
HETATM   29  C   UNL     1       7.088  24.183  56.687  1.00  0.00     0.262 C 
HETATM   30  C   UNL     1       8.289  25.062  57.098  1.00  0.00     0.198 C 
HETATM   31  C   UNL     1       7.722  26.471  57.001  1.00  0.00     0.181 C 
BRANCH  29  32
HETATM   32  N   UNL     1       7.287  23.490  55.433  1.00  0.00    -0.294 N 
HETATM   33  C   UNL     1       7.792  22.221  55.347  1.00  0.00     0.167 A 
HETATM   34  C   UNL     1       7.773  21.917  53.997  1.00  0.00     0.149 A 
HETATM   35  N   UNL     1       8.213  21.448  56.362  1.00  0.00    -0.222 NA
HETATM   36  C   UNL     1       8.232  20.638  53.637  1.00  0.00     0.155 A 
HETATM   37  N   UNL     1       7.293  22.991  53.270  1.00  0.00    -0.236 NA
HETATM   38  N   UNL     1       8.678  19.818  54.618  1.00  0.00    -0.222 NA
HETATM   39  C   UNL     1       8.639  20.252  55.896  1.00  0.00     0.237 A 
HETATM   40  C   UNL     1       6.999  23.909  54.166  1.00  0.00     0.214 A 
BRANCH  36  41
HETATM   41  N   UNL     1       8.261  20.175  52.333  1.00  0.00    -0.382 N 
HETATM   42  H   UNL     1       7.380  20.236  51.839  1.00  0.00     0.157 HD
HETATM   43  H   UNL     1       9.103  20.442  51.838  1.00  0.00     0.157 HD
ENDBRANCH  36  41
ENDBRANCH  29  32
BRANCH  30  44
HETATM   44  O   UNL     1       8.660  24.826  58.466  1.00  0.00    -0.388 OA
HETATM   45  H   UNL     1       7.829  24.791  58.984  1.00  0.00     0.210 HD
ENDBRANCH  30  44
BRANCH  31  46
HETATM   46  O   UNL     1       8.323  27.392  57.891  1.00  0.00    -0.390 OA
HETATM   47  H   UNL     1       9.273  27.145  57.947  1.00  0.00     0.210 HD
ENDBRANCH  31  46
ENDBRANCH  26  27
ENDBRANCH   1  26
TORSDOF 12
ENDMDL
MODEL 5
REMARK VINA RESULT:     -10.2      3.703     12.654
REMARK  12 active torsions:
REMARK  status: ('A' for Active; 'I' for Inactive)
REMARK    1  A    between atoms: C_2  and  N_3 
REMARK    2  A    between atoms: N_3  and  C_5 
REMARK    3  A    between atoms: N_3  and  C_25 
REMARK    4  A    between atoms: C_7  and  C_8 
REMARK    5  A    between atoms: C_8  and  C_9 
REMARK    6  A    between atoms: C_9  and  C_10 
REMARK    7  A    between atoms: C_18  and  C_19 
REMARK    8  A    between atoms: C_25  and  C_26 
REMARK    9  A    between atoms: C_28  and  N_29 
REMARK   10  A    between atoms: C_32  and  N_33 
REMARK   11  A    between atoms: C_39  and  O_40 
REMARK   12  A    between atoms: C_41  and  O_42 
ROOT
HETATM    1  N   UNL     1       4.590  32.587  57.689  1.00  0.00    -0.061 N 
HETATM    2  H   UNL     1       3.744  32.359  58.234  1.00  0.00     0.280 HD
ENDROOT
BRANCH   1   3
HETATM    3  C   UNL     1       4.394  34.003  57.143  1.00  0.00     0.180 C 
HETATM    4  C   UNL     1       2.939  34.453  57.234  1.00  0.00     0.039 C 
HETATM    5  C   UNL     1       4.966  34.199  55.743  1.00  0.00     0.039 C 
ENDBRANCH   1   3
BRANCH   1   6
HETATM    6  C   UNL     1       4.781  31.584  56.580  1.00  0.00     0.189 C 
HETATM    7  C   UNL     1       5.308  30.190  57.039  1.00  0.00     0.038 C 
HETATM    8  C   UNL     1       4.339  29.539  56.020  1.00  0.00    -0.010 C 
HETATM    9  C   UNL     1       3.491  30.829  56.152  1.00  0.00     0.038 C 
BRANCH   8  10
HETATM   10  C   UNL     1       4.850  29.263  54.605  1.00  0.00     0.012 C 
BRANCH  10  11
HETATM   11  C   UNL     1       4.128  28.067  53.977  1.00  0.00     0.079 C 
BRANCH  11  12
HETATM   12  C   UNL     1       5.074  26.940  53.741  1.00  0.00     0.105 A 
HETATM   13  N   UNL     1       5.823  26.757  52.673  1.00  0.00    -0.233 NA
HETATM   14  C   UNL     1       6.502  25.581  52.895  1.00  0.00     0.085 A 
HETATM   15  C   UNL     1       6.170  25.043  54.128  1.00  0.00     0.063 A 
HETATM   16  C   UNL     1       7.419  24.900  52.087  1.00  0.00     0.034 A 
HETATM   17  N   UNL     1       5.267  25.931  54.654  1.00  0.00    -0.343 N 
HETATM   18  C   UNL     1       6.708  23.849  54.617  1.00  0.00     0.039 A 
HETATM   19  H   UNL     1       4.816  25.844  55.552  1.00  0.00     0.167 HD
HETATM   20  C   UNL     1       7.634  23.149  53.809  1.00  0.00    -0.048 A 
HETATM   21  C   UNL     1       7.971  23.694  52.554  1.00  0.00     0.010 A 
BRANCH  20  22
HETATM   22  C   UNL     1       8.241  21.827  54.323  1.00  0.00    -0.024 C 
HETATM   23  C   UNL     1       8.400  20.742  53.234  1.00  0.00     0.019 C 
HETATM   24  C   UNL     1       9.646  22.097  54.906  1.00  0.00     0.019 C 
HETATM   25  C   UNL     1       7.339  21.233  55.427  1.00  0.00     0.019 C 
ENDBRANCH  20  22
ENDBRANCH  11  12
ENDBRANCH  10  11
ENDBRANCH   8  10
ENDBRANCH   1   6
BRANCH   1  26
HETATM   26  C   UNL     1       5.762  32.429  58.671  1.00  0.00     0.270 C 
BRANCH  26  27
HETATM   27  C   UNL     1       5.268  32.113  60.087  1.00  0.00     0.181 C 
HETATM   28  O   UNL     1       5.980  32.874  61.083  1.00  0.00    -0.354 OA
HETATM   29  C   UNL     1       5.128  32.846  62.271  1.00  0.00     0.262 C 
HETATM   30  C   UNL     1       3.709  32.439  61.820  1.00  0.00     0.198 C 
HETATM   31  C   UNL     1       3.813  32.489  60.302  1.00  0.00     0.181 C 
BRANCH  29  32
HETATM   32  N   UNL     1       5.169  34.121  62.954  1.00  0.00    -0.294 N 
HETATM   33  C   UNL     1       4.972  34.259  64.301  1.00  0.00     0.167 A 
HETATM   34  C   UNL     1       5.142  35.610  64.553  1.00  0.00     0.149 A 
HETATM   35  N   UNL     1       4.675  33.287  65.179  1.00  0.00    -0.222 NA
HETATM   36  C   UNL     1       5.008  36.018  65.891  1.00  0.00     0.155 A 
HETATM   37  N   UNL     1       5.409  36.287  63.377  1.00  0.00    -0.236 NA
HETATM   38  N   UNL     1       4.701  35.082  66.819  1.00  0.00    -0.222 NA
HETATM   39  C   UNL     1       4.561  33.798  66.426  1.00  0.00     0.237 A 
HETATM   40  C   UNL     1       5.431  35.359  62.443  1.00  0.00     0.214 A 
BRANCH  36  41
HETATM   41  N   UNL     1       5.165  37.329  66.309  1.00  0.00    -0.382 N 
HETATM   42  H   UNL     1       4.374  37.714  66.811  1.00  0.00     0.157 HD
HETATM   43  H   UNL     1       6.093  37.521  66.665  1.00  0.00     0.157 HD
ENDBRANCH  36  41
ENDBRANCH  29  32
BRANCH  30  44
HETATM   44  O   UNL     1       3.412  31.085  62.200  1.00  0.00    -0.388 OA
HETATM   45  H   UNL     1       2.436  31.007  62.234  1.00  0.00     0.210 HD
ENDBRANCH  30  44
BRANCH  31  46
HETATM   46  O   UNL     1       2.946  31.589  59.639  1.00  0.00    -0.390 OA
HETATM   47  H   UNL     1       3.048  30.721  60.088  1.00  0.00     0.210 HD
ENDBRANCH  31  46
ENDBRANCH  26  27
ENDBRANCH   1  26
TORSDOF 12
ENDMDL
MODEL 6
REMARK VINA RESULT:     -10.1      5.844     13.425
REMARK  12 active torsions:
REMARK  status: ('A' for Active; 'I' for Inactive)
REMARK    1  A    between atoms: C_2  and  N_3 
REMARK    2  A    between atoms: N_3  and  C_5 
REMARK    3  A    between atoms: N_3  and  C_25 
REMARK    4  A    between atoms: C_7  and  C_8 
REMARK    5  A    between atoms: C_8  and  C_9 
REMARK    6  A    between atoms: C_9  and  C_10 
REMARK    7  A    between atoms: C_18  and  C_19 
REMARK    8  A    between atoms: C_25  and  C_26 
REMARK    9  A    between atoms: C_28  and  N_29 
REMARK   10  A    between atoms: C_32  and  N_33 
REMARK   11  A    between atoms: C_39  and  O_40 
REMARK   12  A    between atoms: C_41  and  O_42 
ROOT
HETATM    1  N   UNL     1       5.021  32.814  63.173  1.00  0.00    -0.061 N 
HETATM    2  H   UNL     1       4.589  32.208  63.888  1.00  0.00     0.280 HD
ENDROOT
BRANCH   1   3
HETATM    3  C   UNL     1       3.949  33.077  62.114  1.00  0.00     0.180 C 
HETATM    4  C   UNL     1       3.928  31.992  61.042  1.00  0.00     0.039 C 
HETATM    5  C   UNL     1       4.024  34.476  61.508  1.00  0.00     0.039 C 
ENDBRANCH   1   3
BRANCH   1   6
HETATM    6  C   UNL     1       6.234  32.142  62.583  1.00  0.00     0.189 C 
HETATM    7  C   UNL     1       7.153  33.074  61.734  1.00  0.00     0.038 C 
HETATM    8  C   UNL     1       8.377  32.359  62.358  1.00  0.00    -0.010 C 
HETATM    9  C   UNL     1       7.447  32.015  63.548  1.00  0.00     0.038 C 
BRANCH   8  10
HETATM   10  C   UNL     1       8.952  31.140  61.635  1.00  0.00     0.012 C 
BRANCH  10  11
HETATM   11  C   UNL     1       9.641  31.542  60.328  1.00  0.00     0.079 C 
BRANCH  11  12
HETATM   12  C   UNL     1       9.169  30.695  59.196  1.00  0.00     0.105 A 
HETATM   13  N   UNL     1       9.720  30.603  58.003  1.00  0.00    -0.233 NA
HETATM   14  C   UNL     1       8.927  29.729  57.296  1.00  0.00     0.085 A 
HETATM   15  C   UNL     1       7.880  29.268  58.077  1.00  0.00     0.063 A 
HETATM   16  C   UNL     1       9.033  29.280  55.975  1.00  0.00     0.034 A 
HETATM   17  N   UNL     1       8.060  29.888  59.286  1.00  0.00    -0.343 N 
HETATM   18  C   UNL     1       6.914  28.367  57.616  1.00  0.00     0.039 A 
HETATM   19  H   UNL     1       7.467  29.777  60.096  1.00  0.00     0.167 HD
HETATM   20  C   UNL     1       7.008  27.908  56.282  1.00  0.00    -0.048 A 
HETATM   21  C   UNL     1       8.072  28.377  55.486  1.00  0.00     0.010 A 
BRANCH  20  22
HETATM   22  C   UNL     1       5.954  26.916  55.747  1.00  0.00    -0.024 C 
HETATM   23  C   UNL     1       5.219  26.122  56.850  1.00  0.00     0.019 C 
HETATM   24  C   UNL     1       4.880  27.687  54.947  1.00  0.00     0.019 C 
HETATM   25  C   UNL     1       6.633  25.883  54.819  1.00  0.00     0.019 C 
ENDBRANCH  20  22
ENDBRANCH  11  12
ENDBRANCH  10  11
ENDBRANCH   8  10
ENDBRANCH   1   6
BRANCH   1  26
HETATM   26  C   UNL     1       5.499  34.061  63.934  1.00  0.00     0.270 C 
BRANCH  26  27
HETATM   27  C   UNL     1       4.674  34.293  65.205  1.00  0.00     0.181 C 
HETATM   28  O   UNL     1       5.306  33.714  66.364  1.00  0.00    -0.354 OA
HETATM   29  C   UNL     1       4.703  34.392  67.511  1.00  0.00     0.262 C 
HETATM   30  C   UNL     1       4.037  35.684  66.993  1.00  0.00     0.198 C 
HETATM   31  C   UNL     1       4.531  35.763  65.555  1.00  0.00     0.181 C 
BRANCH  29  32
HETATM   32  N   UNL     1       5.693  34.628  68.538  1.00  0.00    -0.294 N 
HETATM   33  C   UNL     1       5.897  33.784  69.595  1.00  0.00     0.167 A 
HETATM   34  C   UNL     1       6.949  34.340  70.302  1.00  0.00     0.149 A 
HETATM   35  N   UNL     1       5.216  32.661  69.876  1.00  0.00    -0.222 NA
HETATM   36  C   UNL     1       7.374  33.641  71.445  1.00  0.00     0.155 A 
HETATM   37  N   UNL     1       7.360  35.517  69.704  1.00  0.00    -0.236 NA
HETATM   38  N   UNL     1       6.718  32.506  71.782  1.00  0.00    -0.222 NA
HETATM   39  C   UNL     1       5.704  32.083  70.997  1.00  0.00     0.237 A 
HETATM   40  C   UNL     1       6.593  35.649  68.642  1.00  0.00     0.214 A 
BRANCH  36  41
HETATM   41  N   UNL     1       8.422  34.054  72.249  1.00  0.00    -0.382 N 
HETATM   42  H   UNL     1       8.344  35.001  72.599  1.00  0.00     0.157 HD
HETATM   43  H   UNL     1       8.737  33.336  72.889  1.00  0.00     0.157 HD
ENDBRANCH  36  41
ENDBRANCH  29  32
BRANCH  30  44
HETATM   44  O   UNL     1       2.606  35.556  66.964  1.00  0.00    -0.388 OA
HETATM   45  H   UNL     1       2.392  34.679  67.345  1.00  0.00     0.210 HD
ENDBRANCH  30  44
BRANCH  31  46
HETATM   46  O   UNL     1       3.636  36.417  64.677  1.00  0.00    -0.390 OA
HETATM   47  H   UNL     1       2.739  36.319  65.069  1.00  0.00     0.210 HD
ENDBRANCH  31  46
ENDBRANCH  26  27
ENDBRANCH   1  26
TORSDOF 12
ENDMDL
MODEL 7
REMARK VINA RESULT:     -10.1      1.504      2.776
REMARK  12 active torsions:
REMARK  status: ('A' for Active; 'I' for Inactive)
REMARK    1  A    between atoms: C_2  and  N_3 
REMARK    2  A    between atoms: N_3  and  C_5 
REMARK    3  A    between atoms: N_3  and  C_25 
REMARK    4  A    between atoms: C_7  and  C_8 
REMARK    5  A    between atoms: C_8  and  C_9 
REMARK    6  A    between atoms: C_9  and  C_10 
REMARK    7  A    between atoms: C_18  and  C_19 
REMARK    8  A    between atoms: C_25  and  C_26 
REMARK    9  A    between atoms: C_28  and  N_29 
REMARK   10  A    between atoms: C_32  and  N_33 
REMARK   11  A    between atoms: C_39  and  O_40 
REMARK   12  A    between atoms: C_41  and  O_42 
ROOT
HETATM    1  N   UNL     1       6.412  28.010  56.089  1.00  0.00    -0.061 N 
HETATM    2  H   UNL     1       5.898  27.116  56.113  1.00  0.00     0.280 HD
ENDROOT
BRANCH   1   3
HETATM    3  C   UNL     1       7.599  27.862  57.043  1.00  0.00     0.180 C 
HETATM    4  C   UNL     1       7.603  26.506  57.742  1.00  0.00     0.039 C 
HETATM    5  C   UNL     1       7.732  29.015  58.033  1.00  0.00     0.039 C 
ENDBRANCH   1   3
BRANCH   1   6
HETATM    6  C   UNL     1       5.506  29.143  56.500  1.00  0.00     0.189 C 
HETATM    7  C   UNL     1       5.358  30.281  55.444  1.00  0.00     0.038 C 
HETATM    8  C   UNL     1       3.854  30.357  55.804  1.00  0.00    -0.010 C 
HETATM    9  C   UNL     1       3.990  28.886  56.268  1.00  0.00     0.038 C 
BRANCH   8  10
HETATM   10  C   UNL     1       3.419  31.327  56.905  1.00  0.00     0.012 C 
BRANCH  10  11
HETATM   11  C   UNL     1       4.299  32.581  56.921  1.00  0.00     0.079 C 
BRANCH  11  12
HETATM   12  C   UNL     1       4.976  32.737  58.239  1.00  0.00     0.105 A 
HETATM   13  N   UNL     1       6.188  32.325  58.551  1.00  0.00    -0.233 NA
HETATM   14  C   UNL     1       6.365  32.664  59.872  1.00  0.00     0.085 A 
HETATM   15  C   UNL     1       5.245  33.308  60.372  1.00  0.00     0.063 A 
HETATM   16  C   UNL     1       7.457  32.452  60.720  1.00  0.00     0.034 A 
HETATM   17  N   UNL     1       4.377  33.352  59.312  1.00  0.00    -0.343 N 
HETATM   18  C   UNL     1       5.145  33.766  61.690  1.00  0.00     0.039 A 
HETATM   19  H   UNL     1       3.453  33.758  59.329  1.00  0.00     0.167 HD
HETATM   20  C   UNL     1       6.240  33.555  62.559  1.00  0.00    -0.048 A 
HETATM   21  C   UNL     1       7.380  32.899  62.052  1.00  0.00     0.010 A 
BRANCH  20  22
HETATM   22  C   UNL     1       6.155  34.047  64.019  1.00  0.00    -0.024 C 
HETATM   23  C   UNL     1       7.432  33.782  64.848  1.00  0.00     0.019 C 
HETATM   24  C   UNL     1       5.909  35.572  64.035  1.00  0.00     0.019 C 
HETATM   25  C   UNL     1       4.989  33.338  64.742  1.00  0.00     0.019 C 
ENDBRANCH  20  22
ENDBRANCH  11  12
ENDBRANCH  10  11
ENDBRANCH   8  10
ENDBRANCH   1   6
BRANCH   1  26
HETATM   26  C   UNL     1       6.790  28.222  54.614  1.00  0.00     0.270 C 
BRANCH  26  27
HETATM   27  C   UNL     1       6.593  26.942  53.795  1.00  0.00     0.181 C 
HETATM   28  O   UNL     1       7.626  25.973  54.064  1.00  0.00    -0.354 OA
HETATM   29  C   UNL     1       7.078  24.692  53.618  1.00  0.00     0.262 C 
HETATM   30  C   UNL     1       5.548  24.855  53.499  1.00  0.00     0.198 C 
HETATM   31  C   UNL     1       5.305  26.216  54.136  1.00  0.00     0.181 C 
BRANCH  29  32
HETATM   32  N   UNL     1       7.474  23.631  54.518  1.00  0.00    -0.294 N 
HETATM   33  C   UNL     1       7.833  22.381  54.094  1.00  0.00     0.167 A 
HETATM   34  C   UNL     1       8.183  21.697  55.246  1.00  0.00     0.149 A 
HETATM   35  N   UNL     1       7.839  21.926  52.831  1.00  0.00    -0.222 NA
HETATM   36  C   UNL     1       8.616  20.371  55.079  1.00  0.00     0.155 A 
HETATM   37  N   UNL     1       8.013  22.506  56.355  1.00  0.00    -0.236 NA
HETATM   38  N   UNL     1       8.635  19.855  53.828  1.00  0.00    -0.222 NA
HETATM   39  C   UNL     1       8.262  20.641  52.795  1.00  0.00     0.237 A 
HETATM   40  C   UNL     1       7.600  23.662  55.877  1.00  0.00     0.214 A 
BRANCH  36  41
HETATM   41  N   UNL     1       9.017  19.560  56.127  1.00  0.00    -0.382 N 
HETATM   42  H   UNL     1       8.532  19.720  57.001  1.00  0.00     0.157 HD
HETATM   43  H   UNL     1       9.182  18.601  55.845  1.00  0.00     0.157 HD
ENDBRANCH  36  41
ENDBRANCH  29  32
BRANCH  30  44
HETATM   44  O   UNL     1       5.139  24.928  52.124  1.00  0.00    -0.388 OA
HETATM   45  H   UNL     1       4.181  24.720  52.101  1.00  0.00     0.210 HD
ENDBRANCH  30  44
BRANCH  31  46
HETATM   46  O   UNL     1       4.178  26.897  53.618  1.00  0.00    -0.390 OA
HETATM   47  H   UNL     1       4.438  27.842  53.534  1.00  0.00     0.210 HD
ENDBRANCH  31  46
ENDBRANCH  26  27
ENDBRANCH   1  26
TORSDOF 12
ENDMDL
MODEL 8
REMARK VINA RESULT:     -10.0      3.557      5.805
REMARK  12 active torsions:
REMARK  status: ('A' for Active; 'I' for Inactive)
REMARK    1  A    between atoms: C_2  and  N_3 
REMARK    2  A    between atoms: N_3  and  C_5 
REMARK    3  A    between atoms: N_3  and  C_25 
REMARK    4  A    between atoms: C_7  and  C_8 
REMARK    5  A    between atoms: C_8  and  C_9 
REMARK    6  A    between atoms: C_9  and  C_10 
REMARK    7  A    between atoms: C_18  and  C_19 
REMARK    8  A    between atoms: C_25  and  C_26 
REMARK    9  A    between atoms: C_28  and  N_29 
REMARK   10  A    between atoms: C_32  and  N_33 
REMARK   11  A    between atoms: C_39  and  O_40 
REMARK   12  A    between atoms: C_41  and  O_42 
ROOT
HETATM    1  N   UNL     1       6.521  27.137  54.826  1.00  0.00    -0.061 N 
HETATM    2  H   UNL     1       5.505  26.980  54.744  1.00  0.00     0.280 HD
ENDROOT
BRANCH   1   3
HETATM    3  C   UNL     1       7.186  25.761  54.768  1.00  0.00     0.180 C 
HETATM    4  C   UNL     1       7.754  25.459  53.384  1.00  0.00     0.039 C 
HETATM    5  C   UNL     1       6.294  24.632  55.277  1.00  0.00     0.039 C 
ENDBRANCH   1   3
BRANCH   1   6
HETATM    6  C   UNL     1       6.836  27.854  56.114  1.00  0.00     0.189 C 
HETATM    7  C   UNL     1       8.024  27.253  56.925  1.00  0.00     0.038 C 
HETATM    8  C   UNL     1       8.473  28.699  57.251  1.00  0.00    -0.010 C 
HETATM    9  C   UNL     1       7.729  29.117  55.959  1.00  0.00     0.038 C 
BRANCH   8  10
HETATM   10  C   UNL     1       7.940  29.356  58.525  1.00  0.00     0.012 C 
BRANCH  10  11
HETATM   11  C   UNL     1       9.019  30.201  59.209  1.00  0.00     0.079 C 
BRANCH  11  12
HETATM   12  C   UNL     1       8.440  31.000  60.325  1.00  0.00     0.105 A 
HETATM   13  N   UNL     1       9.036  31.308  61.460  1.00  0.00    -0.233 NA
HETATM   14  C   UNL     1       8.109  32.026  62.180  1.00  0.00     0.085 A 
HETATM   15  C   UNL     1       6.930  32.171  61.466  1.00  0.00     0.063 A 
HETATM   16  C   UNL     1       8.197  32.588  63.458  1.00  0.00     0.034 A 
HETATM   17  N   UNL     1       7.168  31.518  60.284  1.00  0.00    -0.343 N 
HETATM   18  C   UNL     1       5.813  32.856  61.954  1.00  0.00     0.039 A 
HETATM   19  H   UNL     1       6.510  31.427  59.523  1.00  0.00     0.167 HD
HETATM   20  C   UNL     1       5.888  33.425  63.247  1.00  0.00    -0.048 A 
HETATM   21  C   UNL     1       7.085  33.278  63.974  1.00  0.00     0.010 A 
BRANCH  20  22
HETATM   22  C   UNL     1       4.669  34.185  63.812  1.00  0.00    -0.024 C 
HETATM   23  C   UNL     1       3.340  33.866  63.091  1.00  0.00     0.019 C 
HETATM   24  C   UNL     1       4.479  33.820  65.301  1.00  0.00     0.019 C 
HETATM   25  C   UNL     1       4.899  35.707  63.687  1.00  0.00     0.019 C 
ENDBRANCH  20  22
ENDBRANCH  11  12
ENDBRANCH  10  11
ENDBRANCH   8  10
ENDBRANCH   1   6
BRANCH   1  26
HETATM   26  C   UNL     1       6.881  28.078  53.665  1.00  0.00     0.270 C 
BRANCH  26  27
HETATM   27  C   UNL     1       5.625  28.641  52.989  1.00  0.00     0.181 C 
HETATM   28  O   UNL     1       5.666  28.466  51.559  1.00  0.00    -0.354 OA
HETATM   29  C   UNL     1       4.277  28.591  51.116  1.00  0.00     0.262 C 
HETATM   30  C   UNL     1       3.373  28.396  52.351  1.00  0.00     0.198 C 
HETATM   31  C   UNL     1       4.356  27.926  53.415  1.00  0.00     0.181 C 
BRANCH  29  32
HETATM   32  N   UNL     1       4.000  27.656  50.048  1.00  0.00    -0.294 N 
HETATM   33  C   UNL     1       3.059  27.878  49.079  1.00  0.00     0.167 A 
HETATM   34  C   UNL     1       3.145  26.782  48.237  1.00  0.00     0.149 A 
HETATM   35  N   UNL     1       2.235  28.933  48.979  1.00  0.00    -0.222 NA
HETATM   36  C   UNL     1       2.280  26.776  47.130  1.00  0.00     0.155 A 
HETATM   37  N   UNL     1       4.100  25.896  48.699  1.00  0.00    -0.236 NA
HETATM   38  N   UNL     1       1.420  27.810  46.982  1.00  0.00    -0.222 NA
HETATM   39  C   UNL     1       1.447  28.812  47.887  1.00  0.00     0.237 A 
HETATM   40  C   UNL     1       4.600  26.460  49.778  1.00  0.00     0.214 A 
BRANCH  36  41
HETATM   41  N   UNL     1       2.254  25.763  46.186  1.00  0.00    -0.382 N 
HETATM   42  H   UNL     1       2.628  24.877  46.500  1.00  0.00     0.157 HD
HETATM   43  H   UNL     1       1.400  25.752  45.642  1.00  0.00     0.157 HD
ENDBRANCH  36  41
ENDBRANCH  29  32
BRANCH  30  44
HETATM   44  O   UNL     1       2.812  29.644  52.787  1.00  0.00    -0.388 OA
HETATM   45  H   UNL     1       2.304  30.006  52.031  1.00  0.00     0.210 HD
ENDBRANCH  30  44
BRANCH  31  46
HETATM   46  O   UNL     1       3.984  28.277  54.733  1.00  0.00    -0.390 OA
HETATM   47  H   UNL     1       3.363  27.580  55.043  1.00  0.00     0.210 HD
ENDBRANCH  31  46
ENDBRANCH  26  27
ENDBRANCH   1  26
TORSDOF 12
ENDMDL
MODEL 9
REMARK VINA RESULT:      -9.7      3.966     12.337
REMARK  12 active torsions:
REMARK  status: ('A' for Active; 'I' for Inactive)
REMARK    1  A    between atoms: C_2  and  N_3 
REMARK    2  A    between atoms: N_3  and  C_5 
REMARK    3  A    between atoms: N_3  and  C_25 
REMARK    4  A    between atoms: C_7  and  C_8 
REMARK    5  A    between atoms: C_8  and  C_9 
REMARK    6  A    between atoms: C_9  and  C_10 
REMARK    7  A    between atoms: C_18  and  C_19 
REMARK    8  A    between atoms: C_25  and  C_26 
REMARK    9  A    between atoms: C_28  and  N_29 
REMARK   10  A    between atoms: C_32  and  N_33 
REMARK   11  A    between atoms: C_39  and  O_40 
REMARK   12  A    between atoms: C_41  and  O_42 
ROOT
HETATM    1  N   UNL     1       7.822  32.053  59.938  1.00  0.00    -0.061 N 
HETATM    2  H   UNL     1       7.348  32.968  59.918  1.00  0.00     0.280 HD
ENDROOT
BRANCH   1   3
HETATM    3  C   UNL     1       9.300  32.328  60.218  1.00  0.00     0.180 C 
HETATM    4  C   UNL     1      10.185  31.956  59.032  1.00  0.00     0.039 C 
HETATM    5  C   UNL     1       9.799  31.707  61.519  1.00  0.00     0.039 C 
ENDBRANCH   1   3
BRANCH   1   6
HETATM    6  C   UNL     1       7.628  31.336  58.625  1.00  0.00     0.189 C 
HETATM    7  C   UNL     1       7.693  29.781  58.711  1.00  0.00     0.038 C 
HETATM    8  C   UNL     1       6.523  29.721  57.699  1.00  0.00    -0.010 C 
HETATM    9  C   UNL     1       6.146  31.137  58.201  1.00  0.00     0.038 C 
BRANCH   8  10
HETATM   10  C   UNL     1       6.855  29.650  56.207  1.00  0.00     0.012 C 
BRANCH  10  11
HETATM   11  C   UNL     1       5.785  28.870  55.436  1.00  0.00     0.079 C 
BRANCH  11  12
HETATM   12  C   UNL     1       6.340  27.597  54.898  1.00  0.00     0.105 A 
HETATM   13  N   UNL     1       6.732  27.374  53.660  1.00  0.00    -0.233 NA
HETATM   14  C   UNL     1       7.139  26.060  53.632  1.00  0.00     0.085 A 
HETATM   15  C   UNL     1       7.006  25.474  54.881  1.00  0.00     0.063 A 
HETATM   16  C   UNL     1       7.633  25.290  52.574  1.00  0.00     0.034 A 
HETATM   17  N   UNL     1       6.505  26.474  55.673  1.00  0.00    -0.343 N 
HETATM   18  C   UNL     1       7.344  24.143  55.146  1.00  0.00     0.039 A 
HETATM   19  H   UNL     1       6.285  26.388  56.655  1.00  0.00     0.167 HD
HETATM   20  C   UNL     1       7.841  23.352  54.084  1.00  0.00    -0.048 A 
HETATM   21  C   UNL     1       7.976  23.947  52.814  1.00  0.00     0.010 A 
BRANCH  20  22
HETATM   22  C   UNL     1       8.219  21.879  54.348  1.00  0.00    -0.024 C 
HETATM   23  C   UNL     1       7.446  21.232  55.519  1.00  0.00     0.019 C 
HETATM   24  C   UNL     1       7.926  21.038  53.086  1.00  0.00     0.019 C 
HETATM   25  C   UNL     1       9.723  21.779  54.687  1.00  0.00     0.019 C 
ENDBRANCH  20  22
ENDBRANCH  11  12
ENDBRANCH  10  11
ENDBRANCH   8  10
ENDBRANCH   1   6
BRANCH   1  26
HETATM   26  C   UNL     1       7.097  31.244  61.026  1.00  0.00     0.270 C 
BRANCH  26  27
HETATM   27  C   UNL     1       6.515  32.157  62.109  1.00  0.00     0.181 C 
HETATM   28  O   UNL     1       6.503  33.537  61.694  1.00  0.00    -0.354 OA
HETATM   29  C   UNL     1       5.530  34.194  62.566  1.00  0.00     0.262 C 
HETATM   30  C   UNL     1       4.649  33.094  63.195  1.00  0.00     0.198 C 
HETATM   31  C   UNL     1       5.061  31.850  62.421  1.00  0.00     0.181 C 
BRANCH  29  32
HETATM   32  N   UNL     1       4.773  35.182  61.828  1.00  0.00    -0.294 N 
HETATM   33  C   UNL     1       4.203  34.935  60.609  1.00  0.00     0.167 A 
HETATM   34  C   UNL     1       3.541  36.105  60.278  1.00  0.00     0.149 A 
HETATM   35  N   UNL     1       4.278  33.800  59.895  1.00  0.00    -0.222 NA
HETATM   36  C   UNL     1       2.844  36.106  59.058  1.00  0.00     0.155 A 
HETATM   37  N   UNL     1       3.727  37.057  61.264  1.00  0.00    -0.236 NA
HETATM   38  N   UNL     1       2.891  34.991  58.291  1.00  0.00    -0.222 NA
HETATM   39  C   UNL     1       3.582  33.922  58.742  1.00  0.00     0.237 A 
HETATM   40  C   UNL     1       4.460  36.462  62.182  1.00  0.00     0.214 A 
BRANCH  36  41
HETATM   41  N   UNL     1       2.119  37.190  58.592  1.00  0.00    -0.382 N 
HETATM   42  H   UNL     1       1.966  37.925  59.271  1.00  0.00     0.157 HD
HETATM   43  H   UNL     1       2.372  37.459  57.650  1.00  0.00     0.157 HD
ENDBRANCH  36  41
ENDBRANCH  29  32
BRANCH  30  44
HETATM   44  O   UNL     1       4.985  32.887  64.577  1.00  0.00    -0.388 OA
HETATM   45  H   UNL     1       5.914  32.577  64.600  1.00  0.00     0.210 HD
ENDBRANCH  30  44
BRANCH  31  46
HETATM   46  O   UNL     1       4.935  30.649  63.157  1.00  0.00    -0.390 OA
HETATM   47  H   UNL     1       4.848  29.925  62.496  1.00  0.00     0.210 HD
ENDBRANCH  31  46
ENDBRANCH  26  27
ENDBRANCH   1  26
TORSDOF 12
ENDMDL
MODEL 10
REMARK VINA RESULT:      -9.5      4.082     12.987
REMARK  12 active torsions:
REMARK  status: ('A' for Active; 'I' for Inactive)
REMARK    1  A    between atoms: C_2  and  N_3 
REMARK    2  A    between atoms: N_3  and  C_5 
REMARK    3  A    between atoms: N_3  and  C_25 
REMARK    4  A    between atoms: C_7  and  C_8 
REMARK    5  A    between atoms: C_8  and  C_9 
REMARK    6  A    between atoms: C_9  and  C_10 
REMARK    7  A    between atoms: C_18  and  C_19 
REMARK    8  A    between atoms: C_25  and  C_26 
REMARK    9  A    between atoms: C_28  and  N_29 
REMARK   10  A    between atoms: C_32  and  N_33 
REMARK   11  A    between atoms: C_39  and  O_40 
REMARK   12  A    between atoms: C_41  and  O_42 
ROOT
HETATM    1  N   UNL     1       4.949  31.848  58.716  1.00  0.00    -0.061 N 
HETATM    2  H   UNL     1       4.627  32.700  58.231  1.00  0.00     0.280 HD
ENDROOT
BRANCH   1   3
HETATM    3  C   UNL     1       6.416  32.080  59.084  1.00  0.00     0.180 C 
HETATM    4  C   UNL     1       7.277  30.854  58.796  1.00  0.00     0.039 C 
HETATM    5  C   UNL     1       6.612  32.593  60.508  1.00  0.00     0.039 C 
ENDBRANCH   1   3
BRANCH   1   6
HETATM    6  C   UNL     1       4.783  30.645  57.823  1.00  0.00     0.189 C 
HETATM    7  C   UNL     1       3.309  30.315  57.434  1.00  0.00     0.038 C 
HETATM    8  C   UNL     1       3.809  29.977  56.008  1.00  0.00    -0.010 C 
HETATM    9  C   UNL     1       5.001  30.919  56.308  1.00  0.00     0.038 C 
BRANCH   8  10
HETATM   10  C   UNL     1       4.209  28.532  55.702  1.00  0.00     0.012 C 
BRANCH  10  11
HETATM   11  C   UNL     1       4.306  28.290  54.193  1.00  0.00     0.079 C 
BRANCH  11  12
HETATM   12  C   UNL     1       5.199  27.134  53.897  1.00  0.00     0.105 A 
HETATM   13  N   UNL     1       5.939  26.973  52.819  1.00  0.00    -0.233 NA
HETATM   14  C   UNL     1       6.563  25.756  52.979  1.00  0.00     0.085 A 
HETATM   15  C   UNL     1       6.207  25.172  54.183  1.00  0.00     0.063 A 
HETATM   16  C   UNL     1       7.448  25.078  52.135  1.00  0.00     0.034 A 
HETATM   17  N   UNL     1       5.345  26.071  54.756  1.00  0.00    -0.343 N 
HETATM   18  C   UNL     1       6.690  23.930  54.609  1.00  0.00     0.039 A 
HETATM   19  H   UNL     1       4.890  25.959  55.650  1.00  0.00     0.167 HD
HETATM   20  C   UNL     1       7.582  23.232  53.762  1.00  0.00    -0.048 A 
HETATM   21  C   UNL     1       7.944  23.825  52.537  1.00  0.00     0.010 A 
BRANCH  20  22
HETATM   22  C   UNL     1       8.128  21.858  54.206  1.00  0.00    -0.024 C 
HETATM   23  C   UNL     1       7.952  20.741  53.153  1.00  0.00     0.019 C 
HETATM   24  C   UNL     1       9.641  21.975  54.499  1.00  0.00     0.019 C 
HETATM   25  C   UNL     1       7.398  21.394  55.486  1.00  0.00     0.019 C 
ENDBRANCH  20  22
ENDBRANCH  11  12
ENDBRANCH  10  11
ENDBRANCH   8  10
ENDBRANCH   1   6
BRANCH   1  26
HETATM   26  C   UNL     1       4.001  31.679  59.914  1.00  0.00     0.270 C 
BRANCH  26  27
HETATM   27  C   UNL     1       3.024  32.854  60.026  1.00  0.00     0.181 C 
HETATM   28  O   UNL     1       3.098  33.487  61.319  1.00  0.00    -0.354 OA
HETATM   29  C   UNL     1       2.509  34.813  61.133  1.00  0.00     0.262 C 
HETATM   30  C   UNL     1       2.499  35.111  59.619  1.00  0.00     0.198 C 
HETATM   31  C   UNL     1       3.331  33.972  59.047  1.00  0.00     0.181 C 
BRANCH  29  32
HETATM   32  N   UNL     1       3.229  35.800  61.907  1.00  0.00    -0.294 N 
HETATM   33  C   UNL     1       3.506  35.655  63.240  1.00  0.00     0.167 A 
HETATM   34  C   UNL     1       4.241  36.778  63.578  1.00  0.00     0.149 A 
HETATM   35  N   UNL     1       3.137  34.639  64.036  1.00  0.00    -0.222 NA
HETATM   36  C   UNL     1       4.673  36.864  64.913  1.00  0.00     0.155 A 
HETATM   37  N   UNL     1       4.385  37.606  62.481  1.00  0.00    -0.236 NA
HETATM   38  N   UNL     1       4.323  35.872  65.765  1.00  0.00    -0.222 NA
HETATM   39  C   UNL     1       3.598  34.835  65.292  1.00  0.00     0.237 A 
HETATM   40  C   UNL     1       3.778  36.980  61.495  1.00  0.00     0.214 A 
BRANCH  36  41
HETATM   41  N   UNL     1       5.431  37.913  65.406  1.00  0.00    -0.382 N 
HETATM   42  H   UNL     1       6.343  37.652  65.758  1.00  0.00     0.157 HD
HETATM   43  H   UNL     1       5.361  38.750  64.841  1.00  0.00     0.157 HD
ENDBRANCH  36  41
ENDBRANCH  29  32
BRANCH  30  44
HETATM   44  O   UNL     1       1.172  35.007  59.078  1.00  0.00    -0.388 OA
HETATM   45  H   UNL     1       1.010  35.824  58.562  1.00  0.00     0.210 HD
ENDBRANCH  30  44
BRANCH  31  46
HETATM   46  O   UNL     1       2.976  33.611  57.726  1.00  0.00    -0.390 OA
HETATM   47  H   UNL     1       2.453  34.361  57.363  1.00  0.00     0.210 HD
ENDBRANCH  31  46
ENDBRANCH  26  27
ENDBRANCH   1  26
TORSDOF 12
ENDMDL
