MODEL 1
REMARK VINA RESULT:      -9.5      0.000      0.000
REMARK  8 active torsions:
REMARK  status: ('A' for Active; 'I' for Inactive)
REMARK    1  A    between atoms: O_2  and  C_3 
REMARK    2  A    between atoms: C_10  and  C_11 
REMARK    3  A    between atoms: N_12  and  N_13 
REMARK       I    between atoms: N_13  and  C_14 
REMARK    4  A    between atoms: C_14  and  C_15 
REMARK    5  A    between atoms: N_16  and  C_17 
REMARK    6  A    between atoms: C_21  and  N_22 
REMARK    7  A    between atoms: C_25  and  C_26 
REMARK    8  A    between atoms: C_26  and  N_27 
ROOT
HETATM    1  C   UNL     1       5.278  27.727  52.085  1.00  0.00     0.154 A 
HETATM    2  N   UNL     1       5.142  28.423  53.292  1.00  0.00    -0.184 N 
HETATM    3  N   UNL     1       4.726  29.694  53.011  1.00  0.00    -0.058 NA
HETATM    4  N   UNL     1       4.662  29.864  51.706  1.00  0.00    -0.132 NA
HETATM    5  C   UNL     1       5.015  28.690  51.115  1.00  0.00     0.118 A 
ENDROOT
BRANCH   1   6
HETATM    6  C   UNL     1       5.711  26.376  51.809  1.00  0.00     0.271 C 
HETATM    7  N   UNL     1       6.906  25.943  52.381  1.00  0.00    -0.145 NA
HETATM    8  H   UNL     1       7.571  26.690  52.584  1.00  0.00     0.158 HD
HETATM    9  O   UNL     1       4.956  25.620  51.198  1.00  0.00    -0.271 OA
BRANCH   7  10
HETATM   10  N   UNL     1       7.562  24.897  51.803  1.00  0.00    -0.205 NA
HETATM   11  C   UNL     1       8.011  23.876  52.478  1.00  0.00     0.147 C 
BRANCH  11  12
HETATM   12  C   UNL     1       8.058  23.540  53.925  1.00  0.00     0.019 A 
HETATM   13  C   UNL     1       7.838  22.200  54.299  1.00  0.00     0.101 A 
HETATM   14  C   UNL     1       7.784  21.840  55.657  1.00  0.00     0.069 A 
HETATM   15 CL   UNL     1       7.438  20.223  56.155  1.00  0.00    -0.081 Cl
HETATM   16  C   UNL     1       7.993  22.798  56.646  1.00  0.00     0.050 A 
HETATM   17  C   UNL     1       8.260  24.110  56.273  1.00  0.00     0.036 A 
HETATM   18 CL   UNL     1       8.501  25.313  57.482  1.00  0.00    -0.084 Cl
HETATM   19  C   UNL     1       8.307  24.480  54.927  1.00  0.00     0.039 A 
BRANCH  13  20
HETATM   20  O   UNL     1       7.615  21.252  53.330  1.00  0.00    -0.353 OA
HETATM   21  C   UNL     1       8.787  20.466  53.082  1.00  0.00     0.210 C 
ENDBRANCH  13  20
ENDBRANCH  11  12
ENDBRANCH   7  10
ENDBRANCH   1   6
BRANCH   2  22
HETATM   22  C   UNL     1       5.406  28.028  54.625  1.00  0.00     0.230 A 
HETATM   23  N   UNL     1       5.228  26.764  55.002  1.00  0.00    -0.081 NA
HETATM   24  O   UNL     1       5.595  26.756  56.348  1.00  0.00    -0.103 OA
HETATM   25  N   UNL     1       5.980  28.021  56.769  1.00  0.00    -0.083 NA
HETATM   26  C   UNL     1       5.870  28.808  55.701  1.00  0.00     0.201 A 
BRANCH  26  27
HETATM   27  N   UNL     1       6.169  30.116  55.693  1.00  0.00    -0.379 N 
HETATM   28  H   UNL     1       5.631  30.763  56.264  1.00  0.00     0.158 HD
HETATM   29  H   UNL     1       6.789  30.553  55.016  1.00  0.00     0.158 HD
ENDBRANCH  26  27
ENDBRANCH   2  22
BRANCH   5  30
HETATM   30  C   UNL     1       5.080  28.639  49.622  1.00  0.00     0.298 C 
BRANCH  30  31
HETATM   31  N   UNL     1       3.988  27.732  49.044  1.00  0.00    -0.066 N 
HETATM   32  H   UNL     1       3.784  27.075  49.813  1.00  0.00     0.280 HD
HETATM   33  C   UNL     1       2.725  28.520  48.788  1.00  0.00     0.235 C 
HETATM   34  C   UNL     1       1.540  27.621  48.457  1.00  0.00     0.028 C 
HETATM   35  C   UNL     1       1.597  27.058  47.042  1.00  0.00     0.002 C 
HETATM   36  C   UNL     1       2.402  25.772  46.893  1.00  0.00     0.002 C 
HETATM   37  C   UNL     1       3.681  25.651  47.714  1.00  0.00     0.028 C 
HETATM   38  C   UNL     1       4.489  26.933  47.865  1.00  0.00     0.235 C 
ENDBRANCH  30  31
ENDBRANCH   5  30
TORSDOF 8
ENDMDL
MODEL 2
REMARK VINA RESULT:      -9.4      1.654      5.700
REMARK  8 active torsions:
REMARK  status: ('A' for Active; 'I' for Inactive)
REMARK    1  A    between atoms: O_2  and  C_3 
REMARK    2  A    between atoms: C_10  and  C_11 
REMARK    3  A    between atoms: N_12  and  N_13 
REMARK       I    between atoms: N_13  and  C_14 
REMARK    4  A    between atoms: C_14  and  C_15 
REMARK    5  A    between atoms: N_16  and  C_17 
REMARK    6  A    between atoms: C_21  and  N_22 
REMARK    7  A    between atoms: C_25  and  C_26 
REMARK    8  A    between atoms: C_26  and  N_27 
ROOT
HETATM    1  C   UNL     1       5.314  27.302  51.930  1.00  0.00     0.154 A 
HETATM    2  N   UNL     1       4.983  28.176  50.889  1.00  0.00    -0.184 N 
HETATM    3  N   UNL     1       4.533  29.345  51.436  1.00  0.00    -0.058 NA
HETATM    4  N   UNL     1       4.489  29.236  52.747  1.00  0.00    -0.132 NA
HETATM    5  C   UNL     1       4.938  27.994  53.077  1.00  0.00     0.118 A 
ENDROOT
BRANCH   1   6
HETATM    6  C   UNL     1       5.805  25.942  51.912  1.00  0.00     0.271 C 
HETATM    7  N   UNL     1       7.152  25.731  52.203  1.00  0.00    -0.145 NA
HETATM    8  H   UNL     1       7.758  26.524  51.995  1.00  0.00     0.158 HD
HETATM    9  O   UNL     1       5.003  25.019  51.774  1.00  0.00    -0.271 OA
BRANCH   7  10
HETATM   10  N   UNL     1       7.739  24.582  51.762  1.00  0.00    -0.205 NA
HETATM   11  C   UNL     1       8.084  23.606  52.554  1.00  0.00     0.147 C 
BRANCH  11  12
HETATM   12  C   UNL     1       8.057  23.421  54.029  1.00  0.00     0.019 A 
HETATM   13  C   UNL     1       8.594  22.228  54.554  1.00  0.00     0.101 A 
HETATM   14  C   UNL     1       8.517  21.961  55.931  1.00  0.00     0.069 A 
HETATM   15 CL   UNL     1       9.093  20.477  56.602  1.00  0.00    -0.081 Cl
HETATM   16  C   UNL     1       7.950  22.892  56.797  1.00  0.00     0.050 A 
HETATM   17  C   UNL     1       7.467  24.089  56.283  1.00  0.00     0.036 A 
HETATM   18 CL   UNL     1       6.743  25.245  57.336  1.00  0.00    -0.084 Cl
HETATM   19  C   UNL     1       7.530  24.362  54.914  1.00  0.00     0.039 A 
BRANCH  13  20
HETATM   20  O   UNL     1       9.140  21.297  53.704  1.00  0.00    -0.353 OA
HETATM   21  C   UNL     1       8.145  20.403  53.192  1.00  0.00     0.210 C 
ENDBRANCH  13  20
ENDBRANCH  11  12
ENDBRANCH   7  10
ENDBRANCH   1   6
BRANCH   2  22
HETATM   22  C   UNL     1       5.007  27.998  49.485  1.00  0.00     0.230 A 
HETATM   23  N   UNL     1       5.697  28.832  48.710  1.00  0.00    -0.081 NA
HETATM   24  O   UNL     1       5.498  28.340  47.420  1.00  0.00    -0.103 OA
HETATM   25  N   UNL     1       4.679  27.220  47.432  1.00  0.00    -0.083 NA
HETATM   26  C   UNL     1       4.380  27.003  48.711  1.00  0.00     0.201 A 
BRANCH  26  27
HETATM   27  N   UNL     1       3.614  25.991  49.147  1.00  0.00    -0.379 N 
HETATM   28  H   UNL     1       4.008  25.058  49.230  1.00  0.00     0.158 HD
HETATM   29  H   UNL     1       2.603  26.042  49.237  1.00  0.00     0.158 HD
ENDBRANCH  26  27
ENDBRANCH   2  22
BRANCH   5  30
HETATM   30  C   UNL     1       4.930  27.597  54.519  1.00  0.00     0.298 C 
BRANCH  30  31
HETATM   31  N   UNL     1       5.969  28.386  55.324  1.00  0.00    -0.066 N 
HETATM   32  H   UNL     1       5.926  29.333  54.915  1.00  0.00     0.280 HD
HETATM   33  C   UNL     1       5.540  28.507  56.767  1.00  0.00     0.235 C 
HETATM   34  C   UNL     1       6.403  29.493  57.546  1.00  0.00     0.028 C 
HETATM   35  C   UNL     1       7.777  28.934  57.894  1.00  0.00     0.002 C 
HETATM   36  C   UNL     1       8.838  29.112  56.814  1.00  0.00     0.002 C 
HETATM   37  C   UNL     1       8.394  28.943  55.365  1.00  0.00     0.028 C 
HETATM   38  C   UNL     1       7.364  27.848  55.117  1.00  0.00     0.235 C 
ENDBRANCH  30  31
ENDBRANCH   5  30
TORSDOF 8
ENDMDL
MODEL 3
REMARK VINA RESULT:      -9.3      5.536      8.796
REMARK  8 active torsions:
REMARK  status: ('A' for Active; 'I' for Inactive)
REMARK    1  A    between atoms: O_2  and  C_3 
REMARK    2  A    between atoms: C_10  and  C_11 
REMARK    3  A    between atoms: N_12  and  N_13 
REMARK       I    between atoms: N_13  and  C_14 
REMARK    4  A    between atoms: C_14  and  C_15 
REMARK    5  A    between atoms: N_16  and  C_17 
REMARK    6  A    between atoms: C_21  and  N_22 
REMARK    7  A    between atoms: C_25  and  C_26 
REMARK    8  A    between atoms: C_26  and  N_27 
ROOT
HETATM    1  C   UNL     1       6.765  27.711  57.194  1.00  0.00     0.154 A 
HETATM    2  N   UNL     1       5.494  28.223  56.910  1.00  0.00    -0.184 N 
HETATM    3  N   UNL     1       4.619  27.176  56.824  1.00  0.00    -0.058 NA
HETATM    4  N   UNL     1       5.269  26.039  56.962  1.00  0.00    -0.132 NA
HETATM    5  C   UNL     1       6.582  26.332  57.166  1.00  0.00     0.118 A 
ENDROOT
BRANCH   1   6
HETATM    6  C   UNL     1       8.042  28.370  57.359  1.00  0.00     0.271 C 
HETATM    7  N   UNL     1       8.201  29.220  58.452  1.00  0.00    -0.145 NA
HETATM    8  H   UNL     1       7.334  29.635  58.794  1.00  0.00     0.158 HD
HETATM    9  O   UNL     1       8.974  28.060  56.617  1.00  0.00    -0.271 OA
BRANCH   7  10
HETATM   10  N   UNL     1       9.170  30.178  58.394  1.00  0.00    -0.205 NA
HETATM   11  C   UNL     1       9.112  31.295  59.065  1.00  0.00     0.147 C 
BRANCH  11  12
HETATM   12  C   UNL     1       8.088  31.909  59.949  1.00  0.00     0.019 A 
HETATM   13  C   UNL     1       8.395  32.047  61.318  1.00  0.00     0.101 A 
HETATM   14  C   UNL     1       7.434  32.540  62.216  1.00  0.00     0.069 A 
HETATM   15 CL   UNL     1       7.746  32.650  63.911  1.00  0.00    -0.081 Cl
HETATM   16  C   UNL     1       6.183  32.941  61.755  1.00  0.00     0.050 A 
HETATM   17  C   UNL     1       5.900  32.852  60.398  1.00  0.00     0.036 A 
HETATM   18 CL   UNL     1       4.350  33.324  59.812  1.00  0.00    -0.084 Cl
HETATM   19  C   UNL     1       6.845  32.354  59.497  1.00  0.00     0.039 A 
BRANCH  13  20
HETATM   20  O   UNL     1       9.622  31.639  61.783  1.00  0.00    -0.353 OA
HETATM   21  C   UNL     1       9.609  30.257  62.161  1.00  0.00     0.210 C 
ENDBRANCH  13  20
ENDBRANCH  11  12
ENDBRANCH   7  10
ENDBRANCH   1   6
BRANCH   2  22
HETATM   22  C   UNL     1       5.060  29.549  56.673  1.00  0.00     0.230 A 
HETATM   23  N   UNL     1       5.414  30.187  55.560  1.00  0.00    -0.081 NA
HETATM   24  O   UNL     1       4.799  31.434  55.673  1.00  0.00    -0.103 OA
HETATM   25  N   UNL     1       4.090  31.537  56.861  1.00  0.00    -0.083 NA
HETATM   26  C   UNL     1       4.245  30.367  57.479  1.00  0.00     0.201 A 
BRANCH  26  27
HETATM   27  N   UNL     1       3.694  30.059  58.663  1.00  0.00    -0.379 N 
HETATM   28  H   UNL     1       3.051  30.709  59.106  1.00  0.00     0.158 HD
HETATM   29  H   UNL     1       4.007  29.292  59.252  1.00  0.00     0.158 HD
ENDBRANCH  26  27
ENDBRANCH   2  22
BRANCH   5  30
HETATM   30  C   UNL     1       7.550  25.199  57.295  1.00  0.00     0.298 C 
BRANCH  30  31
HETATM   31  N   UNL     1       7.398  24.198  56.144  1.00  0.00    -0.066 N 
HETATM   32  H   UNL     1       6.407  23.916  56.195  1.00  0.00     0.280 HD
HETATM   33  C   UNL     1       7.594  24.886  54.814  1.00  0.00     0.235 C 
HETATM   34  C   UNL     1       7.204  23.997  53.640  1.00  0.00     0.028 C 
HETATM   35  C   UNL     1       8.233  22.912  53.346  1.00  0.00     0.002 C 
HETATM   36  C   UNL     1       8.069  21.632  54.157  1.00  0.00     0.002 C 
HETATM   37  C   UNL     1       7.648  21.779  55.615  1.00  0.00     0.028 C 
HETATM   38  C   UNL     1       8.247  22.968  56.356  1.00  0.00     0.235 C 
ENDBRANCH  30  31
ENDBRANCH   5  30
TORSDOF 8
ENDMDL
MODEL 4
REMARK VINA RESULT:      -9.1      3.895      8.182
REMARK  8 active torsions:
REMARK  status: ('A' for Active; 'I' for Inactive)
REMARK    1  A    between atoms: O_2  and  C_3 
REMARK    2  A    between atoms: C_10  and  C_11 
REMARK    3  A    between atoms: N_12  and  N_13 
REMARK       I    between atoms: N_13  and  C_14 
REMARK    4  A    between atoms: C_14  and  C_15 
REMARK    5  A    between atoms: N_16  and  C_17 
REMARK    6  A    between atoms: C_21  and  N_22 
REMARK    7  A    between atoms: C_25  and  C_26 
REMARK    8  A    between atoms: C_26  and  N_27 
ROOT
HETATM    1  C   UNL     1       7.435  28.901  57.244  1.00  0.00     0.154 A 
HETATM    2  N   UNL     1       6.270  29.241  56.547  1.00  0.00    -0.184 N 
HETATM    3  N   UNL     1       5.829  30.449  57.010  1.00  0.00    -0.058 NA
HETATM    4  N   UNL     1       6.597  30.854  58.000  1.00  0.00    -0.132 NA
HETATM    5  C   UNL     1       7.571  29.921  58.181  1.00  0.00     0.118 A 
ENDROOT
BRANCH   1   6
HETATM    6  C   UNL     1       8.283  27.732  57.170  1.00  0.00     0.271 C 
HETATM    7  N   UNL     1       7.678  26.480  57.271  1.00  0.00    -0.145 NA
HETATM    8  H   UNL     1       6.801  26.476  57.792  1.00  0.00     0.158 HD
HETATM    9  O   UNL     1       9.472  27.873  56.889  1.00  0.00    -0.271 OA
BRANCH   7  10
HETATM   10  N   UNL     1       8.441  25.420  57.660  1.00  0.00    -0.205 NA
HETATM   11  C   UNL     1       8.732  24.422  56.872  1.00  0.00     0.147 C 
BRANCH  11  12
HETATM   12  C   UNL     1       8.338  24.058  55.486  1.00  0.00     0.019 A 
HETATM   13  C   UNL     1       8.539  22.727  55.070  1.00  0.00     0.101 A 
HETATM   14  C   UNL     1       8.267  22.347  53.745  1.00  0.00     0.069 A 
HETATM   15 CL   UNL     1       8.575  20.745  53.178  1.00  0.00    -0.081 Cl
HETATM   16  C   UNL     1       7.752  23.273  52.841  1.00  0.00     0.050 A 
HETATM   17  C   UNL     1       7.507  24.572  53.268  1.00  0.00     0.036 A 
HETATM   18 CL   UNL     1       6.889  25.737  52.158  1.00  0.00    -0.084 Cl
HETATM   19  C   UNL     1       7.782  24.963  54.580  1.00  0.00     0.039 A 
BRANCH  13  20
HETATM   20  O   UNL     1       9.062  21.812  55.952  1.00  0.00    -0.353 OA
HETATM   21  C   UNL     1       8.052  20.929  56.456  1.00  0.00     0.210 C 
ENDBRANCH  13  20
ENDBRANCH  11  12
ENDBRANCH   7  10
ENDBRANCH   1   6
BRANCH   2  22
HETATM   22  C   UNL     1       5.540  28.535  55.561  1.00  0.00     0.230 A 
HETATM   23  N   UNL     1       5.355  27.222  55.669  1.00  0.00    -0.081 NA
HETATM   24  O   UNL     1       4.598  26.891  54.545  1.00  0.00    -0.103 OA
HETATM   25  N   UNL     1       4.345  28.011  53.765  1.00  0.00    -0.083 NA
HETATM   26  C   UNL     1       4.923  29.031  54.397  1.00  0.00     0.201 A 
BRANCH  26  27
HETATM   27  N   UNL     1       4.891  30.302  53.967  1.00  0.00    -0.379 N 
HETATM   28  H   UNL     1       5.551  30.615  53.261  1.00  0.00     0.158 HD
HETATM   29  H   UNL     1       4.365  31.043  54.423  1.00  0.00     0.158 HD
ENDBRANCH  26  27
ENDBRANCH   2  22
BRANCH   5  30
HETATM   30  C   UNL     1       8.546  30.121  59.297  1.00  0.00     0.298 C 
BRANCH  30  31
HETATM   31  N   UNL     1       7.903  30.855  60.480  1.00  0.00    -0.066 N 
HETATM   32  H   UNL     1       6.974  30.413  60.564  1.00  0.00     0.280 HD
HETATM   33  C   UNL     1       8.652  30.559  61.757  1.00  0.00     0.235 C 
HETATM   34  C   UNL     1       7.908  31.054  62.991  1.00  0.00     0.028 C 
HETATM   35  C   UNL     1       7.992  32.565  63.171  1.00  0.00     0.002 C 
HETATM   36  C   UNL     1       6.935  33.363  62.416  1.00  0.00     0.002 C 
HETATM   37  C   UNL     1       6.555  32.875  61.023  1.00  0.00     0.028 C 
HETATM   38  C   UNL     1       7.700  32.321  60.185  1.00  0.00     0.235 C 
ENDBRANCH  30  31
ENDBRANCH   5  30
TORSDOF 8
ENDMDL
MODEL 5
REMARK VINA RESULT:      -9.1      3.526      7.630
REMARK  8 active torsions:
REMARK  status: ('A' for Active; 'I' for Inactive)
REMARK    1  A    between atoms: O_2  and  C_3 
REMARK    2  A    between atoms: C_10  and  C_11 
REMARK    3  A    between atoms: N_12  and  N_13 
REMARK       I    between atoms: N_13  and  C_14 
REMARK    4  A    between atoms: C_14  and  C_15 
REMARK    5  A    between atoms: N_16  and  C_17 
REMARK    6  A    between atoms: C_21  and  N_22 
REMARK    7  A    between atoms: C_25  and  C_26 
REMARK    8  A    between atoms: C_26  and  N_27 
ROOT
HETATM    1  C   UNL     1       6.118  28.362  56.811  1.00  0.00     0.154 A 
HETATM    2  N   UNL     1       6.932  29.076  57.698  1.00  0.00    -0.184 N 
HETATM    3  N   UNL     1       7.856  28.216  58.221  1.00  0.00    -0.058 NA
HETATM    4  N   UNL     1       7.631  26.996  57.778  1.00  0.00    -0.132 NA
HETATM    5  C   UNL     1       6.564  27.049  56.935  1.00  0.00     0.118 A 
ENDROOT
BRANCH   1   6
HETATM    6  C   UNL     1       4.981  28.775  56.019  1.00  0.00     0.271 C 
HETATM    7  N   UNL     1       5.219  29.578  54.904  1.00  0.00    -0.145 NA
HETATM    8  H   UNL     1       6.066  30.143  54.965  1.00  0.00     0.158 HD
HETATM    9  O   UNL     1       3.874  28.302  56.271  1.00  0.00    -0.271 OA
BRANCH   7  10
HETATM   10  N   UNL     1       4.197  30.341  54.424  1.00  0.00    -0.205 NA
HETATM   11  C   UNL     1       3.772  30.273  53.192  1.00  0.00     0.147 C 
BRANCH  11  12
HETATM   12  C   UNL     1       4.219  29.519  51.992  1.00  0.00     0.019 A 
HETATM   13  C   UNL     1       4.438  30.242  50.803  1.00  0.00     0.101 A 
HETATM   14  C   UNL     1       4.776  29.572  49.615  1.00  0.00     0.069 A 
HETATM   15 CL   UNL     1       4.976  30.415  48.121  1.00  0.00    -0.081 Cl
HETATM   16  C   UNL     1       4.942  28.189  49.612  1.00  0.00     0.050 A 
HETATM   17  C   UNL     1       4.774  27.484  50.797  1.00  0.00     0.036 A 
HETATM   18 CL   UNL     1       4.954  25.771  50.809  1.00  0.00    -0.084 Cl
HETATM   19  C   UNL     1       4.429  28.139  51.982  1.00  0.00     0.039 A 
BRANCH  13  20
HETATM   20  O   UNL     1       4.261  31.605  50.794  1.00  0.00    -0.353 OA
HETATM   21  C   UNL     1       5.513  32.299  50.740  1.00  0.00     0.210 C 
ENDBRANCH  13  20
ENDBRANCH  11  12
ENDBRANCH   7  10
ENDBRANCH   1   6
BRANCH   2  22
HETATM   22  C   UNL     1       6.886  30.428  58.115  1.00  0.00     0.230 A 
HETATM   23  N   UNL     1       6.234  31.335  57.392  1.00  0.00    -0.081 NA
HETATM   24  O   UNL     1       6.394  32.521  58.109  1.00  0.00    -0.103 OA
HETATM   25  N   UNL     1       7.154  32.315  59.252  1.00  0.00    -0.083 NA
HETATM   26  C   UNL     1       7.454  31.018  59.260  1.00  0.00     0.201 A 
BRANCH  26  27
HETATM   27  N   UNL     1       8.170  30.413  60.220  1.00  0.00    -0.379 N 
HETATM   28  H   UNL     1       9.179  30.533  60.251  1.00  0.00     0.158 HD
HETATM   29  H   UNL     1       7.803  29.688  60.831  1.00  0.00     0.158 HD
ENDBRANCH  26  27
ENDBRANCH   2  22
BRANCH   5  30
HETATM   30  C   UNL     1       6.066  25.771  56.340  1.00  0.00     0.298 C 
BRANCH  30  31
HETATM   31  N   UNL     1       6.981  25.284  55.210  1.00  0.00    -0.066 N 
HETATM   32  H   UNL     1       7.913  25.633  55.484  1.00  0.00     0.280 HD
HETATM   33  C   UNL     1       7.056  23.776  55.203  1.00  0.00     0.235 C 
HETATM   34  C   UNL     1       8.144  23.256  54.271  1.00  0.00     0.028 C 
HETATM   35  C   UNL     1       7.760  23.346  52.799  1.00  0.00     0.002 C 
HETATM   36  C   UNL     1       8.061  24.684  52.135  1.00  0.00     0.002 C 
HETATM   37  C   UNL     1       7.830  25.942  52.966  1.00  0.00     0.028 C 
HETATM   38  C   UNL     1       6.617  25.909  53.886  1.00  0.00     0.235 C 
ENDBRANCH  30  31
ENDBRANCH   5  30
TORSDOF 8
ENDMDL
MODEL 6
REMARK VINA RESULT:      -9.1      5.576      9.495
REMARK  8 active torsions:
REMARK  status: ('A' for Active; 'I' for Inactive)
REMARK    1  A    between atoms: O_2  and  C_3 
REMARK    2  A    between atoms: C_10  and  C_11 
REMARK    3  A    between atoms: N_12  and  N_13 
REMARK       I    between atoms: N_13  and  C_14 
REMARK    4  A    between atoms: C_14  and  C_15 
REMARK    5  A    between atoms: N_16  and  C_17 
REMARK    6  A    between atoms: C_21  and  N_22 
REMARK    7  A    between atoms: C_25  and  C_26 
REMARK    8  A    between atoms: C_26  and  N_27 
ROOT
HETATM    1  C   UNL     1       6.963  29.302  57.153  1.00  0.00     0.154 A 
HETATM    2  N   UNL     1       8.293  29.473  57.551  1.00  0.00    -0.184 N 
HETATM    3  N   UNL     1       8.945  28.282  57.395  1.00  0.00    -0.058 NA
HETATM    4  N   UNL     1       8.096  27.358  56.996  1.00  0.00    -0.132 NA
HETATM    5  C   UNL     1       6.875  27.944  56.861  1.00  0.00     0.118 A 
ENDROOT
BRANCH   1   6
HETATM    6  C   UNL     1       5.846  30.220  57.141  1.00  0.00     0.271 C 
HETATM    7  N   UNL     1       5.492  30.833  58.342  1.00  0.00    -0.145 NA
HETATM    8  H   UNL     1       5.744  30.303  59.176  1.00  0.00     0.158 HD
HETATM    9  O   UNL     1       5.337  30.528  56.064  1.00  0.00    -0.271 OA
BRANCH   7  10
HETATM   10  N   UNL     1       4.225  31.317  58.476  1.00  0.00    -0.205 NA
HETATM   11  C   UNL     1       3.903  32.249  59.329  1.00  0.00     0.147 C 
BRANCH  11  12
HETATM   12  C   UNL     1       4.651  32.977  60.387  1.00  0.00     0.019 A 
HETATM   13  C   UNL     1       4.196  34.260  60.753  1.00  0.00     0.101 A 
HETATM   14  C   UNL     1       4.914  35.030  61.684  1.00  0.00     0.069 A 
HETATM   15 CL   UNL     1       4.431  36.635  62.099  1.00  0.00    -0.081 Cl
HETATM   16  C   UNL     1       6.057  34.514  62.288  1.00  0.00     0.050 A 
HETATM   17  C   UNL     1       6.475  33.230  61.963  1.00  0.00     0.036 A 
HETATM   18 CL   UNL     1       7.900  32.583  62.684  1.00  0.00    -0.084 Cl
HETATM   19  C   UNL     1       5.775  32.459  61.032  1.00  0.00     0.039 A 
BRANCH  13  20
HETATM   20  O   UNL     1       3.077  34.781  60.150  1.00  0.00    -0.353 OA
HETATM   21  C   UNL     1       1.913  34.621  60.970  1.00  0.00     0.210 C 
ENDBRANCH  13  20
ENDBRANCH  11  12
ENDBRANCH   7  10
ENDBRANCH   1   6
BRANCH   2  22
HETATM   22  C   UNL     1       8.962  30.598  58.090  1.00  0.00     0.230 A 
HETATM   23  N   UNL     1       8.295  31.502  58.803  1.00  0.00    -0.081 NA
HETATM   24  O   UNL     1       9.269  32.433  59.168  1.00  0.00    -0.103 OA
HETATM   25  N   UNL     1      10.511  32.084  58.657  1.00  0.00    -0.083 NA
HETATM   26  C   UNL     1      10.323  30.944  57.995  1.00  0.00     0.201 A 
BRANCH  26  27
HETATM   27  N   UNL     1      11.296  30.267  57.366  1.00  0.00    -0.379 N 
HETATM   28  H   UNL     1      11.129  29.315  57.051  1.00  0.00     0.158 HD
HETATM   29  H   UNL     1      12.266  30.568  57.330  1.00  0.00     0.158 HD
ENDBRANCH  26  27
ENDBRANCH   2  22
BRANCH   5  30
HETATM   30  C   UNL     1       5.716  27.084  56.470  1.00  0.00     0.298 C 
BRANCH  30  31
HETATM   31  N   UNL     1       5.842  26.593  55.023  1.00  0.00    -0.066 N 
HETATM   32  H   UNL     1       6.810  26.842  54.766  1.00  0.00     0.280 HD
HETATM   33  C   UNL     1       5.741  25.088  54.964  1.00  0.00     0.235 C 
HETATM   34  C   UNL     1       6.114  24.537  53.593  1.00  0.00     0.028 C 
HETATM   35  C   UNL     1       5.026  24.755  52.548  1.00  0.00     0.002 C 
HETATM   36  C   UNL     1       5.075  26.102  51.838  1.00  0.00     0.002 C 
HETATM   37  C   UNL     1       5.451  27.319  52.676  1.00  0.00     0.028 C 
HETATM   38  C   UNL     1       4.907  27.332  54.098  1.00  0.00     0.235 C 
ENDBRANCH  30  31
ENDBRANCH   5  30
TORSDOF 8
ENDMDL
MODEL 7
REMARK VINA RESULT:      -8.4      7.012     11.162
REMARK  8 active torsions:
REMARK  status: ('A' for Active; 'I' for Inactive)
REMARK    1  A    between atoms: O_2  and  C_3 
REMARK    2  A    between atoms: C_10  and  C_11 
REMARK    3  A    between atoms: N_12  and  N_13 
REMARK       I    between atoms: N_13  and  C_14 
REMARK    4  A    between atoms: C_14  and  C_15 
REMARK    5  A    between atoms: N_16  and  C_17 
REMARK    6  A    between atoms: C_21  and  N_22 
REMARK    7  A    between atoms: C_25  and  C_26 
REMARK    8  A    between atoms: C_26  and  N_27 
ROOT
HETATM    1  C   UNL     1       6.784  31.186  58.837  1.00  0.00     0.154 A 
HETATM    2  N   UNL     1       7.715  30.990  59.863  1.00  0.00    -0.184 N 
HETATM    3  N   UNL     1       8.605  30.033  59.460  1.00  0.00    -0.058 NA
HETATM    4  N   UNL     1       8.251  29.565  58.281  1.00  0.00    -0.132 NA
HETATM    5  C   UNL     1       7.132  30.231  57.886  1.00  0.00     0.118 A 
ENDROOT
BRANCH   1   6
HETATM    6  C   UNL     1       5.628  32.051  58.752  1.00  0.00     0.271 C 
HETATM    7  N   UNL     1       4.655  31.938  59.744  1.00  0.00    -0.145 NA
HETATM    8  H   UNL     1       4.609  31.021  60.188  1.00  0.00     0.158 HD
HETATM    9  O   UNL     1       5.606  32.936  57.898  1.00  0.00    -0.271 OA
BRANCH   7  10
HETATM   10  N   UNL     1       3.393  32.373  59.467  1.00  0.00    -0.205 NA
HETATM   11  C   UNL     1       2.800  33.320  60.140  1.00  0.00     0.147 C 
BRANCH  11  12
HETATM   12  C   UNL     1       3.171  34.115  61.339  1.00  0.00     0.019 A 
HETATM   13  C   UNL     1       3.093  35.520  61.250  1.00  0.00     0.101 A 
HETATM   14  C   UNL     1       3.514  36.324  62.322  1.00  0.00     0.069 A 
HETATM   15 CL   UNL     1       3.507  38.049  62.221  1.00  0.00    -0.081 Cl
HETATM   16  C   UNL     1       3.970  35.741  63.501  1.00  0.00     0.050 A 
HETATM   17  C   UNL     1       3.999  34.356  63.605  1.00  0.00     0.036 A 
HETATM   18 CL   UNL     1       4.579  33.616  65.048  1.00  0.00    -0.084 Cl
HETATM   19  C   UNL     1       3.591  33.546  62.542  1.00  0.00     0.039 A 
BRANCH  13  20
HETATM   20  O   UNL     1       2.659  36.103  60.084  1.00  0.00    -0.353 OA
HETATM   21  C   UNL     1       3.755  36.460  59.233  1.00  0.00     0.210 C 
ENDBRANCH  13  20
ENDBRANCH  11  12
ENDBRANCH   7  10
ENDBRANCH   1   6
BRANCH   2  22
HETATM   22  C   UNL     1       7.808  31.564  61.153  1.00  0.00     0.230 A 
HETATM   23  N   UNL     1       7.341  32.789  61.382  1.00  0.00    -0.081 NA
HETATM   24  O   UNL     1       7.592  33.001  62.738  1.00  0.00    -0.103 OA
HETATM   25  N   UNL     1       8.219  31.902  63.308  1.00  0.00    -0.083 NA
HETATM   26  C   UNL     1       8.348  31.009  62.329  1.00  0.00     0.201 A 
BRANCH  26  27
HETATM   27  N   UNL     1       8.896  29.794  62.482  1.00  0.00    -0.379 N 
HETATM   28  H   UNL     1       9.536  29.435  61.779  1.00  0.00     0.158 HD
HETATM   29  H   UNL     1       8.585  29.113  63.170  1.00  0.00     0.158 HD
ENDBRANCH  26  27
ENDBRANCH   2  22
BRANCH   5  30
HETATM   30  C   UNL     1       6.491  29.838  56.593  1.00  0.00     0.298 C 
BRANCH  30  31
HETATM   31  N   UNL     1       6.642  28.336  56.326  1.00  0.00    -0.066 N 
HETATM   32  H   UNL     1       7.517  28.088  56.815  1.00  0.00     0.280 HD
HETATM   33  C   UNL     1       5.528  27.565  56.992  1.00  0.00     0.235 C 
HETATM   34  C   UNL     1       5.774  26.061  56.972  1.00  0.00     0.028 C 
HETATM   35  C   UNL     1       5.527  25.435  55.605  1.00  0.00     0.002 C 
HETATM   36  C   UNL     1       6.718  25.476  54.654  1.00  0.00     0.002 C 
HETATM   37  C   UNL     1       7.581  26.733  54.670  1.00  0.00     0.028 C 
HETATM   38  C   UNL     1       6.829  28.045  54.857  1.00  0.00     0.235 C 
ENDBRANCH  30  31
ENDBRANCH   5  30
TORSDOF 8
ENDMDL
MODEL 8
REMARK VINA RESULT:      -8.4      4.477      9.520
REMARK  8 active torsions:
REMARK  status: ('A' for Active; 'I' for Inactive)
REMARK    1  A    between atoms: O_2  and  C_3 
REMARK    2  A    between atoms: C_10  and  C_11 
REMARK    3  A    between atoms: N_12  and  N_13 
REMARK       I    between atoms: N_13  and  C_14 
REMARK    4  A    between atoms: C_14  and  C_15 
REMARK    5  A    between atoms: N_16  and  C_17 
REMARK    6  A    between atoms: C_21  and  N_22 
REMARK    7  A    between atoms: C_25  and  C_26 
REMARK    8  A    between atoms: C_26  and  N_27 
ROOT
HETATM    1  C   UNL     1       6.607  29.353  57.451  1.00  0.00     0.154 A 
HETATM    2  N   UNL     1       7.500  28.279  57.365  1.00  0.00    -0.184 N 
HETATM    3  N   UNL     1       8.482  28.460  58.298  1.00  0.00    -0.058 NA
HETATM    4  N   UNL     1       8.305  29.611  58.913  1.00  0.00    -0.132 NA
HETATM    5  C   UNL     1       7.184  30.188  58.403  1.00  0.00     0.118 A 
ENDROOT
BRANCH   1   6
HETATM    6  C   UNL     1       5.421  29.670  56.686  1.00  0.00     0.271 C 
HETATM    7  N   UNL     1       5.518  29.655  55.296  1.00  0.00    -0.145 NA
HETATM    8  H   UNL     1       6.455  29.839  54.936  1.00  0.00     0.158 HD
HETATM    9  O   UNL     1       4.350  29.808  57.276  1.00  0.00    -0.271 OA
BRANCH   7  10
HETATM   10  N   UNL     1       4.607  30.366  54.574  1.00  0.00    -0.205 NA
HETATM   11  C   UNL     1       4.205  30.014  53.384  1.00  0.00     0.147 C 
BRANCH  11  12
HETATM   12  C   UNL     1       4.585  28.918  52.455  1.00  0.00     0.019 A 
HETATM   13  C   UNL     1       4.928  29.264  51.132  1.00  0.00     0.101 A 
HETATM   14  C   UNL     1       5.211  28.264  50.187  1.00  0.00     0.069 A 
HETATM   15 CL   UNL     1       5.558  28.644  48.538  1.00  0.00    -0.081 Cl
HETATM   16  C   UNL     1       5.198  26.922  50.559  1.00  0.00     0.050 A 
HETATM   17  C   UNL     1       4.909  26.586  51.876  1.00  0.00     0.036 A 
HETATM   18 CL   UNL     1       4.868  24.931  52.350  1.00  0.00    -0.084 Cl
HETATM   19  C   UNL     1       4.618  27.572  52.822  1.00  0.00     0.039 A 
BRANCH  13  20
HETATM   20  O   UNL     1       4.927  30.585  50.754  1.00  0.00    -0.353 OA
HETATM   21  C   UNL     1       3.695  30.950  50.121  1.00  0.00     0.210 C 
ENDBRANCH  13  20
ENDBRANCH  11  12
ENDBRANCH   7  10
ENDBRANCH   1   6
BRANCH   2  22
HETATM   22  C   UNL     1       7.535  27.170  56.485  1.00  0.00     0.230 A 
HETATM   23  N   UNL     1       7.478  27.352  55.168  1.00  0.00    -0.081 NA
HETATM   24  O   UNL     1       7.551  26.062  54.643  1.00  0.00    -0.103 OA
HETATM   25  N   UNL     1       7.638  25.115  55.654  1.00  0.00    -0.083 NA
HETATM   26  C   UNL     1       7.635  25.801  56.795  1.00  0.00     0.201 A 
BRANCH  26  27
HETATM   27  N   UNL     1       7.723  25.243  58.012  1.00  0.00    -0.379 N 
HETATM   28  H   UNL     1       7.646  24.234  58.114  1.00  0.00     0.158 HD
HETATM   29  H   UNL     1       7.684  25.768  58.882  1.00  0.00     0.158 HD
ENDBRANCH  26  27
ENDBRANCH   2  22
BRANCH   5  30
HETATM   30  C   UNL     1       6.796  31.545  58.899  1.00  0.00     0.298 C 
BRANCH  30  31
HETATM   31  N   UNL     1       6.844  31.618  60.430  1.00  0.00    -0.066 N 
HETATM   32  H   UNL     1       6.736  30.634  60.724  1.00  0.00     0.280 HD
HETATM   33  C   UNL     1       8.205  32.073  60.896  1.00  0.00     0.235 C 
HETATM   34  C   UNL     1       8.383  31.917  62.401  1.00  0.00     0.028 C 
HETATM   35  C   UNL     1       7.640  32.979  63.202  1.00  0.00     0.002 C 
HETATM   36  C   UNL     1       6.183  32.655  63.507  1.00  0.00     0.002 C 
HETATM   37  C   UNL     1       5.380  31.957  62.414  1.00  0.00     0.028 C 
HETATM   38  C   UNL     1       5.683  32.404  60.989  1.00  0.00     0.235 C 
ENDBRANCH  30  31
ENDBRANCH   5  30
TORSDOF 8
ENDMDL
MODEL 9
REMARK VINA RESULT:      -8.2      3.809      8.408
REMARK  8 active torsions:
REMARK  status: ('A' for Active; 'I' for Inactive)
REMARK    1  A    between atoms: O_2  and  C_3 
REMARK    2  A    between atoms: C_10  and  C_11 
REMARK    3  A    between atoms: N_12  and  N_13 
REMARK       I    between atoms: N_13  and  C_14 
REMARK    4  A    between atoms: C_14  and  C_15 
REMARK    5  A    between atoms: N_16  and  C_17 
REMARK    6  A    between atoms: C_21  and  N_22 
REMARK    7  A    between atoms: C_25  and  C_26 
REMARK    8  A    between atoms: C_26  and  N_27 
ROOT
HETATM    1  C   UNL     1       7.049  25.755  55.082  1.00  0.00     0.154 A 
HETATM    2  N   UNL     1       7.221  24.508  55.694  1.00  0.00    -0.184 N 
HETATM    3  N   UNL     1       7.139  24.679  57.048  1.00  0.00    -0.058 NA
HETATM    4  N   UNL     1       7.002  25.959  57.328  1.00  0.00    -0.132 NA
HETATM    5  C   UNL     1       6.966  26.642  56.151  1.00  0.00     0.118 A 
ENDROOT
BRANCH   1   6
HETATM    6  C   UNL     1       7.072  26.143  53.689  1.00  0.00     0.271 C 
HETATM    7  N   UNL     1       6.015  25.732  52.879  1.00  0.00    -0.145 NA
HETATM    8  H   UNL     1       5.551  24.879  53.192  1.00  0.00     0.158 HD
HETATM    9  O   UNL     1       7.941  26.923  53.301  1.00  0.00    -0.271 OA
BRANCH   7  10
HETATM   10  N   UNL     1       6.214  25.673  51.532  1.00  0.00    -0.205 NA
HETATM   11  C   UNL     1       5.633  26.479  50.688  1.00  0.00     0.147 C 
BRANCH  11  12
HETATM   12  C   UNL     1       4.617  27.555  50.827  1.00  0.00     0.019 A 
HETATM   13  C   UNL     1       3.847  27.887  49.695  1.00  0.00     0.101 A 
HETATM   14  C   UNL     1       2.934  28.954  49.744  1.00  0.00     0.069 A 
HETATM   15 CL   UNL     1       2.030  29.440  48.355  1.00  0.00    -0.081 Cl
HETATM   16  C   UNL     1       2.748  29.665  50.926  1.00  0.00     0.050 A 
HETATM   17  C   UNL     1       3.472  29.303  52.056  1.00  0.00     0.036 A 
HETATM   18 CL   UNL     1       3.270  30.184  53.522  1.00  0.00    -0.084 Cl
HETATM   19  C   UNL     1       4.389  28.250  52.016  1.00  0.00     0.039 A 
BRANCH  13  20
HETATM   20  O   UNL     1       4.036  27.200  48.520  1.00  0.00    -0.353 OA
HETATM   21  C   UNL     1       3.100  26.124  48.381  1.00  0.00     0.210 C 
ENDBRANCH  13  20
ENDBRANCH  11  12
ENDBRANCH   7  10
ENDBRANCH   1   6
BRANCH   2  22
HETATM   22  C   UNL     1       7.492  23.233  55.142  1.00  0.00     0.230 A 
HETATM   23  N   UNL     1       7.249  22.989  53.857  1.00  0.00    -0.081 NA
HETATM   24  O   UNL     1       7.646  21.663  53.682  1.00  0.00    -0.103 OA
HETATM   25  N   UNL     1       8.112  21.119  54.870  1.00  0.00    -0.083 NA
HETATM   26  C   UNL     1       8.023  22.093  55.774  1.00  0.00     0.201 A 
BRANCH  26  27
HETATM   27  N   UNL     1       8.397  21.970  57.057  1.00  0.00    -0.379 N 
HETATM   28  H   UNL     1       8.861  21.121  57.370  1.00  0.00     0.158 HD
HETATM   29  H   UNL     1       8.093  22.594  57.800  1.00  0.00     0.158 HD
ENDBRANCH  26  27
ENDBRANCH   2  22
BRANCH   5  30
HETATM   30  C   UNL     1       6.875  28.133  56.199  1.00  0.00     0.298 C 
BRANCH  30  31
HETATM   31  N   UNL     1       8.000  28.738  57.047  1.00  0.00    -0.066 N 
HETATM   32  H   UNL     1       8.287  27.960  57.662  1.00  0.00     0.280 HD
HETATM   33  C   UNL     1       9.189  29.080  56.182  1.00  0.00     0.235 C 
HETATM   34  C   UNL     1      10.419  29.442  57.006  1.00  0.00     0.028 C 
HETATM   35  C   UNL     1      10.335  30.835  57.621  1.00  0.00     0.002 C 
HETATM   36  C   UNL     1       9.617  30.904  58.964  1.00  0.00     0.002 C 
HETATM   37  C   UNL     1       8.391  30.016  59.146  1.00  0.00     0.028 C 
HETATM   38  C   UNL     1       7.501  29.864  57.919  1.00  0.00     0.235 C 
ENDBRANCH  30  31
ENDBRANCH   5  30
TORSDOF 8
ENDMDL
MODEL 10
REMARK VINA RESULT:      -8.1      5.547      9.997
REMARK  8 active torsions:
REMARK  status: ('A' for Active; 'I' for Inactive)
REMARK    1  A    between atoms: O_2  and  C_3 
REMARK    2  A    between atoms: C_10  and  C_11 
REMARK    3  A    between atoms: N_12  and  N_13 
REMARK       I    between atoms: N_13  and  C_14 
REMARK    4  A    between atoms: C_14  and  C_15 
REMARK    5  A    between atoms: N_16  and  C_17 
REMARK    6  A    between atoms: C_21  and  N_22 
REMARK    7  A    between atoms: C_25  and  C_26 
REMARK    8  A    between atoms: C_26  and  N_27 
ROOT
HETATM    1  C   UNL     1       6.515  31.581  58.931  1.00  0.00     0.154 A 
HETATM    2  N   UNL     1       7.633  30.784  59.200  1.00  0.00    -0.184 N 
HETATM    3  N   UNL     1       7.985  30.965  60.509  1.00  0.00    -0.058 NA
HETATM    4  N   UNL     1       7.209  31.878  61.056  1.00  0.00    -0.132 NA
HETATM    5  C   UNL     1       6.318  32.289  60.113  1.00  0.00     0.118 A 
ENDROOT
BRANCH   1   6
HETATM    6  C   UNL     1       5.764  31.788  57.712  1.00  0.00     0.271 C 
HETATM    7  N   UNL     1       5.225  30.669  57.080  1.00  0.00    -0.145 NA
HETATM    8  H   UNL     1       5.726  29.799  57.262  1.00  0.00     0.158 HD
HETATM    9  O   UNL     1       5.516  32.938  57.352  1.00  0.00    -0.271 OA
BRANCH   7  10
HETATM   10  N   UNL     1       4.928  30.753  55.752  1.00  0.00    -0.205 NA
HETATM   11  C   UNL     1       4.995  29.735  54.940  1.00  0.00     0.147 C 
BRANCH  11  12
HETATM   12  C   UNL     1       5.434  28.324  55.094  1.00  0.00     0.019 A 
HETATM   13  C   UNL     1       6.322  27.800  54.133  1.00  0.00     0.101 A 
HETATM   14  C   UNL     1       6.703  26.448  54.179  1.00  0.00     0.069 A 
HETATM   15 CL   UNL     1       7.725  25.751  52.974  1.00  0.00    -0.081 Cl
HETATM   16  C   UNL     1       6.242  25.623  55.202  1.00  0.00     0.050 A 
HETATM   17  C   UNL     1       5.408  26.155  56.177  1.00  0.00     0.036 A 
HETATM   18 CL   UNL     1       4.811  25.145  57.439  1.00  0.00    -0.084 Cl
HETATM   19  C   UNL     1       5.015  27.495  56.136  1.00  0.00     0.039 A 
BRANCH  13  20
HETATM   20  O   UNL     1       6.768  28.603  53.111  1.00  0.00    -0.353 OA
HETATM   21  C   UNL     1       5.908  28.528  51.968  1.00  0.00     0.210 C 
ENDBRANCH  13  20
ENDBRANCH  11  12
ENDBRANCH   7  10
ENDBRANCH   1   6
BRANCH   2  22
HETATM   22  C   UNL     1       8.395  29.940  58.358  1.00  0.00     0.230 A 
HETATM   23  N   UNL     1       7.914  28.761  57.970  1.00  0.00    -0.081 NA
HETATM   24  O   UNL     1       8.918  28.234  57.157  1.00  0.00    -0.103 OA
HETATM   25  N   UNL     1      10.000  29.100  57.075  1.00  0.00    -0.083 NA
HETATM   26  C   UNL     1       9.674  30.159  57.813  1.00  0.00     0.201 A 
BRANCH  26  27
HETATM   27  N   UNL     1      10.457  31.237  57.975  1.00  0.00    -0.379 N 
HETATM   28  H   UNL     1      11.074  31.532  57.223  1.00  0.00     0.158 HD
HETATM   29  H   UNL     1      10.620  31.691  58.870  1.00  0.00     0.158 HD
ENDBRANCH  26  27
ENDBRANCH   2  22
BRANCH   5  30
HETATM   30  C   UNL     1       5.356  33.375  60.472  1.00  0.00     0.298 C 
BRANCH  30  31
HETATM   31  N   UNL     1       5.506  33.796  61.939  1.00  0.00    -0.066 N 
HETATM   32  H   UNL     1       6.464  33.498  62.181  1.00  0.00     0.280 HD
HETATM   33  C   UNL     1       5.465  35.300  62.064  1.00  0.00     0.235 C 
HETATM   34  C   UNL     1       5.864  35.775  63.457  1.00  0.00     0.028 C 
HETATM   35  C   UNL     1       4.771  35.556  64.496  1.00  0.00     0.002 C 
HETATM   36  C   UNL     1       4.767  34.177  65.146  1.00  0.00     0.002 C 
HETATM   37  C   UNL     1       5.092  32.984  64.254  1.00  0.00     0.028 C 
HETATM   38  C   UNL     1       4.543  33.056  62.835  1.00  0.00     0.235 C 
ENDBRANCH  30  31
ENDBRANCH   5  30
TORSDOF 8
ENDMDL
