MODEL 1
REMARK VINA RESULT:      -8.8      0.000      0.000
REMARK  6 active torsions:
REMARK  status: ('A' for Active; 'I' for Inactive)
REMARK    1  A    between atoms: C_2  and  O_3 
REMARK    2  A    between atoms: O_3  and  C_4 
REMARK    3  A    between atoms: C_8  and  C_9 
REMARK    4  A    between atoms: C_9  and  N_10 
REMARK       I    between atoms: N_10  and  C_11 
REMARK       I    between atoms: C_11  and  N_12 
REMARK    5  A    between atoms: N_12  and  C_13 
REMARK    6  A    between atoms: C_14  and  C_15 
ROOT
HETATM    1  N   UNL     1       7.905  27.204  56.261  1.00  0.00    -0.339 N 
HETATM    2  C   UNL     1       6.906  26.807  55.414  1.00  0.00     0.316 C 
HETATM    3  N   UNL     1       7.394  26.369  54.206  1.00  0.00    -0.338 N 
HETATM    4  O   UNL     1       5.717  26.840  55.704  1.00  0.00    -0.247 OA
HETATM    5  H   UNL     1       8.857  27.222  55.932  1.00  0.00     0.164 HD
HETATM    6  H   UNL     1       8.377  26.135  54.161  1.00  0.00     0.164 HD
ENDROOT
BRANCH   1   7
HETATM    7  C   UNL     1       7.625  27.737  57.576  1.00  0.00     0.163 C 
BRANCH   7   8
HETATM    8  C   UNL     1       8.397  28.999  57.861  1.00  0.00    -0.035 A 
HETATM    9  C   UNL     1       9.584  29.302  57.188  1.00  0.00     0.028 A 
HETATM   10  C   UNL     1      10.276  30.449  57.543  1.00  0.00     0.120 A 
HETATM   11  N   UNL     1       9.887  31.292  58.523  1.00  0.00    -0.237 NA
HETATM   12  C   UNL     1       8.763  30.969  59.186  1.00  0.00     0.165 A 
HETATM   13  C   UNL     1       7.988  29.859  58.885  1.00  0.00     0.066 A 
BRANCH  12  14
HETATM   14  O   UNL     1       8.303  31.759  60.214  1.00  0.00    -0.324 OA
BRANCH  14  15
HETATM   15  C   UNL     1       8.860  31.612  61.533  1.00  0.00     0.058 C 
HETATM   16  C   UNL     1       9.076  30.140  61.915  1.00  0.00     0.045 C 
HETATM   17  C   UNL     1       8.077  32.383  62.608  1.00  0.00     0.045 C 
HETATM   18  C   UNL     1      10.250  32.269  61.417  1.00  0.00     0.045 C 
ENDBRANCH  14  15
ENDBRANCH  12  14
ENDBRANCH   7   8
ENDBRANCH   1   7
BRANCH   3  19
HETATM   19  C   UNL     1       6.545  25.827  53.182  1.00  0.00     0.095 A 
HETATM   20  C   UNL     1       6.478  24.342  52.887  1.00  0.00     0.043 A 
HETATM   21  C   UNL     1       7.152  25.288  51.922  1.00  0.00     0.037 A 
BRANCH  20  22
HETATM   22  C   UNL     1       7.293  23.348  53.682  1.00  0.00    -0.052 A 
HETATM   23  C   UNL     1       8.303  22.584  53.070  1.00  0.00     0.007 A 
HETATM   24  C   UNL     1       9.066  21.667  53.797  1.00  0.00     0.001 A 
HETATM   25  C   UNL     1       8.840  21.502  55.160  1.00  0.00     0.000 A 
HETATM   26  C   UNL     1       7.858  22.256  55.795  1.00  0.00     0.001 A 
HETATM   27  C   UNL     1       7.097  23.171  55.062  1.00  0.00     0.007 A 
ENDBRANCH  20  22
ENDBRANCH   3  19
TORSDOF 6
ENDMDL
MODEL 2
REMARK VINA RESULT:      -8.7      1.514      2.009
REMARK  6 active torsions:
REMARK  status: ('A' for Active; 'I' for Inactive)
REMARK    1  A    between atoms: C_2  and  O_3 
REMARK    2  A    between atoms: O_3  and  C_4 
REMARK    3  A    between atoms: C_8  and  C_9 
REMARK    4  A    between atoms: C_9  and  N_10 
REMARK       I    between atoms: N_10  and  C_11 
REMARK       I    between atoms: C_11  and  N_12 
REMARK    5  A    between atoms: N_12  and  C_13 
REMARK    6  A    between atoms: C_14  and  C_15 
ROOT
HETATM    1  N   UNL     1       5.933  26.900  55.490  1.00  0.00    -0.339 N 
HETATM    2  C   UNL     1       6.301  26.451  54.250  1.00  0.00     0.316 C 
HETATM    3  N   UNL     1       6.354  25.079  54.190  1.00  0.00    -0.338 N 
HETATM    4  O   UNL     1       6.554  27.191  53.308  1.00  0.00    -0.247 OA
HETATM    5  H   UNL     1       5.814  26.240  56.242  1.00  0.00     0.164 HD
HETATM    6  H   UNL     1       5.884  24.565  54.922  1.00  0.00     0.164 HD
ENDROOT
BRANCH   1   7
HETATM    7  C   UNL     1       5.847  28.310  55.797  1.00  0.00     0.163 C 
BRANCH   7   8
HETATM    8  C   UNL     1       7.123  28.849  56.389  1.00  0.00    -0.035 A 
HETATM    9  C   UNL     1       8.282  28.999  55.623  1.00  0.00     0.028 A 
HETATM   10  C   UNL     1       9.439  29.442  56.245  1.00  0.00     0.120 A 
HETATM   11  N   UNL     1       9.527  29.722  57.563  1.00  0.00    -0.237 NA
HETATM   12  C   UNL     1       8.413  29.538  58.294  1.00  0.00     0.165 A 
HETATM   13  C   UNL     1       7.202  29.126  57.758  1.00  0.00     0.066 A 
BRANCH  12  14
HETATM   14  O   UNL     1       8.416  29.779  59.649  1.00  0.00    -0.324 OA
BRANCH  14  15
HETATM   15  C   UNL     1       8.423  31.135  60.133  1.00  0.00     0.058 C 
HETATM   16  C   UNL     1       7.107  31.868  59.835  1.00  0.00     0.045 C 
HETATM   17  C   UNL     1       9.653  31.934  59.671  1.00  0.00     0.045 C 
HETATM   18  C   UNL     1       8.528  30.975  61.663  1.00  0.00     0.045 C 
ENDBRANCH  14  15
ENDBRANCH  12  14
ENDBRANCH   7   8
ENDBRANCH   1   7
BRANCH   3  19
HETATM   19  C   UNL     1       6.639  24.371  52.974  1.00  0.00     0.095 A 
HETATM   20  C   UNL     1       7.339  23.026  52.965  1.00  0.00     0.043 A 
HETATM   21  C   UNL     1       8.054  24.267  52.488  1.00  0.00     0.037 A 
BRANCH  20  22
HETATM   22  C   UNL     1       7.750  22.349  54.252  1.00  0.00    -0.052 A 
HETATM   23  C   UNL     1       7.669  20.953  54.394  1.00  0.00     0.007 A 
HETATM   24  C   UNL     1       8.052  20.316  55.577  1.00  0.00     0.001 A 
HETATM   25  C   UNL     1       8.538  21.067  56.644  1.00  0.00     0.000 A 
HETATM   26  C   UNL     1       8.644  22.449  56.525  1.00  0.00     0.001 A 
HETATM   27  C   UNL     1       8.257  23.080  55.339  1.00  0.00     0.007 A 
ENDBRANCH  20  22
ENDBRANCH   3  19
TORSDOF 6
ENDMDL
MODEL 3
REMARK VINA RESULT:      -8.7      1.966      9.642
REMARK  6 active torsions:
REMARK  status: ('A' for Active; 'I' for Inactive)
REMARK    1  A    between atoms: C_2  and  O_3 
REMARK    2  A    between atoms: O_3  and  C_4 
REMARK    3  A    between atoms: C_8  and  C_9 
REMARK    4  A    between atoms: C_9  and  N_10 
REMARK       I    between atoms: N_10  and  C_11 
REMARK       I    between atoms: C_11  and  N_12 
REMARK    5  A    between atoms: N_12  and  C_13 
REMARK    6  A    between atoms: C_14  and  C_15 
ROOT
HETATM    1  N   UNL     1       6.285  29.383  57.933  1.00  0.00    -0.339 N 
HETATM    2  C   UNL     1       7.585  29.778  58.105  1.00  0.00     0.316 C 
HETATM    3  N   UNL     1       7.847  30.146  59.403  1.00  0.00    -0.338 N 
HETATM    4  O   UNL     1       8.413  29.799  57.204  1.00  0.00    -0.247 OA
HETATM    5  H   UNL     1       5.636  29.462  58.700  1.00  0.00     0.164 HD
HETATM    6  H   UNL     1       7.189  29.850  60.111  1.00  0.00     0.164 HD
ENDROOT
BRANCH   1   7
HETATM    7  C   UNL     1       5.772  28.986  56.641  1.00  0.00     0.163 C 
BRANCH   7   8
HETATM    8  C   UNL     1       5.823  27.495  56.436  1.00  0.00    -0.035 A 
HETATM    9  C   UNL     1       5.065  26.619  57.218  1.00  0.00     0.028 A 
HETATM   10  C   UNL     1       5.206  25.255  57.017  1.00  0.00     0.120 A 
HETATM   11  N   UNL     1       6.053  24.708  56.120  1.00  0.00    -0.237 NA
HETATM   12  C   UNL     1       6.802  25.561  55.400  1.00  0.00     0.165 A 
HETATM   13  C   UNL     1       6.712  26.941  55.509  1.00  0.00     0.066 A 
BRANCH  12  14
HETATM   14  O   UNL     1       7.707  25.092  54.476  1.00  0.00    -0.324 OA
BRANCH  14  15
HETATM   15  C   UNL     1       7.236  24.444  53.280  1.00  0.00     0.058 C 
HETATM   16  C   UNL     1       5.742  24.693  53.030  1.00  0.00     0.045 C 
HETATM   17  C   UNL     1       7.595  22.950  53.221  1.00  0.00     0.045 C 
HETATM   18  C   UNL     1       8.018  25.148  52.152  1.00  0.00     0.045 C 
ENDBRANCH  14  15
ENDBRANCH  12  14
ENDBRANCH   7   8
ENDBRANCH   1   7
BRANCH   3  19
HETATM   19  C   UNL     1       9.159  30.523  59.847  1.00  0.00     0.095 A 
HETATM   20  C   UNL     1       9.380  31.538  60.951  1.00  0.00     0.043 A 
HETATM   21  C   UNL     1       9.695  31.883  59.515  1.00  0.00     0.037 A 
BRANCH  20  22
HETATM   22  C   UNL     1       8.216  32.191  61.659  1.00  0.00    -0.052 A 
HETATM   23  C   UNL     1       8.158  32.242  63.064  1.00  0.00     0.007 A 
HETATM   24  C   UNL     1       7.089  32.847  63.728  1.00  0.00     0.001 A 
HETATM   25  C   UNL     1       6.055  33.426  62.998  1.00  0.00     0.000 A 
HETATM   26  C   UNL     1       6.094  33.404  61.607  1.00  0.00     0.001 A 
HETATM   27  C   UNL     1       7.165  32.795  60.948  1.00  0.00     0.007 A 
ENDBRANCH  20  22
ENDBRANCH   3  19
TORSDOF 6
ENDMDL
MODEL 4
REMARK VINA RESULT:      -8.7      1.627      2.147
REMARK  6 active torsions:
REMARK  status: ('A' for Active; 'I' for Inactive)
REMARK    1  A    between atoms: C_2  and  O_3 
REMARK    2  A    between atoms: O_3  and  C_4 
REMARK    3  A    between atoms: C_8  and  C_9 
REMARK    4  A    between atoms: C_9  and  N_10 
REMARK       I    between atoms: N_10  and  C_11 
REMARK       I    between atoms: C_11  and  N_12 
REMARK    5  A    between atoms: N_12  and  C_13 
REMARK    6  A    between atoms: C_14  and  C_15 
ROOT
HETATM    1  N   UNL     1       6.483  28.852  54.722  1.00  0.00    -0.339 N 
HETATM    2  C   UNL     1       5.447  28.115  54.213  1.00  0.00     0.316 C 
HETATM    3  N   UNL     1       5.815  27.410  53.092  1.00  0.00    -0.338 N 
HETATM    4  O   UNL     1       4.326  28.091  54.703  1.00  0.00    -0.247 OA
HETATM    5  H   UNL     1       7.359  28.886  54.226  1.00  0.00     0.164 HD
HETATM    6  H   UNL     1       6.804  27.290  52.924  1.00  0.00     0.164 HD
ENDROOT
BRANCH   1   7
HETATM    7  C   UNL     1       6.319  29.702  55.880  1.00  0.00     0.163 C 
BRANCH   7   8
HETATM    8  C   UNL     1       7.548  29.732  56.750  1.00  0.00    -0.035 A 
HETATM    9  C   UNL     1       8.816  29.439  56.241  1.00  0.00     0.028 A 
HETATM   10  C   UNL     1       9.896  29.426  57.109  1.00  0.00     0.120 A 
HETATM   11  N   UNL     1       9.800  29.658  58.435  1.00  0.00    -0.237 NA
HETATM   12  C   UNL     1       8.569  29.902  58.918  1.00  0.00     0.165 A 
HETATM   13  C   UNL     1       7.433  29.965  58.124  1.00  0.00     0.066 A 
BRANCH  12  14
HETATM   14  O   UNL     1       8.374  30.130  60.260  1.00  0.00    -0.324 OA
BRANCH  14  15
HETATM   15  C   UNL     1       8.305  31.482  60.753  1.00  0.00     0.058 C 
HETATM   16  C   UNL     1       6.879  32.050  60.702  1.00  0.00     0.045 C 
HETATM   17  C   UNL     1       9.329  32.418  60.090  1.00  0.00     0.045 C 
HETATM   18  C   UNL     1       8.699  31.349  62.237  1.00  0.00     0.045 C 
ENDBRANCH  14  15
ENDBRANCH  12  14
ENDBRANCH   7   8
ENDBRANCH   1   7
BRANCH   3  19
HETATM   19  C   UNL     1       4.923  26.504  52.424  1.00  0.00     0.095 A 
HETATM   20  C   UNL     1       5.116  25.001  52.464  1.00  0.00     0.043 A 
HETATM   21  C   UNL     1       5.384  25.776  51.197  1.00  0.00     0.037 A 
BRANCH  20  22
HETATM   22  C   UNL     1       6.255  24.378  53.238  1.00  0.00    -0.052 A 
HETATM   23  C   UNL     1       6.263  24.380  54.644  1.00  0.00     0.007 A 
HETATM   24  C   UNL     1       7.308  23.802  55.368  1.00  0.00     0.001 A 
HETATM   25  C   UNL     1       8.368  23.198  54.698  1.00  0.00     0.000 A 
HETATM   26  C   UNL     1       8.379  23.168  53.307  1.00  0.00     0.001 A 
HETATM   27  C   UNL     1       7.331  23.750  52.588  1.00  0.00     0.007 A 
ENDBRANCH  20  22
ENDBRANCH   3  19
TORSDOF 6
ENDMDL
MODEL 5
REMARK VINA RESULT:      -8.6      2.408      3.656
REMARK  6 active torsions:
REMARK  status: ('A' for Active; 'I' for Inactive)
REMARK    1  A    between atoms: C_2  and  O_3 
REMARK    2  A    between atoms: O_3  and  C_4 
REMARK    3  A    between atoms: C_8  and  C_9 
REMARK    4  A    between atoms: C_9  and  N_10 
REMARK       I    between atoms: N_10  and  C_11 
REMARK       I    between atoms: C_11  and  N_12 
REMARK    5  A    between atoms: N_12  and  C_13 
REMARK    6  A    between atoms: C_14  and  C_15 
ROOT
HETATM    1  N   UNL     1       4.551  26.881  54.172  1.00  0.00    -0.339 N 
HETATM    2  C   UNL     1       5.378  26.532  53.139  1.00  0.00     0.316 C 
HETATM    3  N   UNL     1       5.843  25.244  53.259  1.00  0.00    -0.338 N 
HETATM    4  O   UNL     1       5.666  27.283  52.216  1.00  0.00    -0.247 OA
HETATM    5  H   UNL     1       4.416  26.241  54.938  1.00  0.00     0.164 HD
HETATM    6  H   UNL     1       5.352  24.632  53.896  1.00  0.00     0.164 HD
ENDROOT
BRANCH   1   7
HETATM    7  C   UNL     1       3.972  28.202  54.274  1.00  0.00     0.163 C 
BRANCH   7   8
HETATM    8  C   UNL     1       4.533  28.988  55.430  1.00  0.00    -0.035 A 
HETATM    9  C   UNL     1       3.703  29.639  56.348  1.00  0.00     0.028 A 
HETATM   10  C   UNL     1       4.286  30.395  57.353  1.00  0.00     0.120 A 
HETATM   11  N   UNL     1       5.617  30.566  57.493  1.00  0.00    -0.237 NA
HETATM   12  C   UNL     1       6.402  29.964  56.581  1.00  0.00     0.165 A 
HETATM   13  C   UNL     1       5.914  29.164  55.558  1.00  0.00     0.066 A 
BRANCH  12  14
HETATM   14  O   UNL     1       7.770  30.100  56.635  1.00  0.00    -0.324 OA
BRANCH  14  15
HETATM   15  C   UNL     1       8.523  29.359  57.613  1.00  0.00     0.058 C 
HETATM   16  C   UNL     1       8.124  27.877  57.658  1.00  0.00     0.045 C 
HETATM   17  C   UNL     1       8.507  30.009  59.006  1.00  0.00     0.045 C 
HETATM   18  C   UNL     1       9.971  29.433  57.089  1.00  0.00     0.045 C 
ENDBRANCH  14  15
ENDBRANCH  12  14
ENDBRANCH   7   8
ENDBRANCH   1   7
BRANCH   3  19
HETATM   19  C   UNL     1       6.663  24.624  52.257  1.00  0.00     0.095 A 
HETATM   20  C   UNL     1       7.702  23.574  52.597  1.00  0.00     0.043 A 
HETATM   21  C   UNL     1       8.122  24.961  52.176  1.00  0.00     0.037 A 
BRANCH  20  22
HETATM   22  C   UNL     1       7.908  23.108  54.020  1.00  0.00    -0.052 A 
HETATM   23  C   UNL     1       7.666  21.773  54.389  1.00  0.00     0.007 A 
HETATM   24  C   UNL     1       7.858  21.331  55.700  1.00  0.00     0.001 A 
HETATM   25  C   UNL     1       8.311  22.218  56.672  1.00  0.00     0.000 A 
HETATM   26  C   UNL     1       8.574  23.542  56.333  1.00  0.00     0.001 A 
HETATM   27  C   UNL     1       8.377  23.978  55.019  1.00  0.00     0.007 A 
ENDBRANCH  20  22
ENDBRANCH   3  19
TORSDOF 6
ENDMDL
MODEL 6
REMARK VINA RESULT:      -8.5      2.150      9.067
REMARK  6 active torsions:
REMARK  status: ('A' for Active; 'I' for Inactive)
REMARK    1  A    between atoms: C_2  and  O_3 
REMARK    2  A    between atoms: O_3  and  C_4 
REMARK    3  A    between atoms: C_8  and  C_9 
REMARK    4  A    between atoms: C_9  and  N_10 
REMARK       I    between atoms: N_10  and  C_11 
REMARK       I    between atoms: C_11  and  N_12 
REMARK    5  A    between atoms: N_12  and  C_13 
REMARK    6  A    between atoms: C_14  and  C_15 
ROOT
HETATM    1  N   UNL     1       7.356  27.875  57.798  1.00  0.00    -0.339 N 
HETATM    2  C   UNL     1       7.103  29.146  57.355  1.00  0.00     0.316 C 
HETATM    3  N   UNL     1       6.096  29.752  58.068  1.00  0.00    -0.338 N 
HETATM    4  O   UNL     1       7.706  29.675  56.431  1.00  0.00    -0.247 OA
HETATM    5  H   UNL     1       6.771  27.472  58.513  1.00  0.00     0.164 HD
HETATM    6  H   UNL     1       5.848  29.344  58.959  1.00  0.00     0.164 HD
ENDROOT
BRANCH   1   7
HETATM    7  C   UNL     1       8.350  27.032  57.172  1.00  0.00     0.163 C 
BRANCH   7   8
HETATM    8  C   UNL     1       7.746  26.056  56.197  1.00  0.00    -0.035 A 
HETATM    9  C   UNL     1       7.026  26.485  55.079  1.00  0.00     0.028 A 
HETATM   10  C   UNL     1       6.444  25.534  54.256  1.00  0.00     0.120 A 
HETATM   11  N   UNL     1       6.508  24.204  54.478  1.00  0.00    -0.237 NA
HETATM   12  C   UNL     1       7.173  23.807  55.577  1.00  0.00     0.165 A 
HETATM   13  C   UNL     1       7.812  24.681  56.444  1.00  0.00     0.066 A 
BRANCH  12  14
HETATM   14  O   UNL     1       7.273  22.472  55.893  1.00  0.00    -0.324 OA
BRANCH  14  15
HETATM   15  C   UNL     1       8.267  21.657  55.245  1.00  0.00     0.058 C 
HETATM   16  C   UNL     1       9.525  22.455  54.873  1.00  0.00     0.045 C 
HETATM   17  C   UNL     1       7.710  20.859  54.055  1.00  0.00     0.045 C 
HETATM   18  C   UNL     1       8.669  20.639  56.331  1.00  0.00     0.045 C 
ENDBRANCH  14  15
ENDBRANCH  12  14
ENDBRANCH   7   8
ENDBRANCH   1   7
BRANCH   3  19
HETATM   19  C   UNL     1       5.704  31.115  57.841  1.00  0.00     0.095 A 
HETATM   20  C   UNL     1       6.244  32.262  58.673  1.00  0.00     0.043 A 
HETATM   21  C   UNL     1       4.813  31.806  58.829  1.00  0.00     0.037 A 
BRANCH  20  22
HETATM   22  C   UNL     1       7.250  32.024  59.775  1.00  0.00    -0.052 A 
HETATM   23  C   UNL     1       8.629  31.981  59.502  1.00  0.00     0.007 A 
HETATM   24  C   UNL     1       9.567  31.768  60.514  1.00  0.00     0.001 A 
HETATM   25  C   UNL     1       9.144  31.603  61.830  1.00  0.00     0.000 A 
HETATM   26  C   UNL     1       7.787  31.656  62.132  1.00  0.00     0.001 A 
HETATM   27  C   UNL     1       6.853  31.868  61.114  1.00  0.00     0.007 A 
ENDBRANCH  20  22
ENDBRANCH   3  19
TORSDOF 6
ENDMDL
MODEL 7
REMARK VINA RESULT:      -8.5      1.511      2.343
REMARK  6 active torsions:
REMARK  status: ('A' for Active; 'I' for Inactive)
REMARK    1  A    between atoms: C_2  and  O_3 
REMARK    2  A    between atoms: O_3  and  C_4 
REMARK    3  A    between atoms: C_8  and  C_9 
REMARK    4  A    between atoms: C_9  and  N_10 
REMARK       I    between atoms: N_10  and  C_11 
REMARK       I    between atoms: C_11  and  N_12 
REMARK    5  A    between atoms: N_12  and  C_13 
REMARK    6  A    between atoms: C_14  and  C_15 
ROOT
HETATM    1  N   UNL     1       7.572  28.734  56.385  1.00  0.00    -0.339 N 
HETATM    2  C   UNL     1       6.351  28.482  55.818  1.00  0.00     0.316 C 
HETATM    3  N   UNL     1       6.386  28.579  54.448  1.00  0.00    -0.338 N 
HETATM    4  O   UNL     1       5.348  28.204  56.463  1.00  0.00    -0.247 OA
HETATM    5  H   UNL     1       8.338  29.031  55.803  1.00  0.00     0.164 HD
HETATM    6  H   UNL     1       7.294  28.552  54.005  1.00  0.00     0.164 HD
ENDROOT
BRANCH   1   7
HETATM    7  C   UNL     1       7.765  28.725  57.818  1.00  0.00     0.163 C 
BRANCH   7   8
HETATM    8  C   UNL     1       8.390  29.999  58.322  1.00  0.00    -0.035 A 
HETATM    9  C   UNL     1       9.647  30.425  57.883  1.00  0.00     0.028 A 
HETATM   10  C   UNL     1      10.190  31.575  58.434  1.00  0.00     0.120 A 
HETATM   11  N   UNL     1       9.588  32.309  59.394  1.00  0.00    -0.237 NA
HETATM   12  C   UNL     1       8.396  31.867  59.832  1.00  0.00     0.165 A 
HETATM   13  C   UNL     1       7.759  30.745  59.323  1.00  0.00     0.066 A 
BRANCH  12  14
HETATM   14  O   UNL     1       7.720  32.541  60.823  1.00  0.00    -0.324 OA
BRANCH  14  15
HETATM   15  C   UNL     1       7.693  32.006  62.160  1.00  0.00     0.058 C 
HETATM   16  C   UNL     1       7.985  33.075  63.222  1.00  0.00     0.045 C 
HETATM   17  C   UNL     1       8.578  30.761  62.328  1.00  0.00     0.045 C 
HETATM   18  C   UNL     1       6.230  31.557  62.343  1.00  0.00     0.045 C 
ENDBRANCH  14  15
ENDBRANCH  12  14
ENDBRANCH   7   8
ENDBRANCH   1   7
BRANCH   3  19
HETATM   19  C   UNL     1       5.248  28.282  53.625  1.00  0.00     0.095 A 
HETATM   20  C   UNL     1       5.057  26.932  52.962  1.00  0.00     0.043 A 
HETATM   21  C   UNL     1       5.417  28.147  52.141  1.00  0.00     0.037 A 
BRANCH  20  22
HETATM   22  C   UNL     1       6.056  25.815  53.159  1.00  0.00    -0.052 A 
HETATM   23  C   UNL     1       7.054  25.559  52.202  1.00  0.00     0.007 A 
HETATM   24  C   UNL     1       7.986  24.533  52.377  1.00  0.00     0.001 A 
HETATM   25  C   UNL     1       7.945  23.745  53.524  1.00  0.00     0.000 A 
HETATM   26  C   UNL     1       6.977  23.986  54.494  1.00  0.00     0.001 A 
HETATM   27  C   UNL     1       6.047  25.013  54.313  1.00  0.00     0.007 A 
ENDBRANCH  20  22
ENDBRANCH   3  19
TORSDOF 6
ENDMDL
MODEL 8
REMARK VINA RESULT:      -8.3      2.417      9.233
REMARK  6 active torsions:
REMARK  status: ('A' for Active; 'I' for Inactive)
REMARK    1  A    between atoms: C_2  and  O_3 
REMARK    2  A    between atoms: O_3  and  C_4 
REMARK    3  A    between atoms: C_8  and  C_9 
REMARK    4  A    between atoms: C_9  and  N_10 
REMARK       I    between atoms: N_10  and  C_11 
REMARK       I    between atoms: C_11  and  N_12 
REMARK    5  A    between atoms: N_12  and  C_13 
REMARK    6  A    between atoms: C_14  and  C_15 
ROOT
HETATM    1  N   UNL     1       4.850  30.660  58.513  1.00  0.00    -0.339 N 
HETATM    2  C   UNL     1       5.174  31.929  58.911  1.00  0.00     0.316 C 
HETATM    3  N   UNL     1       4.829  32.166  60.220  1.00  0.00    -0.338 N 
HETATM    4  O   UNL     1       5.710  32.753  58.181  1.00  0.00    -0.247 OA
HETATM    5  H   UNL     1       4.342  30.057  59.141  1.00  0.00     0.164 HD
HETATM    6  H   UNL     1       4.639  31.362  60.803  1.00  0.00     0.164 HD
ENDROOT
BRANCH   1   7
HETATM    7  C   UNL     1       5.088  30.198  57.164  1.00  0.00     0.163 C 
BRANCH   7   8
HETATM    8  C   UNL     1       5.845  28.896  57.127  1.00  0.00    -0.035 A 
HETATM    9  C   UNL     1       7.098  28.757  57.730  1.00  0.00     0.028 A 
HETATM   10  C   UNL     1       7.767  27.550  57.606  1.00  0.00     0.120 A 
HETATM   11  N   UNL     1       7.293  26.493  56.913  1.00  0.00    -0.237 NA
HETATM   12  C   UNL     1       6.103  26.653  56.308  1.00  0.00     0.165 A 
HETATM   13  C   UNL     1       5.346  27.812  56.398  1.00  0.00     0.066 A 
BRANCH  12  14
HETATM   14  O   UNL     1       5.552  25.635  55.564  1.00  0.00    -0.324 OA
BRANCH  14  15
HETATM   15  C   UNL     1       6.164  25.249  54.319  1.00  0.00     0.058 C 
HETATM   16  C   UNL     1       6.913  23.913  54.425  1.00  0.00     0.045 C 
HETATM   17  C   UNL     1       7.036  26.358  53.706  1.00  0.00     0.045 C 
HETATM   18  C   UNL     1       4.965  25.035  53.374  1.00  0.00     0.045 C 
ENDBRANCH  14  15
ENDBRANCH  12  14
ENDBRANCH   7   8
ENDBRANCH   1   7
BRANCH   3  19
HETATM   19  C   UNL     1       5.139  33.399  60.888  1.00  0.00     0.095 A 
HETATM   20  C   UNL     1       6.465  33.631  61.584  1.00  0.00     0.043 A 
HETATM   21  C   UNL     1       5.200  33.439  62.386  1.00  0.00     0.037 A 
BRANCH  20  22
HETATM   22  C   UNL     1       7.544  32.573  61.587  1.00  0.00    -0.052 A 
HETATM   23  C   UNL     1       7.609  31.606  62.607  1.00  0.00     0.007 A 
HETATM   24  C   UNL     1       8.599  30.621  62.616  1.00  0.00     0.001 A 
HETATM   25  C   UNL     1       9.542  30.574  61.594  1.00  0.00     0.000 A 
HETATM   26  C   UNL     1       9.492  31.508  60.564  1.00  0.00     0.001 A 
HETATM   27  C   UNL     1       8.501  32.493  60.561  1.00  0.00     0.007 A 
ENDBRANCH  20  22
ENDBRANCH   3  19
TORSDOF 6
ENDMDL
MODEL 9
REMARK VINA RESULT:      -8.0      5.237      8.739
REMARK  6 active torsions:
REMARK  status: ('A' for Active; 'I' for Inactive)
REMARK    1  A    between atoms: C_2  and  O_3 
REMARK    2  A    between atoms: O_3  and  C_4 
REMARK    3  A    between atoms: C_8  and  C_9 
REMARK    4  A    between atoms: C_9  and  N_10 
REMARK       I    between atoms: N_10  and  C_11 
REMARK       I    between atoms: C_11  and  N_12 
REMARK    5  A    between atoms: N_12  and  C_13 
REMARK    6  A    between atoms: C_14  and  C_15 
ROOT
HETATM    1  N   UNL     1       5.256  25.712  51.897  1.00  0.00    -0.339 N 
HETATM    2  C   UNL     1       4.992  27.055  51.897  1.00  0.00     0.316 C 
HETATM    3  N   UNL     1       5.517  27.686  50.796  1.00  0.00    -0.338 N 
HETATM    4  O   UNL     1       4.360  27.622  52.779  1.00  0.00    -0.247 OA
HETATM    5  H   UNL     1       5.846  25.321  51.180  1.00  0.00     0.164 HD
HETATM    6  H   UNL     1       5.785  27.106  50.013  1.00  0.00     0.164 HD
ENDROOT
BRANCH   1   7
HETATM    7  C   UNL     1       4.832  24.850  52.978  1.00  0.00     0.163 C 
BRANCH   7   8
HETATM    8  C   UNL     1       5.914  24.637  54.003  1.00  0.00    -0.035 A 
HETATM    9  C   UNL     1       6.032  25.457  55.128  1.00  0.00     0.028 A 
HETATM   10  C   UNL     1       7.089  25.244  56.000  1.00  0.00     0.120 A 
HETATM   11  N   UNL     1       8.036  24.300  55.820  1.00  0.00    -0.237 NA
HETATM   12  C   UNL     1       7.931  23.542  54.714  1.00  0.00     0.165 A 
HETATM   13  C   UNL     1       6.895  23.660  53.800  1.00  0.00     0.066 A 
BRANCH  12  14
HETATM   14  O   UNL     1       8.863  22.568  54.440  1.00  0.00    -0.324 OA
BRANCH  14  15
HETATM   15  C   UNL     1       8.542  21.185  54.681  1.00  0.00     0.058 C 
HETATM   16  C   UNL     1       8.397  20.383  53.379  1.00  0.00     0.045 C 
HETATM   17  C   UNL     1       7.336  21.000  55.617  1.00  0.00     0.045 C 
HETATM   18  C   UNL     1       9.783  20.647  55.421  1.00  0.00     0.045 C 
ENDBRANCH  14  15
ENDBRANCH  12  14
ENDBRANCH   7   8
ENDBRANCH   1   7
BRANCH   3  19
HETATM   19  C   UNL     1       5.304  29.082  50.533  1.00  0.00     0.095 A 
HETATM   20  C   UNL     1       4.265  29.571  49.544  1.00  0.00     0.043 A 
HETATM   21  C   UNL     1       5.736  29.666  49.221  1.00  0.00     0.037 A 
BRANCH  20  22
HETATM   22  C   UNL     1       3.376  28.602  48.798  1.00  0.00    -0.052 A 
HETATM   23  C   UNL     1       3.887  27.804  47.759  1.00  0.00     0.007 A 
HETATM   24  C   UNL     1       3.076  26.901  47.067  1.00  0.00     0.001 A 
HETATM   25  C   UNL     1       1.733  26.769  47.410  1.00  0.00     0.000 A 
HETATM   26  C   UNL     1       1.205  27.534  48.445  1.00  0.00     0.001 A 
HETATM   27  C   UNL     1       2.021  28.437  49.132  1.00  0.00     0.007 A 
ENDBRANCH  20  22
ENDBRANCH   3  19
TORSDOF 6
ENDMDL
MODEL 10
REMARK VINA RESULT:      -8.0      2.685      9.827
REMARK  6 active torsions:
REMARK  status: ('A' for Active; 'I' for Inactive)
REMARK    1  A    between atoms: C_2  and  O_3 
REMARK    2  A    between atoms: O_3  and  C_4 
REMARK    3  A    between atoms: C_8  and  C_9 
REMARK    4  A    between atoms: C_9  and  N_10 
REMARK       I    between atoms: N_10  and  C_11 
REMARK       I    between atoms: C_11  and  N_12 
REMARK    5  A    between atoms: N_12  and  C_13 
REMARK    6  A    between atoms: C_14  and  C_15 
ROOT
HETATM    1  N   UNL     1       7.769  30.764  60.632  1.00  0.00    -0.339 N 
HETATM    2  C   UNL     1       7.065  31.891  60.306  1.00  0.00     0.316 C 
HETATM    3  N   UNL     1       5.813  31.903  60.872  1.00  0.00    -0.338 N 
HETATM    4  O   UNL     1       7.504  32.783  59.592  1.00  0.00    -0.247 OA
HETATM    5  H   UNL     1       7.320  30.034  61.162  1.00  0.00     0.164 HD
HETATM    6  H   UNL     1       5.645  31.266  61.640  1.00  0.00     0.164 HD
ENDROOT
BRANCH   1   7
HETATM    7  C   UNL     1       9.098  30.518  60.120  1.00  0.00     0.163 C 
BRANCH   7   8
HETATM    8  C   UNL     1       9.082  29.967  58.719  1.00  0.00    -0.035 A 
HETATM    9  C   UNL     1      10.080  30.283  57.793  1.00  0.00     0.028 A 
HETATM   10  C   UNL     1       9.971  29.791  56.502  1.00  0.00     0.120 A 
HETATM   11  N   UNL     1       8.940  29.036  56.067  1.00  0.00    -0.237 NA
HETATM   12  C   UNL     1       7.969  28.770  56.958  1.00  0.00     0.165 A 
HETATM   13  C   UNL     1       8.003  29.193  58.279  1.00  0.00     0.066 A 
BRANCH  12  14
HETATM   14  O   UNL     1       6.871  28.024  56.597  1.00  0.00    -0.324 OA
BRANCH  14  15
HETATM   15  C   UNL     1       7.004  26.602  56.409  1.00  0.00     0.058 C 
HETATM   16  C   UNL     1       7.998  25.972  57.395  1.00  0.00     0.045 C 
HETATM   17  C   UNL     1       7.303  26.213  54.952  1.00  0.00     0.045 C 
HETATM   18  C   UNL     1       5.603  26.057  56.750  1.00  0.00     0.045 C 
ENDBRANCH  14  15
ENDBRANCH  12  14
ENDBRANCH   7   8
ENDBRANCH   1   7
BRANCH   3  19
HETATM   19  C   UNL     1       4.916  33.017  60.739  1.00  0.00     0.095 A 
HETATM   20  C   UNL     1       4.689  34.012  61.860  1.00  0.00     0.043 A 
HETATM   21  C   UNL     1       3.616  33.019  61.486  1.00  0.00     0.037 A 
BRANCH  20  22
HETATM   22  C   UNL     1       5.423  33.890  63.176  1.00  0.00    -0.052 A 
HETATM   23  C   UNL     1       6.827  33.937  63.230  1.00  0.00     0.007 A 
HETATM   24  C   UNL     1       7.515  33.831  64.441  1.00  0.00     0.001 A 
HETATM   25  C   UNL     1       6.808  33.686  65.631  1.00  0.00     0.000 A 
HETATM   26  C   UNL     1       5.417  33.652  65.609  1.00  0.00     0.001 A 
HETATM   27  C   UNL     1       4.735  33.757  64.394  1.00  0.00     0.007 A 
ENDBRANCH  20  22
ENDBRANCH   3  19
TORSDOF 6
ENDMDL
