MODEL 1
REMARK VINA RESULT:     -10.1      0.000      0.000
REMARK  6 active torsions:
REMARK  status: ('A' for Active; 'I' for Inactive)
REMARK    1  A    between atoms: C_4  and  C_5 
REMARK    2  A    between atoms: C_5  and  C_6 
REMARK    3  A    between atoms: C_6  and  C_7 
REMARK    4  A    between atoms: C_7  and  N_8 
REMARK    5  A    between atoms: C_11  and  O_12 
REMARK    6  A    between atoms: C_11  and  C_13 
ROOT
HETATM    1  N   UNL     1       6.756  26.635  54.339  1.00  0.00    -0.314 N 
HETATM    2  C   UNL     1       6.484  26.569  55.714  1.00  0.00     0.269 A 
HETATM    3  O   UNL     1       6.901  25.727  56.499  1.00  0.00    -0.269 OA
HETATM    4  C   UNL     1       5.498  27.730  56.047  1.00  0.00     0.198 A 
HETATM    5  C   UNL     1       5.253  28.333  54.687  1.00  0.00     0.017 A 
HETATM    6  C   UNL     1       6.007  27.651  53.727  1.00  0.00     0.047 A 
HETATM    7  C   UNL     1       4.390  29.355  54.313  1.00  0.00     0.013 A 
HETATM    8  C   UNL     1       4.312  29.697  52.960  1.00  0.00     0.001 A 
HETATM    9  C   UNL     1       5.082  29.015  52.004  1.00  0.00     0.002 A 
HETATM   10  C   UNL     1       5.939  27.978  52.384  1.00  0.00     0.030 A 
ENDROOT
BRANCH   4  11
HETATM   11  O   UNL     1       4.281  27.213  56.577  1.00  0.00    -0.371 OA
HETATM   12  H   UNL     1       3.831  26.822  55.807  1.00  0.00     0.212 HD
ENDBRANCH   4  11
BRANCH   4  13
HETATM   13  C   UNL     1       6.087  28.811  56.921  1.00  0.00     0.018 A 
HETATM   14  C   UNL     1       7.470  29.179  57.111  1.00  0.00     0.002 A 
HETATM   15  C   UNL     1       7.504  30.218  58.046  1.00  0.00     0.043 A 
HETATM   16  C   UNL     1       8.705  28.731  56.590  1.00  0.00     0.014 A 
HETATM   17  C   UNL     1       8.692  30.813  58.489  1.00  0.00     0.030 A 
HETATM   18  N   UNL     1       6.206  30.492  58.400  1.00  0.00    -0.365 N 
HETATM   19  C   UNL     1       9.894  30.338  57.962  1.00  0.00     0.002 A 
HETATM   20  C   UNL     1       9.903  29.312  57.024  1.00  0.00     0.001 A 
HETATM   21  H   UNL     1       5.932  31.206  59.061  1.00  0.00     0.165 HD
HETATM   22  C   UNL     1       5.351  29.659  57.740  1.00  0.00     0.100 A 
ENDBRANCH   4  13
BRANCH   1  23
HETATM   23  C   UNL     1       7.560  25.659  53.641  1.00  0.00     0.133 C 
BRANCH  23  24
HETATM   24  C   UNL     1       6.760  24.403  53.301  1.00  0.00     0.025 C 
BRANCH  24  25
HETATM   25  C   UNL     1       7.654  23.329  52.685  1.00  0.00     0.040 C 
BRANCH  25  26
HETATM   26  C   UNL     1       7.904  22.204  53.657  1.00  0.00    -0.058 A 
HETATM   27  C   UNL     1       7.620  22.366  55.019  1.00  0.00     0.007 A 
HETATM   28  C   UNL     1       7.885  21.336  55.923  1.00  0.00     0.001 A 
HETATM   29  C   UNL     1       8.438  20.138  55.474  1.00  0.00     0.000 A 
HETATM   30  C   UNL     1       8.727  19.968  54.123  1.00  0.00     0.001 A 
HETATM   31  C   UNL     1       8.464  20.997  53.216  1.00  0.00     0.007 A 
ENDBRANCH  25  26
ENDBRANCH  24  25
ENDBRANCH  23  24
ENDBRANCH   1  23
TORSDOF 6
ENDMDL
MODEL 2
REMARK VINA RESULT:     -10.1      2.040      7.051
REMARK  6 active torsions:
REMARK  status: ('A' for Active; 'I' for Inactive)
REMARK    1  A    between atoms: C_4  and  C_5 
REMARK    2  A    between atoms: C_5  and  C_6 
REMARK    3  A    between atoms: C_6  and  C_7 
REMARK    4  A    between atoms: C_7  and  N_8 
REMARK    5  A    between atoms: C_11  and  O_12 
REMARK    6  A    between atoms: C_11  and  C_13 
ROOT
HETATM    1  N   UNL     1       6.523  25.568  55.820  1.00  0.00    -0.314 N 
HETATM    2  C   UNL     1       5.380  26.200  55.305  1.00  0.00     0.269 A 
HETATM    3  O   UNL     1       4.583  26.885  55.931  1.00  0.00    -0.269 OA
HETATM    4  C   UNL     1       5.279  25.814  53.797  1.00  0.00     0.198 A 
HETATM    5  C   UNL     1       6.444  24.872  53.635  1.00  0.00     0.017 A 
HETATM    6  C   UNL     1       7.131  24.760  54.848  1.00  0.00     0.047 A 
HETATM    7  C   UNL     1       6.831  24.123  52.531  1.00  0.00     0.013 A 
HETATM    8  C   UNL     1       7.935  23.275  52.657  1.00  0.00     0.001 A 
HETATM    9  C   UNL     1       8.627  23.179  53.875  1.00  0.00     0.002 A 
HETATM   10  C   UNL     1       8.225  23.923  54.987  1.00  0.00     0.030 A 
ENDROOT
BRANCH   4  11
HETATM   11  O   UNL     1       4.057  25.128  53.541  1.00  0.00    -0.371 OA
HETATM   12  H   UNL     1       4.009  25.076  52.570  1.00  0.00     0.212 HD
ENDBRANCH   4  11
BRANCH   4  13
HETATM   13  C   UNL     1       5.495  26.968  52.848  1.00  0.00     0.018 A 
HETATM   14  C   UNL     1       5.241  27.043  51.428  1.00  0.00     0.002 A 
HETATM   15  C   UNL     1       5.638  28.312  50.997  1.00  0.00     0.043 A 
HETATM   16  C   UNL     1       4.720  26.158  50.458  1.00  0.00     0.014 A 
HETATM   17  C   UNL     1       5.553  28.731  49.663  1.00  0.00     0.030 A 
HETATM   18  N   UNL     1       6.094  28.995  52.098  1.00  0.00    -0.365 N 
HETATM   19  C   UNL     1       5.044  27.827  48.728  1.00  0.00     0.002 A 
HETATM   20  C   UNL     1       4.631  26.558  49.118  1.00  0.00     0.001 A 
HETATM   21  H   UNL     1       6.441  29.943  52.079  1.00  0.00     0.165 HD
HETATM   22  C   UNL     1       6.018  28.204  53.207  1.00  0.00     0.100 A 
ENDBRANCH   4  13
BRANCH   1  23
HETATM   23  C   UNL     1       6.895  25.614  57.214  1.00  0.00     0.133 C 
BRANCH  23  24
HETATM   24  C   UNL     1       8.014  26.622  57.469  1.00  0.00     0.025 C 
BRANCH  24  25
HETATM   25  C   UNL     1       7.452  28.024  57.699  1.00  0.00     0.040 C 
BRANCH  25  26
HETATM   26  C   UNL     1       8.550  29.057  57.706  1.00  0.00    -0.058 A 
HETATM   27  C   UNL     1       9.571  29.016  56.747  1.00  0.00     0.007 A 
HETATM   28  C   UNL     1      10.607  29.951  56.777  1.00  0.00     0.001 A 
HETATM   29  C   UNL     1      10.632  30.933  57.766  1.00  0.00     0.000 A 
HETATM   30  C   UNL     1       9.624  30.981  58.725  1.00  0.00     0.001 A 
HETATM   31  C   UNL     1       8.588  30.046  58.699  1.00  0.00     0.007 A 
ENDBRANCH  25  26
ENDBRANCH  24  25
ENDBRANCH  23  24
ENDBRANCH   1  23
TORSDOF 6
ENDMDL
MODEL 3
REMARK VINA RESULT:      -9.9      2.920      8.405
REMARK  6 active torsions:
REMARK  status: ('A' for Active; 'I' for Inactive)
REMARK    1  A    between atoms: C_4  and  C_5 
REMARK    2  A    between atoms: C_5  and  C_6 
REMARK    3  A    between atoms: C_6  and  C_7 
REMARK    4  A    between atoms: C_7  and  N_8 
REMARK    5  A    between atoms: C_11  and  O_12 
REMARK    6  A    between atoms: C_11  and  C_13 
ROOT
HETATM    1  N   UNL     1       8.237  30.095  57.830  1.00  0.00    -0.314 N 
HETATM    2  C   UNL     1       8.919  29.195  56.996  1.00  0.00     0.269 A 
HETATM    3  O   UNL     1      10.130  29.021  56.949  1.00  0.00    -0.269 OA
HETATM    4  C   UNL     1       7.853  28.502  56.093  1.00  0.00     0.198 A 
HETATM    5  C   UNL     1       6.584  29.200  56.512  1.00  0.00     0.017 A 
HETATM    6  C   UNL     1       6.868  30.123  57.524  1.00  0.00     0.047 A 
HETATM    7  C   UNL     1       5.297  29.081  56.003  1.00  0.00     0.013 A 
HETATM    8  C   UNL     1       4.293  29.889  56.543  1.00  0.00     0.001 A 
HETATM    9  C   UNL     1       4.583  30.805  57.566  1.00  0.00     0.002 A 
HETATM   10  C   UNL     1       5.883  30.931  58.065  1.00  0.00     0.030 A 
ENDROOT
BRANCH   4  11
HETATM   11  O   UNL     1       8.121  28.763  54.719  1.00  0.00    -0.371 OA
HETATM   12  H   UNL     1       7.256  28.667  54.282  1.00  0.00     0.212 HD
ENDBRANCH   4  11
BRANCH   4  13
HETATM   13  C   UNL     1       7.671  27.030  56.369  1.00  0.00     0.018 A 
HETATM   14  C   UNL     1       7.520  25.936  55.438  1.00  0.00     0.002 A 
HETATM   15  C   UNL     1       7.349  24.768  56.185  1.00  0.00     0.043 A 
HETATM   16  C   UNL     1       7.503  25.819  54.029  1.00  0.00     0.014 A 
HETATM   17  C   UNL     1       7.152  23.508  55.605  1.00  0.00     0.030 A 
HETATM   18  N   UNL     1       7.411  25.117  57.511  1.00  0.00    -0.365 N 
HETATM   19  C   UNL     1       7.129  23.429  54.211  1.00  0.00     0.002 A 
HETATM   20  C   UNL     1       7.304  24.567  53.432  1.00  0.00     0.001 A 
HETATM   21  H   UNL     1       7.323  24.466  58.279  1.00  0.00     0.165 HD
HETATM   22  C   UNL     1       7.600  26.462  57.636  1.00  0.00     0.100 A 
ENDBRANCH   4  13
BRANCH   1  23
HETATM   23  C   UNL     1       8.903  30.992  58.744  1.00  0.00     0.133 C 
BRANCH  23  24
HETATM   24  C   UNL     1       8.738  30.547  60.196  1.00  0.00     0.025 C 
BRANCH  24  25
HETATM   25  C   UNL     1       9.309  31.586  61.160  1.00  0.00     0.040 C 
BRANCH  25  26
HETATM   26  C   UNL     1       8.211  32.289  61.917  1.00  0.00    -0.058 A 
HETATM   27  C   UNL     1       7.145  32.886  61.231  1.00  0.00     0.007 A 
HETATM   28  C   UNL     1       6.147  33.568  61.930  1.00  0.00     0.001 A 
HETATM   29  C   UNL     1       6.209  33.661  63.320  1.00  0.00     0.000 A 
HETATM   30  C   UNL     1       7.266  33.074  64.010  1.00  0.00     0.001 A 
HETATM   31  C   UNL     1       8.265  32.393  63.313  1.00  0.00     0.007 A 
ENDBRANCH  25  26
ENDBRANCH  24  25
ENDBRANCH  23  24
ENDBRANCH   1  23
TORSDOF 6
ENDMDL
MODEL 4
REMARK VINA RESULT:      -9.4      2.559      6.696
REMARK  6 active torsions:
REMARK  status: ('A' for Active; 'I' for Inactive)
REMARK    1  A    between atoms: C_4  and  C_5 
REMARK    2  A    between atoms: C_5  and  C_6 
REMARK    3  A    between atoms: C_6  and  C_7 
REMARK    4  A    between atoms: C_7  and  N_8 
REMARK    5  A    between atoms: C_11  and  O_12 
REMARK    6  A    between atoms: C_11  and  C_13 
ROOT
HETATM    1  N   UNL     1       6.204  26.772  54.158  1.00  0.00    -0.314 N 
HETATM    2  C   UNL     1       5.671  25.606  54.731  1.00  0.00     0.269 A 
HETATM    3  O   UNL     1       4.756  24.928  54.283  1.00  0.00    -0.269 OA
HETATM    4  C   UNL     1       6.419  25.370  56.079  1.00  0.00     0.198 A 
HETATM    5  C   UNL     1       7.324  26.573  56.151  1.00  0.00     0.017 A 
HETATM    6  C   UNL     1       7.152  27.360  55.007  1.00  0.00     0.047 A 
HETATM    7  C   UNL     1       8.181  26.979  57.167  1.00  0.00     0.013 A 
HETATM    8  C   UNL     1       8.881  28.178  57.006  1.00  0.00     0.001 A 
HETATM    9  C   UNL     1       8.712  28.955  55.849  1.00  0.00     0.002 A 
HETATM   10  C   UNL     1       7.839  28.550  54.836  1.00  0.00     0.030 A 
ENDROOT
BRANCH   4  11
HETATM   11  O   UNL     1       5.499  25.386  57.166  1.00  0.00    -0.371 OA
HETATM   12  H   UNL     1       5.608  26.270  57.560  1.00  0.00     0.212 HD
ENDBRANCH   4  11
BRANCH   4  13
HETATM   13  C   UNL     1       7.297  24.143  56.092  1.00  0.00     0.018 A 
HETATM   14  C   UNL     1       7.679  23.280  54.999  1.00  0.00     0.002 A 
HETATM   15  C   UNL     1       8.475  22.260  55.527  1.00  0.00     0.043 A 
HETATM   16  C   UNL     1       7.422  23.254  53.610  1.00  0.00     0.014 A 
HETATM   17  C   UNL     1       9.010  21.224  54.750  1.00  0.00     0.030 A 
HETATM   18  N   UNL     1       8.598  22.492  56.875  1.00  0.00    -0.365 N 
HETATM   19  C   UNL     1       8.727  21.223  53.383  1.00  0.00     0.002 A 
HETATM   20  C   UNL     1       7.946  22.224  52.818  1.00  0.00     0.001 A 
HETATM   21  H   UNL     1       9.127  21.910  57.510  1.00  0.00     0.165 HD
HETATM   22  C   UNL     1       7.898  23.609  57.226  1.00  0.00     0.100 A 
ENDBRANCH   4  13
BRANCH   1  23
HETATM   23  C   UNL     1       5.695  27.364  52.943  1.00  0.00     0.133 C 
BRANCH  23  24
HETATM   24  C   UNL     1       6.215  26.644  51.700  1.00  0.00     0.025 C 
BRANCH  24  25
HETATM   25  C   UNL     1       5.099  25.868  51.004  1.00  0.00     0.040 C 
BRANCH  25  26
HETATM   26  C   UNL     1       4.700  26.530  49.709  1.00  0.00    -0.058 A 
HETATM   27  C   UNL     1       5.095  27.846  49.433  1.00  0.00     0.007 A 
HETATM   28  C   UNL     1       4.695  28.470  48.250  1.00  0.00     0.001 A 
HETATM   29  C   UNL     1       3.896  27.786  47.336  1.00  0.00     0.000 A 
HETATM   30  C   UNL     1       3.496  26.479  47.602  1.00  0.00     0.001 A 
HETATM   31  C   UNL     1       3.894  25.853  48.785  1.00  0.00     0.007 A 
ENDBRANCH  25  26
ENDBRANCH  24  25
ENDBRANCH  23  24
ENDBRANCH   1  23
TORSDOF 6
ENDMDL
MODEL 5
REMARK VINA RESULT:      -9.3      2.958      5.888
REMARK  6 active torsions:
REMARK  status: ('A' for Active; 'I' for Inactive)
REMARK    1  A    between atoms: C_4  and  C_5 
REMARK    2  A    between atoms: C_5  and  C_6 
REMARK    3  A    between atoms: C_6  and  C_7 
REMARK    4  A    between atoms: C_7  and  N_8 
REMARK    5  A    between atoms: C_11  and  O_12 
REMARK    6  A    between atoms: C_11  and  C_13 
ROOT
HETATM    1  N   UNL     1       5.318  26.657  53.728  1.00  0.00    -0.314 N 
HETATM    2  C   UNL     1       5.474  26.977  52.370  1.00  0.00     0.269 A 
HETATM    3  O   UNL     1       5.935  26.250  51.500  1.00  0.00    -0.269 OA
HETATM    4  C   UNL     1       5.009  28.454  52.186  1.00  0.00     0.198 A 
HETATM    5  C   UNL     1       4.676  28.857  53.600  1.00  0.00     0.017 A 
HETATM    6  C   UNL     1       4.881  27.772  54.459  1.00  0.00     0.047 A 
HETATM    7  C   UNL     1       4.287  30.093  54.102  1.00  0.00     0.013 A 
HETATM    8  C   UNL     1       4.085  30.216  55.479  1.00  0.00     0.001 A 
HETATM    9  C   UNL     1       4.281  29.119  56.333  1.00  0.00     0.002 A 
HETATM   10  C   UNL     1       4.686  27.882  55.825  1.00  0.00     0.030 A 
ENDROOT
BRANCH   4  11
HETATM   11  O   UNL     1       6.079  29.253  51.691  1.00  0.00    -0.371 OA
HETATM   12  H   UNL     1       6.328  29.817  52.445  1.00  0.00     0.212 HD
ENDBRANCH   4  11
BRANCH   4  13
HETATM   13  C   UNL     1       3.753  28.609  51.364  1.00  0.00     0.018 A 
HETATM   14  C   UNL     1       3.569  28.465  49.939  1.00  0.00     0.002 A 
HETATM   15  C   UNL     1       2.228  28.743  49.658  1.00  0.00     0.043 A 
HETATM   16  C   UNL     1       4.408  28.134  48.852  1.00  0.00     0.014 A 
HETATM   17  C   UNL     1       1.695  28.718  48.363  1.00  0.00     0.030 A 
HETATM   18  N   UNL     1       1.609  29.023  50.851  1.00  0.00    -0.365 N 
HETATM   19  C   UNL     1       2.555  28.399  47.311  1.00  0.00     0.002 A 
HETATM   20  C   UNL     1       3.893  28.109  47.550  1.00  0.00     0.001 A 
HETATM   21  H   UNL     1       0.630  29.256  50.947  1.00  0.00     0.165 HD
HETATM   22  C   UNL     1       2.506  28.951  51.876  1.00  0.00     0.100 A 
ENDBRANCH   4  13
BRANCH   1  23
HETATM   23  C   UNL     1       5.735  25.399  54.301  1.00  0.00     0.133 C 
BRANCH  23  24
HETATM   24  C   UNL     1       7.234  25.380  54.597  1.00  0.00     0.025 C 
BRANCH  24  25
HETATM   25  C   UNL     1       7.981  24.487  53.608  1.00  0.00     0.040 C 
BRANCH  25  26
HETATM   26  C   UNL     1       7.941  23.043  54.040  1.00  0.00    -0.058 A 
HETATM   27  C   UNL     1       7.930  22.708  55.401  1.00  0.00     0.007 A 
HETATM   28  C   UNL     1       7.928  21.370  55.799  1.00  0.00     0.001 A 
HETATM   29  C   UNL     1       7.941  20.357  54.842  1.00  0.00     0.000 A 
HETATM   30  C   UNL     1       7.956  20.679  53.488  1.00  0.00     0.001 A 
HETATM   31  C   UNL     1       7.958  22.016  53.086  1.00  0.00     0.007 A 
ENDBRANCH  25  26
ENDBRANCH  24  25
ENDBRANCH  23  24
ENDBRANCH   1  23
TORSDOF 6
ENDMDL
MODEL 6
REMARK VINA RESULT:      -9.1      2.298      6.950
REMARK  6 active torsions:
REMARK  status: ('A' for Active; 'I' for Inactive)
REMARK    1  A    between atoms: C_4  and  C_5 
REMARK    2  A    between atoms: C_5  and  C_6 
REMARK    3  A    between atoms: C_6  and  C_7 
REMARK    4  A    between atoms: C_7  and  N_8 
REMARK    5  A    between atoms: C_11  and  O_12 
REMARK    6  A    between atoms: C_11  and  C_13 
ROOT
HETATM    1  N   UNL     1       5.644  27.798  53.957  1.00  0.00    -0.314 N 
HETATM    2  C   UNL     1       5.119  26.503  53.821  1.00  0.00     0.269 A 
HETATM    3  O   UNL     1       4.183  26.169  53.106  1.00  0.00    -0.269 OA
HETATM    4  C   UNL     1       5.907  25.580  54.800  1.00  0.00     0.198 A 
HETATM    5  C   UNL     1       6.825  26.558  55.485  1.00  0.00     0.017 A 
HETATM    6  C   UNL     1       6.625  27.839  54.959  1.00  0.00     0.047 A 
HETATM    7  C   UNL     1       7.717  26.355  56.530  1.00  0.00     0.013 A 
HETATM    8  C   UNL     1       8.424  27.454  57.024  1.00  0.00     0.001 A 
HETATM    9  C   UNL     1       8.226  28.734  56.482  1.00  0.00     0.002 A 
HETATM   10  C   UNL     1       7.316  28.937  55.441  1.00  0.00     0.030 A 
ENDROOT
BRANCH   4  11
HETATM   11  O   UNL     1       5.022  24.993  55.749  1.00  0.00    -0.371 OA
HETATM   12  H   UNL     1       5.510  24.221  56.088  1.00  0.00     0.212 HD
ENDBRANCH   4  11
BRANCH   4  13
HETATM   13  C   UNL     1       6.773  24.550  54.115  1.00  0.00     0.018 A 
HETATM   14  C   UNL     1       7.332  23.329  54.645  1.00  0.00     0.002 A 
HETATM   15  C   UNL     1       8.089  22.738  53.629  1.00  0.00     0.043 A 
HETATM   16  C   UNL     1       7.281  22.664  55.891  1.00  0.00     0.014 A 
HETATM   17  C   UNL     1       8.797  21.541  53.797  1.00  0.00     0.030 A 
HETATM   18  N   UNL     1       7.986  23.542  52.521  1.00  0.00    -0.365 N 
HETATM   19  C   UNL     1       8.734  20.917  55.044  1.00  0.00     0.002 A 
HETATM   20  C   UNL     1       7.986  21.468  56.078  1.00  0.00     0.001 A 
HETATM   21  H   UNL     1       8.431  23.353  51.634  1.00  0.00     0.165 HD
HETATM   22  C   UNL     1       7.207  24.627  52.797  1.00  0.00     0.100 A 
ENDBRANCH   4  13
BRANCH   1  23
HETATM   23  C   UNL     1       5.103  28.951  53.276  1.00  0.00     0.133 C 
BRANCH  23  24
HETATM   24  C   UNL     1       5.461  28.952  51.791  1.00  0.00     0.025 C 
BRANCH  24  25
HETATM   25  C   UNL     1       4.281  29.418  50.939  1.00  0.00     0.040 C 
BRANCH  25  26
HETATM   26  C   UNL     1       3.856  28.348  49.966  1.00  0.00    -0.058 A 
HETATM   27  C   UNL     1       2.642  28.459  49.273  1.00  0.00     0.007 A 
HETATM   28  C   UNL     1       2.234  27.450  48.399  1.00  0.00     0.001 A 
HETATM   29  C   UNL     1       3.031  26.322  48.212  1.00  0.00     0.000 A 
HETATM   30  C   UNL     1       4.237  26.201  48.899  1.00  0.00     0.001 A 
HETATM   31  C   UNL     1       4.648  27.208  49.774  1.00  0.00     0.007 A 
ENDBRANCH  25  26
ENDBRANCH  24  25
ENDBRANCH  23  24
ENDBRANCH   1  23
TORSDOF 6
ENDMDL
MODEL 7
REMARK VINA RESULT:      -9.1      1.900      6.879
REMARK  6 active torsions:
REMARK  status: ('A' for Active; 'I' for Inactive)
REMARK    1  A    between atoms: C_4  and  C_5 
REMARK    2  A    between atoms: C_5  and  C_6 
REMARK    3  A    between atoms: C_6  and  C_7 
REMARK    4  A    between atoms: C_7  and  N_8 
REMARK    5  A    between atoms: C_11  and  O_12 
REMARK    6  A    between atoms: C_11  and  C_13 
ROOT
HETATM    1  N   UNL     1       6.286  26.632  53.622  1.00  0.00    -0.314 N 
HETATM    2  C   UNL     1       5.694  25.477  54.157  1.00  0.00     0.269 A 
HETATM    3  O   UNL     1       4.870  24.759  53.606  1.00  0.00    -0.269 OA
HETATM    4  C   UNL     1       6.234  25.313  55.611  1.00  0.00     0.198 A 
HETATM    5  C   UNL     1       7.095  26.539  55.767  1.00  0.00     0.017 A 
HETATM    6  C   UNL     1       7.084  27.277  54.579  1.00  0.00     0.047 A 
HETATM    7  C   UNL     1       7.781  27.006  56.882  1.00  0.00     0.013 A 
HETATM    8  C   UNL     1       8.475  28.214  56.778  1.00  0.00     0.001 A 
HETATM    9  C   UNL     1       8.468  28.941  55.577  1.00  0.00     0.002 A 
HETATM   10  C   UNL     1       7.766  28.475  54.463  1.00  0.00     0.030 A 
ENDROOT
BRANCH   4  11
HETATM   11  O   UNL     1       5.160  25.348  56.546  1.00  0.00    -0.371 OA
HETATM   12  H   UNL     1       4.650  26.140  56.297  1.00  0.00     0.212 HD
ENDBRANCH   4  11
BRANCH   4  13
HETATM   13  C   UNL     1       7.122  24.109  55.808  1.00  0.00     0.018 A 
HETATM   14  C   UNL     1       7.573  23.137  54.840  1.00  0.00     0.002 A 
HETATM   15  C   UNL     1       8.350  22.195  55.520  1.00  0.00     0.043 A 
HETATM   16  C   UNL     1       7.395  22.954  53.450  1.00  0.00     0.014 A 
HETATM   17  C   UNL     1       8.938  21.089  54.893  1.00  0.00     0.030 A 
HETATM   18  N   UNL     1       8.394  22.575  56.838  1.00  0.00    -0.365 N 
HETATM   19  C   UNL     1       8.732  20.932  53.521  1.00  0.00     0.002 A 
HETATM   20  C   UNL     1       7.973  21.852  52.807  1.00  0.00     0.001 A 
HETATM   21  H   UNL     1       8.893  22.076  57.562  1.00  0.00     0.165 HD
HETATM   22  C   UNL     1       7.665  23.712  57.025  1.00  0.00     0.100 A 
ENDBRANCH   4  13
BRANCH   1  23
HETATM   23  C   UNL     1       5.956  27.164  52.320  1.00  0.00     0.133 C 
BRANCH  23  24
HETATM   24  C   UNL     1       5.072  28.405  52.423  1.00  0.00     0.025 C 
BRANCH  24  25
HETATM   25  C   UNL     1       3.977  28.218  53.473  1.00  0.00     0.040 C 
BRANCH  25  26
HETATM   26  C   UNL     1       4.163  29.169  54.629  1.00  0.00    -0.058 A 
HETATM   27  C   UNL     1       4.411  30.528  54.398  1.00  0.00     0.007 A 
HETATM   28  C   UNL     1       4.618  31.400  55.468  1.00  0.00     0.001 A 
HETATM   29  C   UNL     1       4.583  30.920  56.777  1.00  0.00     0.000 A 
HETATM   30  C   UNL     1       4.340  29.570  57.016  1.00  0.00     0.001 A 
HETATM   31  C   UNL     1       4.134  28.696  55.948  1.00  0.00     0.007 A 
ENDBRANCH  25  26
ENDBRANCH  24  25
ENDBRANCH  23  24
ENDBRANCH   1  23
TORSDOF 6
ENDMDL
MODEL 8
REMARK VINA RESULT:      -8.9      2.213      7.630
REMARK  6 active torsions:
REMARK  status: ('A' for Active; 'I' for Inactive)
REMARK    1  A    between atoms: C_4  and  C_5 
REMARK    2  A    between atoms: C_5  and  C_6 
REMARK    3  A    between atoms: C_6  and  C_7 
REMARK    4  A    between atoms: C_7  and  N_8 
REMARK    5  A    between atoms: C_11  and  O_12 
REMARK    6  A    between atoms: C_11  and  C_13 
ROOT
HETATM    1  N   UNL     1       6.597  29.346  55.907  1.00  0.00    -0.314 N 
HETATM    2  C   UNL     1       7.744  28.548  55.774  1.00  0.00     0.269 A 
HETATM    3  O   UNL     1       8.825  28.731  56.320  1.00  0.00    -0.269 OA
HETATM    4  C   UNL     1       7.408  27.421  54.751  1.00  0.00     0.198 A 
HETATM    5  C   UNL     1       6.004  27.781  54.336  1.00  0.00     0.017 A 
HETATM    6  C   UNL     1       5.584  28.917  55.037  1.00  0.00     0.047 A 
HETATM    7  C   UNL     1       5.187  27.200  53.375  1.00  0.00     0.013 A 
HETATM    8  C   UNL     1       3.929  27.764  53.144  1.00  0.00     0.001 A 
HETATM    9  C   UNL     1       3.510  28.896  53.861  1.00  0.00     0.002 A 
HETATM   10  C   UNL     1       4.342  29.486  54.816  1.00  0.00     0.030 A 
ENDROOT
BRANCH   4  11
HETATM   11  O   UNL     1       8.282  27.492  53.628  1.00  0.00    -0.371 OA
HETATM   12  H   UNL     1       7.723  27.237  52.872  1.00  0.00     0.212 HD
ENDBRANCH   4  11
BRANCH   4  13
HETATM   13  C   UNL     1       7.360  26.036  55.350  1.00  0.00     0.018 A 
HETATM   14  C   UNL     1       7.556  24.756  54.711  1.00  0.00     0.002 A 
HETATM   15  C   UNL     1       7.377  23.769  55.683  1.00  0.00     0.043 A 
HETATM   16  C   UNL     1       7.861  24.331  53.398  1.00  0.00     0.014 A 
HETATM   17  C   UNL     1       7.473  22.398  55.412  1.00  0.00     0.030 A 
HETATM   18  N   UNL     1       7.105  24.406  56.869  1.00  0.00    -0.365 N 
HETATM   19  C   UNL     1       7.764  22.012  54.102  1.00  0.00     0.002 A 
HETATM   20  C   UNL     1       7.957  22.964  53.107  1.00  0.00     0.001 A 
HETATM   21  H   UNL     1       6.936  23.934  57.746  1.00  0.00     0.165 HD
HETATM   22  C   UNL     1       7.089  25.757  56.684  1.00  0.00     0.100 A 
ENDBRANCH   4  13
BRANCH   1  23
HETATM   23  C   UNL     1       6.555  30.551  56.701  1.00  0.00     0.133 C 
BRANCH  23  24
HETATM   24  C   UNL     1       6.928  30.283  58.158  1.00  0.00     0.025 C 
BRANCH  24  25
HETATM   25  C   UNL     1       8.164  31.083  58.568  1.00  0.00     0.040 C 
BRANCH  25  26
HETATM   26  C   UNL     1       8.033  31.605  59.976  1.00  0.00    -0.058 A 
HETATM   27  C   UNL     1       9.095  31.481  60.882  1.00  0.00     0.007 A 
HETATM   28  C   UNL     1       8.959  31.934  62.195  1.00  0.00     0.001 A 
HETATM   29  C   UNL     1       7.761  32.510  62.615  1.00  0.00     0.000 A 
HETATM   30  C   UNL     1       6.698  32.634  61.723  1.00  0.00     0.001 A 
HETATM   31  C   UNL     1       6.831  32.182  60.409  1.00  0.00     0.007 A 
ENDBRANCH  25  26
ENDBRANCH  24  25
ENDBRANCH  23  24
ENDBRANCH   1  23
TORSDOF 6
ENDMDL
MODEL 9
REMARK VINA RESULT:      -8.8      4.286      9.281
REMARK  6 active torsions:
REMARK  status: ('A' for Active; 'I' for Inactive)
REMARK    1  A    between atoms: C_4  and  C_5 
REMARK    2  A    between atoms: C_5  and  C_6 
REMARK    3  A    between atoms: C_6  and  C_7 
REMARK    4  A    between atoms: C_7  and  N_8 
REMARK    5  A    between atoms: C_11  and  O_12 
REMARK    6  A    between atoms: C_11  and  C_13 
ROOT
HETATM    1  N   UNL     1       6.884  31.403  58.822  1.00  0.00    -0.314 N 
HETATM    2  C   UNL     1       5.527  31.225  58.508  1.00  0.00     0.269 A 
HETATM    3  O   UNL     1       4.578  31.789  59.036  1.00  0.00    -0.269 OA
HETATM    4  C   UNL     1       5.449  30.127  57.404  1.00  0.00     0.198 A 
HETATM    5  C   UNL     1       6.894  29.728  57.254  1.00  0.00     0.017 A 
HETATM    6  C   UNL     1       7.687  30.500  58.110  1.00  0.00     0.047 A 
HETATM    7  C   UNL     1       7.462  28.725  56.478  1.00  0.00     0.013 A 
HETATM    8  C   UNL     1       8.842  28.524  56.558  1.00  0.00     0.001 A 
HETATM    9  C   UNL     1       9.632  29.312  57.410  1.00  0.00     0.002 A 
HETATM   10  C   UNL     1       9.055  30.310  58.200  1.00  0.00     0.030 A 
ENDROOT
BRANCH   4  11
HETATM   11  O   UNL     1       4.681  29.018  57.860  1.00  0.00    -0.371 OA
HETATM   12  H   UNL     1       3.769  29.357  57.901  1.00  0.00     0.212 HD
ENDBRANCH   4  11
BRANCH   4  13
HETATM   13  C   UNL     1       4.978  30.632  56.061  1.00  0.00     0.018 A 
HETATM   14  C   UNL     1       4.461  29.890  54.935  1.00  0.00     0.002 A 
HETATM   15  C   UNL     1       4.196  30.807  53.914  1.00  0.00     0.043 A 
HETATM   16  C   UNL     1       4.197  28.527  54.673  1.00  0.00     0.014 A 
HETATM   17  C   UNL     1       3.699  30.434  52.658  1.00  0.00     0.030 A 
HETATM   18  N   UNL     1       4.513  32.055  54.391  1.00  0.00    -0.365 N 
HETATM   19  C   UNL     1       3.461  29.078  52.429  1.00  0.00     0.002 A 
HETATM   20  C   UNL     1       3.704  28.136  53.422  1.00  0.00     0.001 A 
HETATM   21  H   UNL     1       4.415  32.911  53.863  1.00  0.00     0.165 HD
HETATM   22  C   UNL     1       4.983  31.965  55.668  1.00  0.00     0.100 A 
ENDBRANCH   4  13
BRANCH   1  23
HETATM   23  C   UNL     1       7.348  32.276  59.875  1.00  0.00     0.133 C 
BRANCH  23  24
HETATM   24  C   UNL     1       7.289  31.596  61.241  1.00  0.00     0.025 C 
BRANCH  24  25
HETATM   25  C   UNL     1       8.080  32.385  62.284  1.00  0.00     0.040 C 
BRANCH  25  26
HETATM   26  C   UNL     1       7.192  32.835  63.417  1.00  0.00    -0.058 A 
HETATM   27  C   UNL     1       5.798  32.758  63.300  1.00  0.00     0.007 A 
HETATM   28  C   UNL     1       4.977  33.208  64.334  1.00  0.00     0.001 A 
HETATM   29  C   UNL     1       5.541  33.741  65.492  1.00  0.00     0.000 A 
HETATM   30  C   UNL     1       6.926  33.825  65.616  1.00  0.00     0.001 A 
HETATM   31  C   UNL     1       7.749  33.376  64.583  1.00  0.00     0.007 A 
ENDBRANCH  25  26
ENDBRANCH  24  25
ENDBRANCH  23  24
ENDBRANCH   1  23
TORSDOF 6
ENDMDL
MODEL 10
REMARK VINA RESULT:      -8.8      9.456     13.422
REMARK  6 active torsions:
REMARK  status: ('A' for Active; 'I' for Inactive)
REMARK    1  A    between atoms: C_4  and  C_5 
REMARK    2  A    between atoms: C_5  and  C_6 
REMARK    3  A    between atoms: C_6  and  C_7 
REMARK    4  A    between atoms: C_7  and  N_8 
REMARK    5  A    between atoms: C_11  and  O_12 
REMARK    6  A    between atoms: C_11  and  C_13 
ROOT
HETATM    1  N   UNL     1       4.252  34.030  64.547  1.00  0.00    -0.314 N 
HETATM    2  C   UNL     1       3.235  33.661  63.653  1.00  0.00     0.269 A 
HETATM    3  O   UNL     1       2.032  33.823  63.813  1.00  0.00    -0.269 OA
HETATM    4  C   UNL     1       3.916  32.949  62.444  1.00  0.00     0.198 A 
HETATM    5  C   UNL     1       5.364  32.938  62.862  1.00  0.00     0.017 A 
HETATM    6  C   UNL     1       5.502  33.575  64.100  1.00  0.00     0.047 A 
HETATM    7  C   UNL     1       6.463  32.358  62.239  1.00  0.00     0.013 A 
HETATM    8  C   UNL     1       7.707  32.449  62.868  1.00  0.00     0.001 A 
HETATM    9  C   UNL     1       7.839  33.102  64.104  1.00  0.00     0.002 A 
HETATM   10  C   UNL     1       6.729  33.671  64.734  1.00  0.00     0.030 A 
ENDROOT
BRANCH   4  11
HETATM   11  O   UNL     1       3.435  31.615  62.318  1.00  0.00    -0.371 OA
HETATM   12  H   UNL     1       2.523  31.655  62.659  1.00  0.00     0.212 HD
ENDBRANCH   4  11
BRANCH   4  13
HETATM   13  C   UNL     1       3.827  33.714  61.146  1.00  0.00     0.018 A 
HETATM   14  C   UNL     1       4.120  35.102  60.880  1.00  0.00     0.002 A 
HETATM   15  C   UNL     1       3.849  35.338  59.530  1.00  0.00     0.043 A 
HETATM   16  C   UNL     1       4.583  36.192  61.653  1.00  0.00     0.014 A 
HETATM   17  C   UNL     1       4.003  36.592  58.924  1.00  0.00     0.030 A 
HETATM   18  N   UNL     1       3.430  34.152  58.982  1.00  0.00    -0.365 N 
HETATM   19  C   UNL     1       4.450  37.649  59.719  1.00  0.00     0.002 A 
HETATM   20  C   UNL     1       4.738  37.453  61.065  1.00  0.00     0.001 A 
HETATM   21  H   UNL     1       3.170  34.028  58.014  1.00  0.00     0.165 HD
HETATM   22  C   UNL     1       3.409  33.175  59.935  1.00  0.00     0.100 A 
ENDBRANCH   4  13
BRANCH   1  23
HETATM   23  C   UNL     1       3.999  34.631  65.835  1.00  0.00     0.133 C 
BRANCH  23  24
HETATM   24  C   UNL     1       4.924  34.071  66.914  1.00  0.00     0.025 C 
BRANCH  24  25
HETATM   25  C   UNL     1       5.404  35.174  67.857  1.00  0.00     0.040 C 
BRANCH  25  26
HETATM   26  C   UNL     1       6.303  34.618  68.932  1.00  0.00    -0.058 A 
HETATM   27  C   UNL     1       5.851  33.600  69.781  1.00  0.00     0.007 A 
HETATM   28  C   UNL     1       6.672  33.112  70.798  1.00  0.00     0.001 A 
HETATM   29  C   UNL     1       7.950  33.639  70.977  1.00  0.00     0.000 A 
HETATM   30  C   UNL     1       8.408  34.654  70.141  1.00  0.00     0.001 A 
HETATM   31  C   UNL     1       7.588  35.144  69.123  1.00  0.00     0.007 A 
ENDBRANCH  25  26
ENDBRANCH  24  25
ENDBRANCH  23  24
ENDBRANCH   1  23
TORSDOF 6
ENDMDL
