MODEL 1
REMARK VINA RESULT:     -10.7      0.000      0.000
REMARK  4 active torsions:
REMARK  status: ('A' for Active; 'I' for Inactive)
REMARK    1  A    between atoms: C_5  and  C_6 
REMARK    2  A    between atoms: C_6  and  N_7 
REMARK    3  A    between atoms: N_13  and  C_15 
REMARK    4  A    between atoms: C_19  and  C_20 
ROOT
HETATM    1  N   UNL     1       7.030  29.204  57.037  1.00  0.00    -0.064 N 
HETATM    2  H   UNL     1       6.892  30.225  57.160  1.00  0.00     0.280 HD
HETATM    3  C   UNL     1       7.667  29.049  55.689  1.00  0.00     0.236 C 
HETATM    4  C   UNL     1       7.753  27.573  55.285  1.00  0.00     0.039 C 
HETATM    5  C   UNL     1       6.432  26.761  55.430  1.00  0.00    -0.013 C 
HETATM    6  C   UNL     1       5.421  27.054  54.283  1.00  0.00     0.245 C 
HETATM    7  N   UNL     1       5.873  26.485  52.957  1.00  0.00    -0.065 N 
HETATM    8  H   UNL     1       6.753  26.924  52.653  1.00  0.00     0.280 HD
HETATM    9  C   UNL     1       6.130  24.980  53.008  1.00  0.00     0.244 C 
HETATM   10  C   UNL     1       7.190  24.689  54.073  1.00  0.00     0.045 C 
HETATM   11  C   UNL     1       6.744  25.237  55.438  1.00  0.00     0.022 C 
HETATM   12  C   UNL     1       5.779  27.092  56.808  1.00  0.00     0.039 C 
HETATM   13  C   UNL     1       5.678  28.578  57.125  1.00  0.00     0.236 C 
ENDROOT
BRANCH   7  14
HETATM   14  C   UNL     1       4.865  26.780  51.876  1.00  0.00     0.188 A 
HETATM   15  C   UNL     1       5.350  27.559  50.687  1.00  0.00     0.035 A 
HETATM   16  C   UNL     1       5.061  26.090  50.557  1.00  0.00     0.035 A 
ENDBRANCH   7  14
BRANCH  10  17
HETATM   17  C   UNL     1       7.512  23.210  54.145  1.00  0.00    -0.052 A 
HETATM   18  C   UNL     1       7.518  22.563  55.391  1.00  0.00     0.007 A 
HETATM   19  C   UNL     1       7.802  21.200  55.485  1.00  0.00     0.001 A 
HETATM   20  C   UNL     1       8.085  20.465  54.337  1.00  0.00     0.000 A 
HETATM   21  C   UNL     1       8.085  21.092  53.094  1.00  0.00     0.001 A 
HETATM   22  C   UNL     1       7.801  22.456  52.996  1.00  0.00     0.007 A 
ENDBRANCH  10  17
BRANCH   1  23
HETATM   23  C   UNL     1       7.963  28.881  58.229  1.00  0.00     0.323 C 
BRANCH  23  24
HETATM   24  C   UNL     1       8.353  30.102  58.971  1.00  0.00     0.198 A 
HETATM   25  O   UNL     1       8.269  31.288  58.319  1.00  0.00    -0.194 OA
HETATM   26  N   UNL     1       8.714  32.252  59.217  1.00  0.00    -0.112 NA
HETATM   27  C   UNL     1       9.027  31.548  60.312  1.00  0.00     0.152 A 
HETATM   28  C   UNL     1       9.597  32.173  61.523  1.00  0.00     0.096 C 
HETATM   29  N   UNL     1       8.793  30.193  60.208  1.00  0.00    -0.208 NA
ENDBRANCH  23  24
ENDBRANCH   1  23
TORSDOF 4
ENDMDL
MODEL 2
REMARK VINA RESULT:      -9.5      1.297      1.448
REMARK  4 active torsions:
REMARK  status: ('A' for Active; 'I' for Inactive)
REMARK    1  A    between atoms: C_5  and  C_6 
REMARK    2  A    between atoms: C_6  and  N_7 
REMARK    3  A    between atoms: N_13  and  C_15 
REMARK    4  A    between atoms: C_19  and  C_20 
ROOT
HETATM    1  N   UNL     1       6.186  29.199  56.829  1.00  0.00    -0.064 N 
HETATM    2  H   UNL     1       5.961  30.207  56.930  1.00  0.00     0.280 HD
HETATM    3  C   UNL     1       6.960  29.090  55.550  1.00  0.00     0.236 C 
HETATM    4  C   UNL     1       7.193  27.624  55.169  1.00  0.00     0.039 C 
HETATM    5  C   UNL     1       5.928  26.716  55.192  1.00  0.00    -0.013 C 
HETATM    6  C   UNL     1       5.014  26.931  53.952  1.00  0.00     0.245 C 
HETATM    7  N   UNL     1       5.633  26.396  52.679  1.00  0.00    -0.065 N 
HETATM    8  H   UNL     1       6.503  26.899  52.458  1.00  0.00     0.280 HD
HETATM    9  C   UNL     1       5.994  24.915  52.768  1.00  0.00     0.244 C 
HETATM   10  C   UNL     1       6.966  24.705  53.932  1.00  0.00     0.045 C 
HETATM   11  C   UNL     1       6.351  25.220  55.243  1.00  0.00     0.022 C 
HETATM   12  C   UNL     1       5.123  26.999  56.498  1.00  0.00     0.039 C 
HETATM   13  C   UNL     1       4.882  28.474  56.792  1.00  0.00     0.236 C 
ENDROOT
BRANCH   7  14
HETATM   14  C   UNL     1       4.715  26.614  51.505  1.00  0.00     0.188 A 
HETATM   15  C   UNL     1       5.239  27.457  50.377  1.00  0.00     0.035 A 
HETATM   16  C   UNL     1       5.107  25.970  50.206  1.00  0.00     0.035 A 
ENDBRANCH   7  14
BRANCH  10  17
HETATM   17  C   UNL     1       7.388  23.255  54.048  1.00  0.00    -0.052 A 
HETATM   18  C   UNL     1       7.426  22.643  55.311  1.00  0.00     0.007 A 
HETATM   19  C   UNL     1       7.803  21.306  55.444  1.00  0.00     0.001 A 
HETATM   20  C   UNL     1       8.147  20.562  54.319  1.00  0.00     0.000 A 
HETATM   21  C   UNL     1       8.115  21.153  53.059  1.00  0.00     0.001 A 
HETATM   22  C   UNL     1       7.739  22.491  52.922  1.00  0.00     0.007 A 
ENDBRANCH  10  17
BRANCH   1  23
HETATM   23  C   UNL     1       7.021  28.948  58.108  1.00  0.00     0.323 C 
BRANCH  23  24
HETATM   24  C   UNL     1       8.365  29.565  58.020  1.00  0.00     0.198 A 
HETATM   25  O   UNL     1       8.477  30.876  58.349  1.00  0.00    -0.194 OA
HETATM   26  N   UNL     1       9.814  31.207  58.156  1.00  0.00    -0.112 NA
HETATM   27  C   UNL     1      10.366  30.065  57.724  1.00  0.00     0.152 A 
HETATM   28  C   UNL     1      11.789  29.966  57.342  1.00  0.00     0.096 C 
HETATM   29  N   UNL     1       9.493  29.000  57.647  1.00  0.00    -0.208 NA
ENDBRANCH  23  24
ENDBRANCH   1  23
TORSDOF 4
ENDMDL
MODEL 3
REMARK VINA RESULT:      -8.8      3.808      7.783
REMARK  4 active torsions:
REMARK  status: ('A' for Active; 'I' for Inactive)
REMARK    1  A    between atoms: C_5  and  C_6 
REMARK    2  A    between atoms: C_6  and  N_7 
REMARK    3  A    between atoms: N_13  and  C_15 
REMARK    4  A    between atoms: C_19  and  C_20 
ROOT
HETATM    1  N   UNL     1       4.724  26.763  51.186  1.00  0.00    -0.064 N 
HETATM    2  H   UNL     1       4.226  27.626  50.894  1.00  0.00     0.280 HD
HETATM    3  C   UNL     1       4.253  26.487  52.581  1.00  0.00     0.236 C 
HETATM    4  C   UNL     1       5.054  25.346  53.219  1.00  0.00     0.039 C 
HETATM    5  C   UNL     1       6.603  25.475  53.114  1.00  0.00    -0.013 C 
HETATM    6  C   UNL     1       7.187  26.500  54.128  1.00  0.00     0.245 C 
HETATM    7  N   UNL     1       7.114  26.007  55.556  1.00  0.00    -0.065 N 
HETATM    8  H   UNL     1       6.135  25.875  55.846  1.00  0.00     0.280 HD
HETATM    9  C   UNL     1       7.814  24.664  55.761  1.00  0.00     0.244 C 
HETATM   10  C   UNL     1       7.185  23.624  54.831  1.00  0.00     0.045 C 
HETATM   11  C   UNL     1       7.268  24.092  53.369  1.00  0.00     0.022 C 
HETATM   12  C   UNL     1       6.981  25.894  51.660  1.00  0.00     0.039 C 
HETATM   13  C   UNL     1       6.183  27.066  51.105  1.00  0.00     0.236 C 
ENDROOT
BRANCH   7  14
HETATM   14  C   UNL     1       7.698  27.021  56.504  1.00  0.00     0.188 A 
HETATM   15  C   UNL     1       6.738  27.735  57.413  1.00  0.00     0.035 A 
HETATM   16  C   UNL     1       7.659  26.686  57.968  1.00  0.00     0.035 A 
ENDBRANCH   7  14
BRANCH  10  17
HETATM   17  C   UNL     1       7.818  22.261  55.015  1.00  0.00    -0.052 A 
HETATM   18  C   UNL     1       8.006  21.427  53.901  1.00  0.00     0.007 A 
HETATM   19  C   UNL     1       8.595  20.170  54.042  1.00  0.00     0.001 A 
HETATM   20  C   UNL     1       9.004  19.727  55.297  1.00  0.00     0.000 A 
HETATM   21  C   UNL     1       8.824  20.541  56.412  1.00  0.00     0.001 A 
HETATM   22  C   UNL     1       8.235  21.799  56.275  1.00  0.00     0.007 A 
ENDBRANCH  10  17
BRANCH   1  23
HETATM   23  C   UNL     1       4.221  25.753  50.127  1.00  0.00     0.323 C 
BRANCH  23  24
HETATM   24  C   UNL     1       3.638  26.434  48.947  1.00  0.00     0.198 A 
HETATM   25  O   UNL     1       3.650  25.766  47.767  1.00  0.00    -0.194 OA
HETATM   26  N   UNL     1       3.080  26.626  46.834  1.00  0.00    -0.112 NA
HETATM   27  C   UNL     1       2.791  27.723  47.546  1.00  0.00     0.152 A 
HETATM   28  C   UNL     1       2.205  28.934  46.937  1.00  0.00     0.096 C 
HETATM   29  N   UNL     1       3.105  27.635  48.886  1.00  0.00    -0.208 NA
ENDBRANCH  23  24
ENDBRANCH   1  23
TORSDOF 4
ENDMDL
MODEL 4
REMARK VINA RESULT:      -8.7      1.213      4.453
REMARK  4 active torsions:
REMARK  status: ('A' for Active; 'I' for Inactive)
REMARK    1  A    between atoms: C_5  and  C_6 
REMARK    2  A    between atoms: C_6  and  N_7 
REMARK    3  A    between atoms: N_13  and  C_15 
REMARK    4  A    between atoms: C_19  and  C_20 
ROOT
HETATM    1  N   UNL     1       7.661  28.504  57.693  1.00  0.00    -0.064 N 
HETATM    2  H   UNL     1       8.089  28.388  58.631  1.00  0.00     0.280 HD
HETATM    3  C   UNL     1       6.765  27.316  57.516  1.00  0.00     0.236 C 
HETATM    4  C   UNL     1       6.213  27.249  56.088  1.00  0.00     0.039 C 
HETATM    5  C   UNL     1       7.270  27.386  54.952  1.00  0.00    -0.013 C 
HETATM    6  C   UNL     1       8.088  26.080  54.736  1.00  0.00     0.245 C 
HETATM    7  N   UNL     1       7.260  24.976  54.119  1.00  0.00    -0.065 N 
HETATM    8  H   UNL     1       6.489  24.705  54.745  1.00  0.00     0.280 HD
HETATM    9  C   UNL     1       6.623  25.378  52.790  1.00  0.00     0.244 C 
HETATM   10  C   UNL     1       5.743  26.611  53.009  1.00  0.00     0.045 C 
HETATM   11  C   UNL     1       6.567  27.758  53.615  1.00  0.00     0.022 C 
HETATM   12  C   UNL     1       8.234  28.564  55.296  1.00  0.00     0.039 C 
HETATM   13  C   UNL     1       8.788  28.544  56.714  1.00  0.00     0.236 C 
ENDROOT
BRANCH   7  14
HETATM   14  C   UNL     1       8.089  23.734  53.916  1.00  0.00     0.188 A 
HETATM   15  C   UNL     1       7.579  22.465  54.537  1.00  0.00     0.035 A 
HETATM   16  C   UNL     1       7.501  22.658  53.050  1.00  0.00     0.035 A 
ENDBRANCH   7  14
BRANCH  10  17
HETATM   17  C   UNL     1       5.056  27.037  51.728  1.00  0.00    -0.052 A 
HETATM   18  C   UNL     1       5.095  26.192  50.607  1.00  0.00     0.007 A 
HETATM   19  C   UNL     1       4.463  26.557  49.418  1.00  0.00     0.001 A 
HETATM   20  C   UNL     1       3.785  27.770  49.331  1.00  0.00     0.000 A 
HETATM   21  C   UNL     1       3.737  28.619  50.433  1.00  0.00     0.001 A 
HETATM   22  C   UNL     1       4.369  28.258  51.625  1.00  0.00     0.007 A 
ENDBRANCH  10  17
BRANCH   1  23
HETATM   23  C   UNL     1       6.917  29.849  57.865  1.00  0.00     0.323 C 
BRANCH  23  24
HETATM   24  C   UNL     1       7.598  30.736  58.837  1.00  0.00     0.198 A 
HETATM   25  O   UNL     1       7.478  32.075  58.656  1.00  0.00    -0.194 OA
HETATM   26  N   UNL     1       8.222  32.667  59.671  1.00  0.00    -0.112 NA
HETATM   27  C   UNL     1       8.718  31.625  60.352  1.00  0.00     0.152 A 
HETATM   28  C   UNL     1       9.625  31.790  61.507  1.00  0.00     0.096 C 
HETATM   29  N   UNL     1       8.330  30.391  59.874  1.00  0.00    -0.208 NA
ENDBRANCH  23  24
ENDBRANCH   1  23
TORSDOF 4
ENDMDL
MODEL 5
REMARK VINA RESULT:      -8.4      2.950      8.293
REMARK  4 active torsions:
REMARK  status: ('A' for Active; 'I' for Inactive)
REMARK    1  A    between atoms: C_5  and  C_6 
REMARK    2  A    between atoms: C_6  and  N_7 
REMARK    3  A    between atoms: N_13  and  C_15 
REMARK    4  A    between atoms: C_19  and  C_20 
ROOT
HETATM    1  N   UNL     1       6.391  25.207  55.385  1.00  0.00    -0.064 N 
HETATM    2  H   UNL     1       5.906  24.485  54.818  1.00  0.00     0.280 HD
HETATM    3  C   UNL     1       5.318  25.850  56.210  1.00  0.00     0.236 C 
HETATM    4  C   UNL     1       5.857  27.075  56.957  1.00  0.00     0.039 C 
HETATM    5  C   UNL     1       6.649  28.096  56.087  1.00  0.00    -0.013 C 
HETATM    6  C   UNL     1       5.719  28.990  55.218  1.00  0.00     0.245 C 
HETATM    7  N   UNL     1       4.935  29.984  56.045  1.00  0.00    -0.065 N 
HETATM    8  H   UNL     1       4.303  29.498  56.696  1.00  0.00     0.280 HD
HETATM    9  C   UNL     1       5.826  30.888  56.895  1.00  0.00     0.244 C 
HETATM   10  C   UNL     1       6.683  30.021  57.820  1.00  0.00     0.045 C 
HETATM   11  C   UNL     1       7.508  29.017  57.001  1.00  0.00     0.022 C 
HETATM   12  C   UNL     1       7.644  27.319  55.171  1.00  0.00     0.039 C 
HETATM   13  C   UNL     1       7.033  26.144  54.417  1.00  0.00     0.236 C 
ENDROOT
BRANCH   7  14
HETATM   14  C   UNL     1       4.055  30.837  55.168  1.00  0.00     0.188 A 
HETATM   15  C   UNL     1       2.700  31.196  55.706  1.00  0.00     0.035 A 
HETATM   16  C   UNL     1       3.781  32.237  55.636  1.00  0.00     0.035 A 
ENDBRANCH   7  14
BRANCH  10  17
HETATM   17  C   UNL     1       7.565  30.868  58.714  1.00  0.00    -0.052 A 
HETATM   18  C   UNL     1       8.953  30.881  58.505  1.00  0.00     0.007 A 
HETATM   19  C   UNL     1       9.788  31.659  59.309  1.00  0.00     0.001 A 
HETATM   20  C   UNL     1       9.248  32.434  60.332  1.00  0.00     0.000 A 
HETATM   21  C   UNL     1       7.874  32.431  60.554  1.00  0.00     0.001 A 
HETATM   22  C   UNL     1       7.035  31.653  59.751  1.00  0.00     0.007 A 
ENDBRANCH  10  17
BRANCH   1  23
HETATM   23  C   UNL     1       7.387  24.339  56.190  1.00  0.00     0.323 C 
BRANCH  23  24
HETATM   24  C   UNL     1       7.942  23.234  55.374  1.00  0.00     0.198 A 
HETATM   25  O   UNL     1       9.249  22.918  55.551  1.00  0.00    -0.194 OA
HETATM   26  N   UNL     1       9.518  21.885  54.659  1.00  0.00    -0.112 NA
HETATM   27  C   UNL     1       8.350  21.692  54.033  1.00  0.00     0.152 A 
HETATM   28  C   UNL     1       8.184  20.704  52.948  1.00  0.00     0.096 C 
HETATM   29  N   UNL     1       7.324  22.505  54.470  1.00  0.00    -0.208 NA
ENDBRANCH  23  24
ENDBRANCH   1  23
TORSDOF 4
ENDMDL
MODEL 6
REMARK VINA RESULT:      -8.2      6.582     13.273
REMARK  4 active torsions:
REMARK  status: ('A' for Active; 'I' for Inactive)
REMARK    1  A    between atoms: C_5  and  C_6 
REMARK    2  A    between atoms: C_6  and  N_7 
REMARK    3  A    between atoms: N_13  and  C_15 
REMARK    4  A    between atoms: C_19  and  C_20 
ROOT
HETATM    1  N   UNL     1       5.844  31.919  60.720  1.00  0.00    -0.064 N 
HETATM    2  H   UNL     1       5.948  30.887  60.691  1.00  0.00     0.280 HD
HETATM    3  C   UNL     1       6.777  32.382  61.797  1.00  0.00     0.236 C 
HETATM    4  C   UNL     1       6.585  33.874  62.090  1.00  0.00     0.039 C 
HETATM    5  C   UNL     1       5.114  34.328  62.324  1.00  0.00    -0.013 C 
HETATM    6  C   UNL     1       4.589  33.946  63.738  1.00  0.00     0.245 C 
HETATM    7  N   UNL     1       5.237  34.762  64.834  1.00  0.00    -0.065 N 
HETATM    8  H   UNL     1       6.249  34.584  64.871  1.00  0.00     0.280 HD
HETATM    9  C   UNL     1       5.065  36.268  64.640  1.00  0.00     0.244 C 
HETATM   10  C   UNL     1       5.660  36.669  63.288  1.00  0.00     0.045 C 
HETATM   11  C   UNL     1       5.001  35.870  62.153  1.00  0.00     0.022 C 
HETATM   12  C   UNL     1       4.204  33.687  61.231  1.00  0.00     0.039 C 
HETATM   13  C   UNL     1       4.408  32.192  61.026  1.00  0.00     0.236 C 
ENDROOT
BRANCH   7  14
HETATM   14  C   UNL     1       4.695  34.371  66.185  1.00  0.00     0.188 A 
HETATM   15  C   UNL     1       5.682  34.277  67.313  1.00  0.00     0.035 A 
HETATM   16  C   UNL     1       4.714  35.424  67.256  1.00  0.00     0.035 A 
ENDBRANCH   7  14
BRANCH  10  17
HETATM   17  C   UNL     1       5.548  38.162  63.055  1.00  0.00    -0.052 A 
HETATM   18  C   UNL     1       6.301  39.045  63.845  1.00  0.00     0.007 A 
HETATM   19  C   UNL     1       6.223  40.424  63.645  1.00  0.00     0.001 A 
HETATM   20  C   UNL     1       5.392  40.940  62.654  1.00  0.00     0.000 A 
HETATM   21  C   UNL     1       4.638  40.078  61.863  1.00  0.00     0.001 A 
HETATM   22  C   UNL     1       4.714  38.698  62.060  1.00  0.00     0.007 A 
ENDBRANCH  10  17
BRANCH   1  23
HETATM   23  C   UNL     1       6.276  32.306  59.286  1.00  0.00     0.323 C 
BRANCH  23  24
HETATM   24  C   UNL     1       7.661  31.869  58.989  1.00  0.00     0.198 A 
HETATM   25  O   UNL     1       8.671  32.705  59.338  1.00  0.00    -0.194 OA
HETATM   26  N   UNL     1       9.844  32.079  58.929  1.00  0.00    -0.112 NA
HETATM   27  C   UNL     1       9.419  30.938  58.371  1.00  0.00     0.152 A 
HETATM   28  C   UNL     1      10.342  29.968  57.747  1.00  0.00     0.096 C 
HETATM   29  N   UNL     1       8.053  30.755  58.409  1.00  0.00    -0.208 NA
ENDBRANCH  23  24
ENDBRANCH   1  23
TORSDOF 4
ENDMDL
MODEL 7
REMARK VINA RESULT:      -8.2      3.361      8.433
REMARK  4 active torsions:
REMARK  status: ('A' for Active; 'I' for Inactive)
REMARK    1  A    between atoms: C_5  and  C_6 
REMARK    2  A    between atoms: C_6  and  N_7 
REMARK    3  A    between atoms: N_13  and  C_15 
REMARK    4  A    between atoms: C_19  and  C_20 
ROOT
HETATM    1  N   UNL     1       5.160  27.162  51.981  1.00  0.00    -0.064 N 
HETATM    2  H   UNL     1       4.714  26.528  51.290  1.00  0.00     0.280 HD
HETATM    3  C   UNL     1       6.518  26.582  52.234  1.00  0.00     0.236 C 
HETATM    4  C   UNL     1       7.222  27.306  53.386  1.00  0.00     0.039 C 
HETATM    5  C   UNL     1       6.381  27.474  54.687  1.00  0.00    -0.013 C 
HETATM    6  C   UNL     1       6.295  26.160  55.516  1.00  0.00     0.245 C 
HETATM    7  N   UNL     1       7.613  25.800  56.165  1.00  0.00    -0.065 N 
HETATM    8  H   UNL     1       8.332  25.616  55.451  1.00  0.00     0.280 HD
HETATM    9  C   UNL     1       8.161  26.909  57.061  1.00  0.00     0.244 C 
HETATM   10  C   UNL     1       8.335  28.184  56.232  1.00  0.00     0.045 C 
HETATM   11  C   UNL     1       7.002  28.585  55.581  1.00  0.00     0.022 C 
HETATM   12  C   UNL     1       4.946  27.954  54.306  1.00  0.00     0.039 C 
HETATM   13  C   UNL     1       4.282  27.159  53.189  1.00  0.00     0.236 C 
ENDROOT
BRANCH   7  14
HETATM   14  C   UNL     1       7.487  24.531  56.966  1.00  0.00     0.188 A 
HETATM   15  C   UNL     1       8.135  23.300  56.399  1.00  0.00     0.035 A 
HETATM   16  C   UNL     1       8.743  23.990  57.587  1.00  0.00     0.035 A 
ENDBRANCH   7  14
BRANCH  10  17
HETATM   17  C   UNL     1       8.909  29.312  57.063  1.00  0.00    -0.052 A 
HETATM   18  C   UNL     1       8.150  29.856  58.112  1.00  0.00     0.007 A 
HETATM   19  C   UNL     1       8.660  30.890  58.899  1.00  0.00     0.001 A 
HETATM   20  C   UNL     1       9.932  31.396  58.648  1.00  0.00     0.000 A 
HETATM   21  C   UNL     1      10.697  30.869  57.611  1.00  0.00     0.001 A 
HETATM   22  C   UNL     1      10.191  29.834  56.822  1.00  0.00     0.007 A 
ENDBRANCH  10  17
BRANCH   1  23
HETATM   23  C   UNL     1       5.168  28.498  51.201  1.00  0.00     0.323 C 
BRANCH  23  24
HETATM   24  C   UNL     1       4.670  28.332  49.815  1.00  0.00     0.198 A 
HETATM   25  O   UNL     1       5.579  28.397  48.810  1.00  0.00    -0.194 OA
HETATM   26  N   UNL     1       4.857  28.242  47.631  1.00  0.00    -0.112 NA
HETATM   27  C   UNL     1       3.591  28.107  48.047  1.00  0.00     0.152 A 
HETATM   28  C   UNL     1       2.459  27.963  47.110  1.00  0.00     0.096 C 
HETATM   29  N   UNL     1       3.432  28.135  49.417  1.00  0.00    -0.208 NA
ENDBRANCH  23  24
ENDBRANCH   1  23
TORSDOF 4
ENDMDL
MODEL 8
REMARK VINA RESULT:      -7.9      4.541      8.017
REMARK  4 active torsions:
REMARK  status: ('A' for Active; 'I' for Inactive)
REMARK    1  A    between atoms: C_5  and  C_6 
REMARK    2  A    between atoms: C_6  and  N_7 
REMARK    3  A    between atoms: N_13  and  C_15 
REMARK    4  A    between atoms: C_19  and  C_20 
ROOT
HETATM    1  N   UNL     1       7.503  24.848  53.867  1.00  0.00    -0.064 N 
HETATM    2  H   UNL     1       8.101  24.690  54.700  1.00  0.00     0.280 HD
HETATM    3  C   UNL     1       7.725  26.280  53.484  1.00  0.00     0.236 C 
HETATM    4  C   UNL     1       6.753  26.714  52.382  1.00  0.00     0.039 C 
HETATM    5  C   UNL     1       5.253  26.380  52.641  1.00  0.00    -0.013 C 
HETATM    6  C   UNL     1       4.592  27.353  53.659  1.00  0.00     0.245 C 
HETATM    7  N   UNL     1       4.402  28.742  53.091  1.00  0.00    -0.065 N 
HETATM    8  H   UNL     1       5.310  29.171  52.867  1.00  0.00     0.280 HD
HETATM    9  C   UNL     1       3.583  28.753  51.802  1.00  0.00     0.244 C 
HETATM   10  C   UNL     1       4.274  27.869  50.761  1.00  0.00     0.045 C 
HETATM   11  C   UNL     1       4.458  26.444  51.306  1.00  0.00     0.022 C 
HETATM   12  C   UNL     1       5.142  24.914  53.161  1.00  0.00     0.039 C 
HETATM   13  C   UNL     1       6.100  24.562  54.291  1.00  0.00     0.236 C 
ENDROOT
BRANCH   7  14
HETATM   14  C   UNL     1       3.750  29.650  54.101  1.00  0.00     0.188 A 
HETATM   15  C   UNL     1       4.538  30.847  54.550  1.00  0.00     0.035 A 
HETATM   16  C   UNL     1       3.361  31.022  53.632  1.00  0.00     0.035 A 
ENDBRANCH   7  14
BRANCH  10  17
HETATM   17  C   UNL     1       3.523  27.869  49.446  1.00  0.00    -0.052 A 
HETATM   18  C   UNL     1       2.446  28.752  49.263  1.00  0.00     0.007 A 
HETATM   19  C   UNL     1       1.742  28.778  48.058  1.00  0.00     0.001 A 
HETATM   20  C   UNL     1       2.103  27.923  47.021  1.00  0.00     0.000 A 
HETATM   21  C   UNL     1       3.167  27.041  47.186  1.00  0.00     0.001 A 
HETATM   22  C   UNL     1       3.873  27.011  48.390  1.00  0.00     0.007 A 
ENDBRANCH  10  17
BRANCH   1  23
HETATM   23  C   UNL     1       8.092  23.819  52.873  1.00  0.00     0.323 C 
BRANCH  23  24
HETATM   24  C   UNL     1       8.298  22.495  53.506  1.00  0.00     0.198 A 
HETATM   25  O   UNL     1       7.981  21.395  52.778  1.00  0.00    -0.194 OA
HETATM   26  N   UNL     1       8.237  20.304  53.602  1.00  0.00    -0.112 NA
HETATM   27  C   UNL     1       8.672  20.859  54.741  1.00  0.00     0.152 A 
HETATM   28  C   UNL     1       9.020  20.058  55.932  1.00  0.00     0.096 C 
HETATM   29  N   UNL     1       8.748  22.236  54.714  1.00  0.00    -0.208 NA
ENDBRANCH  23  24
ENDBRANCH   1  23
TORSDOF 4
ENDMDL
MODEL 9
REMARK VINA RESULT:      -7.8      4.105      8.116
REMARK  4 active torsions:
REMARK  status: ('A' for Active; 'I' for Inactive)
REMARK    1  A    between atoms: C_5  and  C_6 
REMARK    2  A    between atoms: C_6  and  N_7 
REMARK    3  A    between atoms: N_13  and  C_15 
REMARK    4  A    between atoms: C_19  and  C_20 
ROOT
HETATM    1  N   UNL     1       7.110  25.087  54.317  1.00  0.00    -0.064 N 
HETATM    2  H   UNL     1       7.386  24.674  55.228  1.00  0.00     0.280 HD
HETATM    3  C   UNL     1       7.604  26.501  54.356  1.00  0.00     0.236 C 
HETATM    4  C   UNL     1       7.094  27.298  53.150  1.00  0.00     0.039 C 
HETATM    5  C   UNL     1       5.564  27.196  52.877  1.00  0.00    -0.013 C 
HETATM    6  C   UNL     1       4.724  28.068  53.854  1.00  0.00     0.245 C 
HETATM    7  N   UNL     1       4.885  29.549  53.591  1.00  0.00    -0.065 N 
HETATM    8  H   UNL     1       5.860  29.842  53.746  1.00  0.00     0.280 HD
HETATM    9  C   UNL     1       4.532  29.943  52.158  1.00  0.00     0.244 C 
HETATM   10  C   UNL     1       5.418  29.156  51.190  1.00  0.00     0.045 C 
HETATM   11  C   UNL     1       5.254  27.645  51.420  1.00  0.00     0.022 C 
HETATM   12  C   UNL     1       5.126  25.703  52.990  1.00  0.00     0.039 C 
HETATM   13  C   UNL     1       5.623  24.984  54.237  1.00  0.00     0.236 C 
ENDROOT
BRANCH   7  14
HETATM   14  C   UNL     1       4.049  30.357  54.549  1.00  0.00     0.188 A 
HETATM   15  C   UNL     1       4.785  31.201  55.551  1.00  0.00     0.035 A 
HETATM   16  C   UNL     1       4.086  31.850  54.391  1.00  0.00     0.035 A 
ENDBRANCH   7  14
BRANCH  10  17
HETATM   17  C   UNL     1       5.136  29.532  49.750  1.00  0.00    -0.052 A 
HETATM   18  C   UNL     1       4.900  30.876  49.418  1.00  0.00     0.007 A 
HETATM   19  C   UNL     1       4.645  31.250  48.098  1.00  0.00     0.001 A 
HETATM   20  C   UNL     1       4.622  30.289  47.092  1.00  0.00     0.000 A 
HETATM   21  C   UNL     1       4.853  28.952  47.404  1.00  0.00     0.001 A 
HETATM   22  C   UNL     1       5.108  28.573  48.724  1.00  0.00     0.007 A 
ENDBRANCH  10  17
BRANCH   1  23
HETATM   23  C   UNL     1       7.868  24.169  53.329  1.00  0.00     0.323 C 
BRANCH  23  24
HETATM   24  C   UNL     1       7.958  22.777  53.826  1.00  0.00     0.198 A 
HETATM   25  O   UNL     1       7.764  21.776  52.931  1.00  0.00    -0.194 OA
HETATM   26  N   UNL     1       7.872  20.591  53.652  1.00  0.00    -0.112 NA
HETATM   27  C   UNL     1       8.113  21.000  54.905  1.00  0.00     0.152 A 
HETATM   28  C   UNL     1       8.252  20.059  56.034  1.00  0.00     0.096 C 
HETATM   29  N   UNL     1       8.198  22.369  55.054  1.00  0.00    -0.208 NA
ENDBRANCH  23  24
ENDBRANCH   1  23
TORSDOF 4
ENDMDL
MODEL 10
REMARK VINA RESULT:      -7.8      4.722      7.782
REMARK  4 active torsions:
REMARK  status: ('A' for Active; 'I' for Inactive)
REMARK    1  A    between atoms: C_5  and  C_6 
REMARK    2  A    between atoms: C_6  and  N_7 
REMARK    3  A    between atoms: N_13  and  C_15 
REMARK    4  A    between atoms: C_19  and  C_20 
ROOT
HETATM    1  N   UNL     1       6.990  24.500  53.420  1.00  0.00    -0.064 N 
HETATM    2  H   UNL     1       7.360  23.538  53.292  1.00  0.00     0.280 HD
HETATM    3  C   UNL     1       5.536  24.416  53.071  1.00  0.00     0.236 C 
HETATM    4  C   UNL     1       4.898  25.809  53.026  1.00  0.00     0.039 C 
HETATM    5  C   UNL     1       5.665  26.871  52.183  1.00  0.00    -0.013 C 
HETATM    6  C   UNL     1       5.454  26.685  50.653  1.00  0.00     0.245 C 
HETATM    7  N   UNL     1       4.052  27.043  50.215  1.00  0.00    -0.065 N 
HETATM    8  H   UNL     1       3.362  26.419  50.655  1.00  0.00     0.280 HD
HETATM    9  C   UNL     1       3.654  28.469  50.592  1.00  0.00     0.244 C 
HETATM   10  C   UNL     1       3.771  28.636  52.109  1.00  0.00     0.045 C 
HETATM   11  C   UNL     1       5.196  28.301  52.577  1.00  0.00     0.022 C 
HETATM   12  C   UNL     1       7.185  26.787  52.523  1.00  0.00     0.039 C 
HETATM   13  C   UNL     1       7.768  25.381  52.500  1.00  0.00     0.236 C 
ENDROOT
BRANCH   7  14
HETATM   14  C   UNL     1       3.892  26.860  48.728  1.00  0.00     0.188 A 
HETATM   15  C   UNL     1       3.220  25.599  48.265  1.00  0.00     0.035 A 
HETATM   16  C   UNL     1       2.493  26.911  48.183  1.00  0.00     0.035 A 
ENDBRANCH   7  14
BRANCH  10  17
HETATM   17  C   UNL     1       3.355  30.025  52.547  1.00  0.00    -0.052 A 
HETATM   18  C   UNL     1       3.468  30.389  53.898  1.00  0.00     0.007 A 
HETATM   19  C   UNL     1       3.100  31.665  54.326  1.00  0.00     0.001 A 
HETATM   20  C   UNL     1       2.612  32.595  53.412  1.00  0.00     0.000 A 
HETATM   21  C   UNL     1       2.492  32.250  52.069  1.00  0.00     0.001 A 
HETATM   22  C   UNL     1       2.860  30.974  51.636  1.00  0.00     0.007 A 
ENDBRANCH  10  17
BRANCH   1  23
HETATM   23  C   UNL     1       7.277  24.734  54.923  1.00  0.00     0.323 C 
BRANCH  23  24
HETATM   24  C   UNL     1       7.661  23.481  55.614  1.00  0.00     0.198 A 
HETATM   25  O   UNL     1       8.075  23.575  56.902  1.00  0.00    -0.194 OA
HETATM   26  N   UNL     1       8.397  22.281  57.297  1.00  0.00    -0.112 NA
HETATM   27  C   UNL     1       8.151  21.544  56.206  1.00  0.00     0.152 A 
HETATM   28  C   UNL     1       8.405  20.090  56.156  1.00  0.00     0.096 C 
HETATM   29  N   UNL     1       7.664  22.257  55.131  1.00  0.00    -0.208 NA
ENDBRANCH  23  24
ENDBRANCH   1  23
TORSDOF 4
ENDMDL
