MODEL 1
REMARK VINA RESULT:     -10.4      0.000      0.000
REMARK  5 active torsions:
REMARK  status: ('A' for Active; 'I' for Inactive)
REMARK    1  A    between atoms: C_7  and  C_8 
REMARK    2  A    between atoms: C_16  and  C_17 
REMARK    3  A    between atoms: C_19  and  O_20 
REMARK    4  A    between atoms: C_24  and  C_25 
REMARK       I    between atoms: C_25  and  N_26 
REMARK    5  A    between atoms: N_26  and  C_27 
ROOT
HETATM    1  C   UNL     1       3.522  29.246  52.663  1.00  0.00     0.070 C 
HETATM    2  C   UNL     1       4.411  28.372  53.518  1.00  0.00     0.037 A 
HETATM    3  N   UNL     1       4.907  27.237  52.882  1.00  0.00    -0.192 N 
HETATM    4  C   UNL     1       5.614  26.283  53.509  1.00  0.00     0.726 A 
HETATM    5  N   UNL     1       5.953  26.460  54.814  1.00  0.00    -0.083 N 
HETATM    6  N   UNL     1       6.532  25.358  55.330  1.00  0.00    -0.135 NA
HETATM    7  C   UNL     1       6.616  24.571  54.240  1.00  0.00     0.199 A 
HETATM    8  N   UNL     1       6.041  25.117  53.104  1.00  0.00    -0.041 NA
HETATM    9  C   UNL     1       5.597  27.644  55.604  1.00  0.00     0.202 A 
HETATM   10  C   UNL     1       4.708  28.615  54.825  1.00  0.00     0.062 A 
HETATM   11  H   UNL     1       4.625  27.078  51.918  1.00  0.00     0.184 HD
ENDROOT
BRANCH  10  12
HETATM   12  C   UNL     1       4.218  29.866  55.505  1.00  0.00     0.256 C 
HETATM   13  N   UNL     1       5.012  30.984  55.343  1.00  0.00    -0.323 N 
HETATM   14  H   UNL     1       5.786  30.952  54.699  1.00  0.00     0.169 HD
HETATM   15  O   UNL     1       3.151  29.848  56.110  1.00  0.00    -0.267 OA
BRANCH  13  16
HETATM   16  C   UNL     1       4.829  32.250  55.947  1.00  0.00     0.035 A 
HETATM   17  C   UNL     1       4.324  33.370  55.282  1.00  0.00     0.029 A 
HETATM   18  C   UNL     1       4.145  34.578  55.964  1.00  0.00     0.002 A 
HETATM   19  C   UNL     1       4.475  34.680  57.313  1.00  0.00     0.000 A 
HETATM   20  C   UNL     1       4.980  33.572  57.984  1.00  0.00     0.002 A 
HETATM   21  C   UNL     1       5.150  32.361  57.307  1.00  0.00     0.029 A 
ENDBRANCH  13  16
ENDBRANCH  10  12
BRANCH   9  22
HETATM   22  C   UNL     1       6.865  28.275  56.173  1.00  0.00    -0.025 A 
HETATM   23  C   UNL     1       7.003  28.559  57.544  1.00  0.00     0.046 A 
HETATM   24  C   UNL     1       8.172  29.150  58.017  1.00  0.00     0.066 A 
HETATM   25  C   UNL     1       9.207  29.483  57.152  1.00  0.00     0.036 A 
HETATM   26  C   UNL     1       9.076  29.226  55.790  1.00  0.00     0.003 A 
HETATM   27  C   UNL     1       7.913  28.628  55.302  1.00  0.00     0.010 A 
BRANCH  24  28
HETATM   28  O   UNL     1       8.341  29.428  59.341  1.00  0.00    -0.361 OA
HETATM   29  H   UNL     1       7.576  29.937  59.656  1.00  0.00     0.217 HD
ENDBRANCH  24  28
ENDBRANCH   9  22
BRANCH   7  30
HETATM   30  C   UNL     1       7.230  23.248  54.243  1.00  0.00     0.016 A 
HETATM   31  C   UNL     1       7.565  22.615  55.449  1.00  0.00     0.039 A 
HETATM   32  C   UNL     1       8.153  21.350  55.437  1.00  0.00     0.035 A 
HETATM   33 CL   UNL     1       8.559  20.583  56.923  1.00  0.00    -0.084 Cl
HETATM   34  C   UNL     1       8.417  20.701  54.232  1.00  0.00     0.024 A 
HETATM   35  C   UNL     1       8.088  21.321  53.028  1.00  0.00     0.003 A 
HETATM   36  C   UNL     1       7.498  22.588  53.034  1.00  0.00     0.015 A 
ENDBRANCH   7  30
TORSDOF 5
ENDMDL
MODEL 2
REMARK VINA RESULT:     -10.2      4.733      9.719
REMARK  5 active torsions:
REMARK  status: ('A' for Active; 'I' for Inactive)
REMARK    1  A    between atoms: C_7  and  C_8 
REMARK    2  A    between atoms: C_16  and  C_17 
REMARK    3  A    between atoms: C_19  and  O_20 
REMARK    4  A    between atoms: C_24  and  C_25 
REMARK       I    between atoms: C_25  and  N_26 
REMARK    5  A    between atoms: N_26  and  C_27 
ROOT
HETATM    1  C   UNL     1      11.111  29.801  56.988  1.00  0.00     0.070 C 
HETATM    2  C   UNL     1       9.868  30.121  57.788  1.00  0.00     0.037 A 
HETATM    3  N   UNL     1       9.997  31.189  58.672  1.00  0.00    -0.192 N 
HETATM    4  C   UNL     1       9.045  31.546  59.550  1.00  0.00     0.726 A 
HETATM    5  N   UNL     1       7.847  30.901  59.526  1.00  0.00    -0.083 N 
HETATM    6  N   UNL     1       7.062  31.277  60.554  1.00  0.00    -0.135 NA
HETATM    7  C   UNL     1       7.808  32.249  61.113  1.00  0.00     0.199 A 
HETATM    8  N   UNL     1       9.046  32.424  60.517  1.00  0.00    -0.041 NA
HETATM    9  C   UNL     1       7.512  29.821  58.591  1.00  0.00     0.202 A 
HETATM   10  C   UNL     1       8.699  29.427  57.710  1.00  0.00     0.062 A 
HETATM   11  H   UNL     1      10.902  31.650  58.724  1.00  0.00     0.184 HD
ENDROOT
BRANCH  10  12
HETATM   12  C   UNL     1       8.535  28.304  56.721  1.00  0.00     0.256 C 
HETATM   13  N   UNL     1       8.211  27.075  57.260  1.00  0.00    -0.323 N 
HETATM   14  H   UNL     1       7.982  27.009  58.238  1.00  0.00     0.169 HD
HETATM   15  O   UNL     1       8.647  28.534  55.520  1.00  0.00    -0.267 OA
BRANCH  13  16
HETATM   16  C   UNL     1       8.092  25.848  56.565  1.00  0.00     0.035 A 
HETATM   17  C   UNL     1       7.263  25.652  55.459  1.00  0.00     0.029 A 
HETATM   18  C   UNL     1       7.227  24.412  54.811  1.00  0.00     0.002 A 
HETATM   19  C   UNL     1       8.015  23.358  55.265  1.00  0.00     0.000 A 
HETATM   20  C   UNL     1       8.844  23.542  56.367  1.00  0.00     0.002 A 
HETATM   21  C   UNL     1       8.887  24.783  57.010  1.00  0.00     0.029 A 
ENDBRANCH  13  16
ENDBRANCH  10  12
BRANCH   9  22
HETATM   22  C   UNL     1       6.252  30.195  57.815  1.00  0.00    -0.025 A 
HETATM   23  C   UNL     1       5.312  29.229  57.414  1.00  0.00     0.046 A 
HETATM   24  C   UNL     1       4.184  29.614  56.692  1.00  0.00     0.066 A 
HETATM   25  C   UNL     1       3.977  30.942  56.343  1.00  0.00     0.036 A 
HETATM   26  C   UNL     1       4.909  31.907  56.716  1.00  0.00     0.003 A 
HETATM   27  C   UNL     1       6.041  31.537  57.445  1.00  0.00     0.010 A 
BRANCH  24  28
HETATM   28  O   UNL     1       3.250  28.703  56.298  1.00  0.00    -0.361 OA
HETATM   29  H   UNL     1       3.424  28.452  55.376  1.00  0.00     0.217 HD
ENDBRANCH  24  28
ENDBRANCH   9  22
BRANCH   7  30
HETATM   30  C   UNL     1       7.378  33.040  62.261  1.00  0.00     0.016 A 
HETATM   31  C   UNL     1       6.450  34.080  62.110  1.00  0.00     0.039 A 
HETATM   32  C   UNL     1       6.050  34.829  63.215  1.00  0.00     0.035 A 
HETATM   33 CL   UNL     1       4.910  36.103  63.017  1.00  0.00    -0.084 Cl
HETATM   34  C   UNL     1       6.566  34.558  64.482  1.00  0.00     0.024 A 
HETATM   35  C   UNL     1       7.489  33.527  64.644  1.00  0.00     0.003 A 
HETATM   36  C   UNL     1       7.894  32.772  63.540  1.00  0.00     0.015 A 
ENDBRANCH   7  30
TORSDOF 5
ENDMDL
MODEL 3
REMARK VINA RESULT:      -9.9      2.275      3.079
REMARK  5 active torsions:
REMARK  status: ('A' for Active; 'I' for Inactive)
REMARK    1  A    between atoms: C_7  and  C_8 
REMARK    2  A    between atoms: C_16  and  C_17 
REMARK    3  A    between atoms: C_19  and  O_20 
REMARK    4  A    between atoms: C_24  and  C_25 
REMARK       I    between atoms: C_25  and  N_26 
REMARK    5  A    between atoms: N_26  and  C_27 
ROOT
HETATM    1  C   UNL     1       3.673  30.672  55.423  1.00  0.00     0.070 C 
HETATM    2  C   UNL     1       4.785  29.779  55.923  1.00  0.00     0.037 A 
HETATM    3  N   UNL     1       4.945  28.589  55.219  1.00  0.00    -0.192 N 
HETATM    4  C   UNL     1       5.798  27.617  55.585  1.00  0.00     0.726 A 
HETATM    5  N   UNL     1       6.624  27.827  56.645  1.00  0.00    -0.083 N 
HETATM    6  N   UNL     1       7.309  26.712  56.966  1.00  0.00    -0.135 NA
HETATM    7  C   UNL     1       6.929  25.876  55.981  1.00  0.00     0.199 A 
HETATM    8  N   UNL     1       5.983  26.410  55.121  1.00  0.00    -0.041 NA
HETATM    9  C   UNL     1       6.654  29.063  57.434  1.00  0.00     0.202 A 
HETATM   10  C   UNL     1       5.576  30.056  56.997  1.00  0.00     0.062 A 
HETATM   11  H   UNL     1       4.304  28.408  54.450  1.00  0.00     0.184 HD
ENDROOT
BRANCH  10  12
HETATM   12  C   UNL     1       5.443  31.363  57.732  1.00  0.00     0.256 C 
HETATM   13  N   UNL     1       4.964  31.276  59.024  1.00  0.00    -0.323 N 
HETATM   14  H   UNL     1       4.848  30.370  59.449  1.00  0.00     0.169 HD
HETATM   15  O   UNL     1       5.799  32.404  57.187  1.00  0.00    -0.267 OA
BRANCH  13  16
HETATM   16  C   UNL     1       4.662  32.352  59.892  1.00  0.00     0.035 A 
HETATM   17  C   UNL     1       3.396  32.930  60.012  1.00  0.00     0.029 A 
HETATM   18  C   UNL     1       3.176  33.973  60.918  1.00  0.00     0.002 A 
HETATM   19  C   UNL     1       4.219  34.450  61.708  1.00  0.00     0.000 A 
HETATM   20  C   UNL     1       5.484  33.882  61.596  1.00  0.00     0.002 A 
HETATM   21  C   UNL     1       5.703  32.834  60.697  1.00  0.00     0.029 A 
ENDBRANCH  13  16
ENDBRANCH  10  12
BRANCH   9  22
HETATM   22  C   UNL     1       8.070  29.633  57.430  1.00  0.00    -0.025 A 
HETATM   23  C   UNL     1       8.498  30.567  58.391  1.00  0.00     0.046 A 
HETATM   24  C   UNL     1       9.795  31.074  58.339  1.00  0.00     0.066 A 
HETATM   25  C   UNL     1      10.676  30.684  57.338  1.00  0.00     0.036 A 
HETATM   26  C   UNL     1      10.260  29.775  56.369  1.00  0.00     0.003 A 
HETATM   27  C   UNL     1       8.966  29.254  56.411  1.00  0.00     0.010 A 
BRANCH  24  28
HETATM   28  O   UNL     1      10.243  31.972  59.261  1.00  0.00    -0.361 OA
HETATM   29  H   UNL     1      10.543  31.491  60.049  1.00  0.00     0.217 HD
ENDBRANCH  24  28
ENDBRANCH   9  22
BRANCH   7  30
HETATM   30  C   UNL     1       7.437  24.517  55.832  1.00  0.00     0.016 A 
HETATM   31  C   UNL     1       7.393  23.867  54.590  1.00  0.00     0.039 A 
HETATM   32  C   UNL     1       7.880  22.567  54.461  1.00  0.00     0.035 A 
HETATM   33 CL   UNL     1       7.821  21.779  52.932  1.00  0.00    -0.084 Cl
HETATM   34  C   UNL     1       8.415  21.897  55.561  1.00  0.00     0.024 A 
HETATM   35  C   UNL     1       8.464  22.533  56.799  1.00  0.00     0.003 A 
HETATM   36  C   UNL     1       7.977  23.836  56.934  1.00  0.00     0.015 A 
ENDBRANCH   7  30
TORSDOF 5
ENDMDL
MODEL 4
REMARK VINA RESULT:      -9.7      3.760      5.707
REMARK  5 active torsions:
REMARK  status: ('A' for Active; 'I' for Inactive)
REMARK    1  A    between atoms: C_7  and  C_8 
REMARK    2  A    between atoms: C_16  and  C_17 
REMARK    3  A    between atoms: C_19  and  O_20 
REMARK    4  A    between atoms: C_24  and  C_25 
REMARK       I    between atoms: C_25  and  N_26 
REMARK    5  A    between atoms: N_26  and  C_27 
ROOT
HETATM    1  C   UNL     1       3.470  29.949  54.046  1.00  0.00     0.070 C 
HETATM    2  C   UNL     1       4.265  28.858  53.365  1.00  0.00     0.037 A 
HETATM    3  N   UNL     1       4.434  27.698  54.116  1.00  0.00    -0.192 N 
HETATM    4  C   UNL     1       5.207  26.669  53.732  1.00  0.00     0.726 A 
HETATM    5  N   UNL     1       5.792  26.704  52.504  1.00  0.00    -0.083 N 
HETATM    6  N   UNL     1       6.642  25.673  52.332  1.00  0.00    -0.135 NA
HETATM    7  C   UNL     1       6.443  24.975  53.466  1.00  0.00     0.199 A 
HETATM    8  N   UNL     1       5.569  25.580  54.355  1.00  0.00    -0.041 NA
HETATM    9  C   UNL     1       5.636  27.806  51.548  1.00  0.00     0.202 A 
HETATM   10  C   UNL     1       4.824  28.965  52.127  1.00  0.00     0.062 A 
HETATM   11  H   UNL     1       4.033  27.681  55.050  1.00  0.00     0.184 HD
ENDROOT
BRANCH  10  12
HETATM   12  C   UNL     1       4.604  30.196  51.288  1.00  0.00     0.256 C 
HETATM   13  N   UNL     1       5.723  30.971  51.059  1.00  0.00    -0.323 N 
HETATM   14  H   UNL     1       6.628  30.630  51.342  1.00  0.00     0.169 HD
HETATM   15  O   UNL     1       3.490  30.421  50.825  1.00  0.00    -0.267 OA
BRANCH  13  16
HETATM   16  C   UNL     1       5.772  32.214  50.386  1.00  0.00     0.035 A 
HETATM   17  C   UNL     1       5.480  33.441  50.985  1.00  0.00     0.029 A 
HETATM   18  C   UNL     1       5.582  34.630  50.254  1.00  0.00     0.002 A 
HETATM   19  C   UNL     1       5.970  34.602  48.917  1.00  0.00     0.000 A 
HETATM   20  C   UNL     1       6.262  33.385  48.310  1.00  0.00     0.002 A 
HETATM   21  C   UNL     1       6.170  32.198  49.042  1.00  0.00     0.029 A 
ENDBRANCH  13  16
ENDBRANCH  10  12
BRANCH   9  22
HETATM   22  C   UNL     1       5.097  27.260  50.229  1.00  0.00    -0.025 A 
HETATM   23  C   UNL     1       4.295  26.106  50.175  1.00  0.00     0.046 A 
HETATM   24  C   UNL     1       3.838  25.634  48.946  1.00  0.00     0.066 A 
HETATM   25  C   UNL     1       4.175  26.277  47.762  1.00  0.00     0.036 A 
HETATM   26  C   UNL     1       4.984  27.410  47.799  1.00  0.00     0.003 A 
HETATM   27  C   UNL     1       5.444  27.898  49.023  1.00  0.00     0.010 A 
BRANCH  24  28
HETATM   28  O   UNL     1       3.051  24.524  48.860  1.00  0.00    -0.361 OA
HETATM   29  H   UNL     1       2.646  24.492  47.978  1.00  0.00     0.217 HD
ENDBRANCH  24  28
ENDBRANCH   9  22
BRANCH   7  30
HETATM   30  C   UNL     1       7.101  23.707  53.763  1.00  0.00     0.016 A 
HETATM   31  C   UNL     1       7.329  23.310  55.088  1.00  0.00     0.039 A 
HETATM   32  C   UNL     1       7.961  22.096  55.357  1.00  0.00     0.035 A 
HETATM   33 CL   UNL     1       8.235  21.619  56.988  1.00  0.00    -0.084 Cl
HETATM   34  C   UNL     1       8.375  21.265  54.318  1.00  0.00     0.024 A 
HETATM   35  C   UNL     1       8.153  21.650  52.997  1.00  0.00     0.003 A 
HETATM   36  C   UNL     1       7.521  22.865  52.721  1.00  0.00     0.015 A 
ENDBRANCH   7  30
TORSDOF 5
ENDMDL
MODEL 5
REMARK VINA RESULT:      -9.5      6.112     10.631
REMARK  5 active torsions:
REMARK  status: ('A' for Active; 'I' for Inactive)
REMARK    1  A    between atoms: C_7  and  C_8 
REMARK    2  A    between atoms: C_16  and  C_17 
REMARK    3  A    between atoms: C_19  and  O_20 
REMARK    4  A    between atoms: C_24  and  C_25 
REMARK       I    between atoms: C_25  and  N_26 
REMARK    5  A    between atoms: N_26  and  C_27 
ROOT
HETATM    1  C   UNL     1       3.013  30.823  59.065  1.00  0.00     0.070 C 
HETATM    2  C   UNL     1       3.953  31.562  59.990  1.00  0.00     0.037 A 
HETATM    3  N   UNL     1       3.439  31.835  61.254  1.00  0.00    -0.192 N 
HETATM    4  C   UNL     1       4.076  32.583  62.169  1.00  0.00     0.726 A 
HETATM    5  N   UNL     1       5.333  33.030  61.900  1.00  0.00    -0.083 N 
HETATM    6  N   UNL     1       5.771  33.878  62.852  1.00  0.00    -0.135 NA
HETATM    7  C   UNL     1       4.762  33.819  63.742  1.00  0.00     0.199 A 
HETATM    8  N   UNL     1       3.695  33.034  63.335  1.00  0.00    -0.041 NA
HETATM    9  C   UNL     1       6.058  32.748  60.657  1.00  0.00     0.202 A 
HETATM   10  C   UNL     1       5.204  31.980  59.648  1.00  0.00     0.062 A 
HETATM   11  H   UNL     1       2.486  31.539  61.448  1.00  0.00     0.184 HD
ENDROOT
BRANCH  10  12
HETATM   12  C   UNL     1       5.786  31.643  58.301  1.00  0.00     0.256 C 
HETATM   13  N   UNL     1       6.212  30.339  58.143  1.00  0.00    -0.323 N 
HETATM   14  H   UNL     1       6.008  29.662  58.860  1.00  0.00     0.169 HD
HETATM   15  O   UNL     1       5.811  32.499  57.422  1.00  0.00    -0.267 OA
BRANCH  13  16
HETATM   16  C   UNL     1       6.873  29.793  57.018  1.00  0.00     0.035 A 
HETATM   17  C   UNL     1       8.261  29.761  56.863  1.00  0.00     0.029 A 
HETATM   18  C   UNL     1       8.835  29.174  55.731  1.00  0.00     0.002 A 
HETATM   19  C   UNL     1       8.028  28.618  54.742  1.00  0.00     0.000 A 
HETATM   20  C   UNL     1       6.645  28.645  54.884  1.00  0.00     0.002 A 
HETATM   21  C   UNL     1       6.070  29.224  56.020  1.00  0.00     0.029 A 
ENDBRANCH  13  16
ENDBRANCH  10  12
BRANCH   9  22
HETATM   22  C   UNL     1       7.391  32.079  60.988  1.00  0.00    -0.025 A 
HETATM   23  C   UNL     1       7.491  31.062  61.953  1.00  0.00     0.046 A 
HETATM   24  C   UNL     1       8.730  30.491  62.235  1.00  0.00     0.066 A 
HETATM   25  C   UNL     1       9.881  30.922  61.587  1.00  0.00     0.036 A 
HETATM   26  C   UNL     1       9.799  31.942  60.642  1.00  0.00     0.003 A 
HETATM   27  C   UNL     1       8.564  32.519  60.345  1.00  0.00     0.010 A 
BRANCH  24  28
HETATM   28  O   UNL     1       8.860  29.496  63.158  1.00  0.00    -0.361 OA
HETATM   29  H   UNL     1       7.998  29.069  63.284  1.00  0.00     0.217 HD
ENDBRANCH  24  28
ENDBRANCH   9  22
BRANCH   7  30
HETATM   30  C   UNL     1       4.763  34.532  65.015  1.00  0.00     0.016 A 
HETATM   31  C   UNL     1       5.706  34.227  66.007  1.00  0.00     0.039 A 
HETATM   32  C   UNL     1       5.694  34.915  67.220  1.00  0.00     0.035 A 
HETATM   33 CL   UNL     1       6.856  34.533  68.430  1.00  0.00    -0.084 Cl
HETATM   34  C   UNL     1       4.748  35.909  67.463  1.00  0.00     0.024 A 
HETATM   35  C   UNL     1       3.806  36.220  66.485  1.00  0.00     0.003 A 
HETATM   36  C   UNL     1       3.813  35.534  65.267  1.00  0.00     0.015 A 
ENDBRANCH   7  30
TORSDOF 5
ENDMDL
MODEL 6
REMARK VINA RESULT:      -9.3      3.683      9.151
REMARK  5 active torsions:
REMARK  status: ('A' for Active; 'I' for Inactive)
REMARK    1  A    between atoms: C_7  and  C_8 
REMARK    2  A    between atoms: C_16  and  C_17 
REMARK    3  A    between atoms: C_19  and  O_20 
REMARK    4  A    between atoms: C_24  and  C_25 
REMARK       I    between atoms: C_25  and  N_26 
REMARK    5  A    between atoms: N_26  and  C_27 
ROOT
HETATM    1  C   UNL     1       8.406  27.301  57.068  1.00  0.00     0.070 C 
HETATM    2  C   UNL     1       7.176  27.592  56.238  1.00  0.00     0.037 A 
HETATM    3  N   UNL     1       6.850  28.941  56.123  1.00  0.00    -0.192 N 
HETATM    4  C   UNL     1       5.732  29.387  55.529  1.00  0.00     0.726 A 
HETATM    5  N   UNL     1       4.905  28.495  54.918  1.00  0.00    -0.083 N 
HETATM    6  N   UNL     1       3.767  29.081  54.499  1.00  0.00    -0.135 NA
HETATM    7  C   UNL     1       4.013  30.372  54.792  1.00  0.00     0.199 A 
HETATM    8  N   UNL     1       5.217  30.585  55.442  1.00  0.00    -0.041 NA
HETATM    9  C   UNL     1       5.153  27.050  54.861  1.00  0.00     0.202 A 
HETATM   10  C   UNL     1       6.394  26.642  55.655  1.00  0.00     0.062 A 
HETATM   11  H   UNL     1       7.441  29.610  56.610  1.00  0.00     0.184 HD
ENDROOT
BRANCH  10  12
HETATM   12  C   UNL     1       6.768  25.185  55.731  1.00  0.00     0.256 C 
HETATM   13  N   UNL     1       7.654  24.744  54.768  1.00  0.00    -0.323 N 
HETATM   14  H   UNL     1       8.094  25.414  54.157  1.00  0.00     0.169 HD
HETATM   15  O   UNL     1       6.322  24.493  56.641  1.00  0.00    -0.267 OA
BRANCH  13  16
HETATM   16  C   UNL     1       8.092  23.415  54.562  1.00  0.00     0.035 A 
HETATM   17  C   UNL     1       8.932  22.723  55.437  1.00  0.00     0.029 A 
HETATM   18  C   UNL     1       9.293  21.397  55.173  1.00  0.00     0.002 A 
HETATM   19  C   UNL     1       8.824  20.755  54.030  1.00  0.00     0.000 A 
HETATM   20  C   UNL     1       7.988  21.436  53.151  1.00  0.00     0.002 A 
HETATM   21  C   UNL     1       7.619  22.757  53.419  1.00  0.00     0.029 A 
ENDBRANCH  13  16
ENDBRANCH  10  12
BRANCH   9  22
HETATM   22  C   UNL     1       5.164  26.595  53.403  1.00  0.00    -0.025 A 
HETATM   23  C   UNL     1       5.527  27.463  52.357  1.00  0.00     0.046 A 
HETATM   24  C   UNL     1       5.506  27.010  51.040  1.00  0.00     0.066 A 
HETATM   25  C   UNL     1       5.115  25.713  50.735  1.00  0.00     0.036 A 
HETATM   26  C   UNL     1       4.735  24.849  51.759  1.00  0.00     0.003 A 
HETATM   27  C   UNL     1       4.756  25.286  53.084  1.00  0.00     0.010 A 
BRANCH  24  28
HETATM   28  O   UNL     1       5.862  27.822  50.005  1.00  0.00    -0.361 OA
HETATM   29  H   UNL     1       6.831  27.865  49.956  1.00  0.00     0.217 HD
ENDBRANCH  24  28
ENDBRANCH   9  22
BRANCH   7  30
HETATM   30  C   UNL     1       3.092  31.462  54.482  1.00  0.00     0.016 A 
HETATM   31  C   UNL     1       3.059  32.031  53.201  1.00  0.00     0.039 A 
HETATM   32  C   UNL     1       2.176  33.073  52.920  1.00  0.00     0.035 A 
HETATM   33 CL   UNL     1       2.144  33.763  51.344  1.00  0.00    -0.084 Cl
HETATM   34  C   UNL     1       1.319  33.563  53.904  1.00  0.00     0.024 A 
HETATM   35  C   UNL     1       1.344  33.005  55.181  1.00  0.00     0.003 A 
HETATM   36  C   UNL     1       2.227  31.960  55.468  1.00  0.00     0.015 A 
ENDBRANCH   7  30
TORSDOF 5
ENDMDL
MODEL 7
REMARK VINA RESULT:      -9.2      3.848      7.579
REMARK  5 active torsions:
REMARK  status: ('A' for Active; 'I' for Inactive)
REMARK    1  A    between atoms: C_7  and  C_8 
REMARK    2  A    between atoms: C_16  and  C_17 
REMARK    3  A    between atoms: C_19  and  O_20 
REMARK    4  A    between atoms: C_24  and  C_25 
REMARK       I    between atoms: C_25  and  N_26 
REMARK    5  A    between atoms: N_26  and  C_27 
ROOT
HETATM    1  C   UNL     1       2.963  31.013  54.199  1.00  0.00     0.070 C 
HETATM    2  C   UNL     1       4.164  30.516  54.971  1.00  0.00     0.037 A 
HETATM    3  N   UNL     1       4.411  31.182  56.167  1.00  0.00    -0.192 N 
HETATM    4  C   UNL     1       5.496  30.965  56.929  1.00  0.00     0.726 A 
HETATM    5  N   UNL     1       6.365  29.979  56.578  1.00  0.00    -0.083 N 
HETATM    6  N   UNL     1       7.463  29.986  57.358  1.00  0.00    -0.135 NA
HETATM    7  C   UNL     1       7.147  30.945  58.249  1.00  0.00     0.199 A 
HETATM    8  N   UNL     1       5.939  31.575  57.996  1.00  0.00    -0.041 NA
HETATM    9  C   UNL     1       6.200  29.117  55.402  1.00  0.00     0.202 A 
HETATM   10  C   UNL     1       4.993  29.518  54.553  1.00  0.00     0.062 A 
HETATM   11  H   UNL     1       3.789  31.947  56.416  1.00  0.00     0.184 HD
ENDROOT
BRANCH  10  12
HETATM   12  C   UNL     1       4.704  28.758  53.286  1.00  0.00     0.256 C 
HETATM   13  N   UNL     1       5.467  29.111  52.190  1.00  0.00    -0.323 N 
HETATM   14  H   UNL     1       6.240  29.746  52.310  1.00  0.00     0.169 HD
HETATM   15  O   UNL     1       3.867  27.861  53.296  1.00  0.00    -0.267 OA
BRANCH  13  16
HETATM   16  C   UNL     1       5.334  28.621  50.870  1.00  0.00     0.035 A 
HETATM   17  C   UNL     1       5.145  27.275  50.549  1.00  0.00     0.029 A 
HETATM   18  C   UNL     1       4.992  26.878  49.217  1.00  0.00     0.002 A 
HETATM   19  C   UNL     1       5.033  27.821  48.193  1.00  0.00     0.000 A 
HETATM   20  C   UNL     1       5.223  29.165  48.501  1.00  0.00     0.002 A 
HETATM   21  C   UNL     1       5.366  29.563  49.833  1.00  0.00     0.029 A 
ENDBRANCH  13  16
ENDBRANCH  10  12
BRANCH   9  22
HETATM   22  C   UNL     1       6.199  27.655  55.842  1.00  0.00    -0.025 A 
HETATM   23  C   UNL     1       5.151  27.110  56.606  1.00  0.00     0.046 A 
HETATM   24  C   UNL     1       5.199  25.774  56.999  1.00  0.00     0.066 A 
HETATM   25  C   UNL     1       6.279  24.968  56.663  1.00  0.00     0.036 A 
HETATM   26  C   UNL     1       7.332  25.499  55.922  1.00  0.00     0.003 A 
HETATM   27  C   UNL     1       7.295  26.834  55.516  1.00  0.00     0.010 A 
BRANCH  24  28
HETATM   28  O   UNL     1       4.196  25.214  57.732  1.00  0.00    -0.361 OA
HETATM   29  H   UNL     1       3.777  24.512  57.207  1.00  0.00     0.217 HD
ENDBRANCH  24  28
ENDBRANCH   9  22
BRANCH   7  30
HETATM   30  C   UNL     1       7.999  31.319  59.372  1.00  0.00     0.016 A 
HETATM   31  C   UNL     1       7.448  31.584  60.634  1.00  0.00     0.039 A 
HETATM   32  C   UNL     1       8.275  31.942  61.699  1.00  0.00     0.035 A 
HETATM   33 CL   UNL     1       7.587  32.264  63.243  1.00  0.00    -0.084 Cl
HETATM   34  C   UNL     1       9.654  32.044  61.524  1.00  0.00     0.024 A 
HETATM   35  C   UNL     1      10.212  31.784  60.275  1.00  0.00     0.003 A 
HETATM   36  C   UNL     1       9.389  31.424  59.204  1.00  0.00     0.015 A 
ENDBRANCH   7  30
TORSDOF 5
ENDMDL
MODEL 8
REMARK VINA RESULT:      -9.0      3.408      8.606
REMARK  5 active torsions:
REMARK  status: ('A' for Active; 'I' for Inactive)
REMARK    1  A    between atoms: C_7  and  C_8 
REMARK    2  A    between atoms: C_16  and  C_17 
REMARK    3  A    between atoms: C_19  and  O_20 
REMARK    4  A    between atoms: C_24  and  C_25 
REMARK       I    between atoms: C_25  and  N_26 
REMARK    5  A    between atoms: N_26  and  C_27 
ROOT
HETATM    1  C   UNL     1       4.647  25.302  57.173  1.00  0.00     0.070 C 
HETATM    2  C   UNL     1       5.102  26.670  56.719  1.00  0.00     0.037 A 
HETATM    3  N   UNL     1       4.188  27.697  56.938  1.00  0.00    -0.192 N 
HETATM    4  C   UNL     1       4.362  28.954  56.498  1.00  0.00     0.726 A 
HETATM    5  N   UNL     1       5.529  29.284  55.882  1.00  0.00    -0.083 N 
HETATM    6  N   UNL     1       5.487  30.532  55.377  1.00  0.00    -0.135 NA
HETATM    7  C   UNL     1       4.289  30.955  55.821  1.00  0.00     0.199 A 
HETATM    8  N   UNL     1       3.567  29.991  56.506  1.00  0.00    -0.041 NA
HETATM    9  C   UNL     1       6.636  28.347  55.660  1.00  0.00     0.202 A 
HETATM   10  C   UNL     1       6.292  26.925  56.106  1.00  0.00     0.062 A 
HETATM   11  H   UNL     1       3.297  27.450  57.362  1.00  0.00     0.184 HD
ENDROOT
BRANCH  10  12
HETATM   12  C   UNL     1       7.306  25.830  55.911  1.00  0.00     0.256 C 
HETATM   13  N   UNL     1       7.050  24.956  54.873  1.00  0.00    -0.323 N 
HETATM   14  H   UNL     1       6.296  25.153  54.235  1.00  0.00     0.169 HD
HETATM   15  O   UNL     1       8.302  25.793  56.627  1.00  0.00    -0.267 OA
BRANCH  13  16
HETATM   16  C   UNL     1       7.790  23.798  54.536  1.00  0.00     0.035 A 
HETATM   17  C   UNL     1       8.788  23.244  55.340  1.00  0.00     0.029 A 
HETATM   18  C   UNL     1       9.451  22.077  54.946  1.00  0.00     0.002 A 
HETATM   19  C   UNL     1       9.126  21.457  53.743  1.00  0.00     0.000 A 
HETATM   20  C   UNL     1       8.133  22.000  52.933  1.00  0.00     0.002 A 
HETATM   21  C   UNL     1       7.465  23.161  53.330  1.00  0.00     0.029 A 
ENDBRANCH  13  16
ENDBRANCH  10  12
BRANCH   9  22
HETATM   22  C   UNL     1       7.910  28.909  56.287  1.00  0.00    -0.025 A 
HETATM   23  C   UNL     1       7.985  29.230  57.654  1.00  0.00     0.046 A 
HETATM   24  C   UNL     1       9.163  29.757  58.180  1.00  0.00     0.066 A 
HETATM   25  C   UNL     1      10.268  29.988  57.371  1.00  0.00     0.036 A 
HETATM   26  C   UNL     1      10.201  29.692  56.012  1.00  0.00     0.003 A 
HETATM   27  C   UNL     1       9.030  29.158  55.471  1.00  0.00     0.010 A 
BRANCH  24  28
HETATM   28  O   UNL     1       9.271  30.069  59.502  1.00  0.00    -0.361 OA
HETATM   29  H   UNL     1      10.180  30.359  59.684  1.00  0.00     0.217 HD
ENDBRANCH  24  28
ENDBRANCH   9  22
BRANCH   7  30
HETATM   30  C   UNL     1       3.767  32.298  55.590  1.00  0.00     0.016 A 
HETATM   31  C   UNL     1       4.551  33.429  55.858  1.00  0.00     0.039 A 
HETATM   32  C   UNL     1       4.040  34.706  55.634  1.00  0.00     0.035 A 
HETATM   33 CL   UNL     1       5.012  36.087  55.968  1.00  0.00    -0.084 Cl
HETATM   34  C   UNL     1       2.746  34.877  55.143  1.00  0.00     0.024 A 
HETATM   35  C   UNL     1       1.958  33.761  54.873  1.00  0.00     0.003 A 
HETATM   36  C   UNL     1       2.465  32.478  55.096  1.00  0.00     0.015 A 
ENDBRANCH   7  30
TORSDOF 5
ENDMDL
MODEL 9
REMARK VINA RESULT:      -9.0      3.362      9.093
REMARK  5 active torsions:
REMARK  status: ('A' for Active; 'I' for Inactive)
REMARK    1  A    between atoms: C_7  and  C_8 
REMARK    2  A    between atoms: C_16  and  C_17 
REMARK    3  A    between atoms: C_19  and  O_20 
REMARK    4  A    between atoms: C_24  and  C_25 
REMARK       I    between atoms: C_25  and  N_26 
REMARK    5  A    between atoms: N_26  and  C_27 
ROOT
HETATM    1  C   UNL     1       8.771  25.805  57.516  1.00  0.00     0.070 C 
HETATM    2  C   UNL     1       7.687  26.806  57.187  1.00  0.00     0.037 A 
HETATM    3  N   UNL     1       7.879  28.077  57.721  1.00  0.00    -0.192 N 
HETATM    4  C   UNL     1       6.970  29.063  57.640  1.00  0.00     0.726 A 
HETATM    5  N   UNL     1       5.833  28.857  56.921  1.00  0.00    -0.083 N 
HETATM    6  N   UNL     1       4.970  29.882  57.057  1.00  0.00    -0.135 NA
HETATM    7  C   UNL     1       5.697  30.743  57.794  1.00  0.00     0.199 A 
HETATM    8  N   UNL     1       6.934  30.252  58.179  1.00  0.00    -0.041 NA
HETATM    9  C   UNL     1       5.521  27.611  56.213  1.00  0.00     0.202 A 
HETATM   10  C   UNL     1       6.570  26.526  56.458  1.00  0.00     0.062 A 
HETATM   11  H   UNL     1       8.706  28.227  58.293  1.00  0.00     0.184 HD
ENDROOT
BRANCH  10  12
HETATM   12  C   UNL     1       6.380  25.168  55.835  1.00  0.00     0.256 C 
HETATM   13  N   UNL     1       7.538  24.518  55.455  1.00  0.00    -0.323 N 
HETATM   14  H   UNL     1       8.431  24.905  55.715  1.00  0.00     0.169 HD
HETATM   15  O   UNL     1       5.250  24.699  55.739  1.00  0.00    -0.267 OA
BRANCH  13  16
HETATM   16  C   UNL     1       7.632  23.284  54.770  1.00  0.00     0.035 A 
HETATM   17  C   UNL     1       7.692  23.161  53.380  1.00  0.00     0.029 A 
HETATM   18  C   UNL     1       7.815  21.902  52.784  1.00  0.00     0.002 A 
HETATM   19  C   UNL     1       7.874  20.754  53.570  1.00  0.00     0.000 A 
HETATM   20  C   UNL     1       7.814  20.864  54.956  1.00  0.00     0.002 A 
HETATM   21  C   UNL     1       7.700  22.123  55.553  1.00  0.00     0.029 A 
ENDBRANCH  13  16
ENDBRANCH  10  12
BRANCH   9  22
HETATM   22  C   UNL     1       5.267  27.915  54.739  1.00  0.00    -0.025 A 
HETATM   23  C   UNL     1       3.965  28.060  54.224  1.00  0.00     0.046 A 
HETATM   24  C   UNL     1       3.780  28.321  52.868  1.00  0.00     0.066 A 
HETATM   25  C   UNL     1       4.863  28.425  52.005  1.00  0.00     0.036 A 
HETATM   26  C   UNL     1       6.155  28.266  52.497  1.00  0.00     0.003 A 
HETATM   27  C   UNL     1       6.358  28.009  53.854  1.00  0.00     0.010 A 
BRANCH  24  28
HETATM   28  O   UNL     1       2.533  28.476  52.340  1.00  0.00    -0.361 OA
HETATM   29  H   UNL     1       2.094  29.221  52.783  1.00  0.00     0.217 HD
ENDBRANCH  24  28
ENDBRANCH   9  22
BRANCH   7  30
HETATM   30  C   UNL     1       5.230  32.069  58.185  1.00  0.00     0.016 A 
HETATM   31  C   UNL     1       5.112  32.418  59.538  1.00  0.00     0.039 A 
HETATM   32  C   UNL     1       4.662  33.687  59.898  1.00  0.00     0.035 A 
HETATM   33 CL   UNL     1       4.522  34.104  61.562  1.00  0.00    -0.084 Cl
HETATM   34  C   UNL     1       4.323  34.624  58.923  1.00  0.00     0.024 A 
HETATM   35  C   UNL     1       4.436  34.288  57.575  1.00  0.00     0.003 A 
HETATM   36  C   UNL     1       4.886  33.017  57.209  1.00  0.00     0.015 A 
ENDBRANCH   7  30
TORSDOF 5
ENDMDL
MODEL 10
REMARK VINA RESULT:      -8.8      5.503      8.220
REMARK  5 active torsions:
REMARK  status: ('A' for Active; 'I' for Inactive)
REMARK    1  A    between atoms: C_7  and  C_8 
REMARK    2  A    between atoms: C_16  and  C_17 
REMARK    3  A    between atoms: C_19  and  O_20 
REMARK    4  A    between atoms: C_24  and  C_25 
REMARK       I    between atoms: C_25  and  N_26 
REMARK    5  A    between atoms: N_26  and  C_27 
ROOT
HETATM    1  C   UNL     1       4.567  32.582  50.824  1.00  0.00     0.070 C 
HETATM    2  C   UNL     1       4.746  31.097  50.602  1.00  0.00     0.037 A 
HETATM    3  N   UNL     1       5.080  30.368  51.740  1.00  0.00    -0.192 N 
HETATM    4  C   UNL     1       5.395  29.063  51.721  1.00  0.00     0.726 A 
HETATM    5  N   UNL     1       5.301  28.376  50.550  1.00  0.00    -0.083 N 
HETATM    6  N   UNL     1       5.786  27.125  50.670  1.00  0.00    -0.135 NA
HETATM    7  C   UNL     1       6.064  27.075  51.987  1.00  0.00     0.199 A 
HETATM    8  N   UNL     1       5.843  28.268  52.656  1.00  0.00    -0.041 NA
HETATM    9  C   UNL     1       4.869  28.970  49.280  1.00  0.00     0.202 A 
HETATM   10  C   UNL     1       4.636  30.477  49.394  1.00  0.00     0.062 A 
HETATM   11  H   UNL     1       5.191  30.882  52.611  1.00  0.00     0.184 HD
ENDROOT
BRANCH  10  12
HETATM   12  C   UNL     1       4.226  31.249  48.168  1.00  0.00     0.256 C 
HETATM   13  N   UNL     1       5.159  31.295  47.151  1.00  0.00    -0.323 N 
HETATM   14  H   UNL     1       5.989  30.728  47.215  1.00  0.00     0.169 HD
HETATM   15  O   UNL     1       3.105  31.745  48.112  1.00  0.00    -0.267 OA
BRANCH  13  16
HETATM   16  C   UNL     1       5.062  32.022  45.942  1.00  0.00     0.035 A 
HETATM   17  C   UNL     1       5.709  33.236  45.704  1.00  0.00     0.029 A 
HETATM   18  C   UNL     1       5.583  33.877  44.466  1.00  0.00     0.002 A 
HETATM   19  C   UNL     1       4.805  33.312  43.459  1.00  0.00     0.000 A 
HETATM   20  C   UNL     1       4.154  32.104  43.686  1.00  0.00     0.002 A 
HETATM   21  C   UNL     1       4.286  31.459  44.919  1.00  0.00     0.029 A 
ENDBRANCH  13  16
ENDBRANCH  10  12
BRANCH   9  22
HETATM   22  C   UNL     1       3.675  28.190  48.736  1.00  0.00    -0.025 A 
HETATM   23  C   UNL     1       3.815  27.242  47.705  1.00  0.00     0.046 A 
HETATM   24  C   UNL     1       2.694  26.566  47.228  1.00  0.00     0.066 A 
HETATM   25  C   UNL     1       1.430  26.823  47.742  1.00  0.00     0.036 A 
HETATM   26  C   UNL     1       1.275  27.772  48.749  1.00  0.00     0.003 A 
HETATM   27  C   UNL     1       2.388  28.453  49.242  1.00  0.00     0.010 A 
BRANCH  24  28
HETATM   28  O   UNL     1       2.797  25.635  46.238  1.00  0.00    -0.361 OA
HETATM   29  H   UNL     1       1.920  25.251  46.074  1.00  0.00     0.217 HD
ENDBRANCH  24  28
ENDBRANCH   9  22
BRANCH   7  30
HETATM   30  C   UNL     1       6.578  25.888  52.661  1.00  0.00     0.016 A 
HETATM   31  C   UNL     1       6.342  25.681  54.028  1.00  0.00     0.039 A 
HETATM   32  C   UNL     1       6.840  24.543  54.661  1.00  0.00     0.035 A 
HETATM   33 CL   UNL     1       6.544  24.300  56.339  1.00  0.00    -0.084 Cl
HETATM   34  C   UNL     1       7.579  23.599  53.948  1.00  0.00     0.024 A 
HETATM   35  C   UNL     1       7.819  23.795  52.589  1.00  0.00     0.003 A 
HETATM   36  C   UNL     1       7.322  24.934  51.950  1.00  0.00     0.015 A 
ENDBRANCH   7  30
TORSDOF 5
ENDMDL
