MODEL 1
REMARK VINA RESULT:     -10.2      0.000      0.000
REMARK  5 active torsions:
REMARK  status: ('A' for Active; 'I' for Inactive)
REMARK    1  A    between atoms: C_5  and  N_6 
REMARK    2  A    between atoms: C_7  and  N_8 
REMARK    3  A    between atoms: N_8  and  N_9 
REMARK    4  A    between atoms: N_13  and  C_14 
REMARK    5  A    between atoms: C_14  and  N_15 
ROOT
HETATM    1  N   UNL     1       6.935  29.495  57.145  1.00  0.00    -0.166 NA
HETATM    2  C   UNL     1       6.687  28.385  56.532  1.00  0.00     0.157 A 
HETATM    3  C   UNL     1       7.224  26.981  56.799  1.00  0.00     0.281 A 
HETATM    4  O   UNL     1       7.976  26.708  57.714  1.00  0.00    -0.265 OA
HETATM    5  N   UNL     1       6.659  26.178  55.825  1.00  0.00    -0.284 N 
HETATM    6  C   UNL     1       5.790  28.266  55.390  1.00  0.00     0.027 A 
HETATM    7  C   UNL     1       5.797  26.929  55.003  1.00  0.00     0.052 A 
HETATM    8  C   UNL     1       5.020  26.513  53.938  1.00  0.00     0.031 A 
HETATM    9  C   UNL     1       4.245  27.472  53.272  1.00  0.00     0.002 A 
HETATM   10  C   UNL     1       4.251  28.822  53.677  1.00  0.00     0.001 A 
HETATM   11  C   UNL     1       5.034  29.234  54.755  1.00  0.00     0.016 A 
ENDROOT
BRANCH   1  12
HETATM   12  N   UNL     1       7.795  29.478  58.207  1.00  0.00    -0.252 N 
HETATM   13  H   UNL     1       7.511  28.982  59.051  1.00  0.00     0.191 HD
BRANCH  12  14
HETATM   14  C   UNL     1       8.873  30.322  58.243  1.00  0.00     0.192 C 
HETATM   15  N   UNL     1       8.775  31.513  58.898  1.00  0.00    -0.332 N 
HETATM   16  H   UNL     1       9.584  32.086  58.693  1.00  0.00     0.168 HD
HETATM   17  S   UNL     1      10.351  30.029  57.487  1.00  0.00    -0.039 SA
BRANCH  15  18
HETATM   18  C   UNL     1       7.894  32.041  59.869  1.00  0.00     0.040 A 
HETATM   19  C   UNL     1       8.374  32.189  61.202  1.00  0.00    -0.029 A 
HETATM   20  C   UNL     1       7.491  32.622  62.222  1.00  0.00    -0.054 A 
HETATM   21  C   UNL     1       9.809  31.848  61.539  1.00  0.00     0.051 C 
HETATM   22  C   UNL     1       7.921  32.740  63.661  1.00  0.00     0.049 C 
HETATM   23  C   UNL     1       6.169  32.953  61.895  1.00  0.00     0.007 A 
HETATM   24  C   UNL     1       5.707  32.813  60.593  1.00  0.00     0.003 A 
HETATM   25  C   UNL     1       6.556  32.338  59.592  1.00  0.00     0.030 A 
ENDBRANCH  15  18
ENDBRANCH  12  14
ENDBRANCH   1  12
BRANCH   5  26
HETATM   26  C   UNL     1       6.847  24.752  55.744  1.00  0.00     0.405 C 
BRANCH  26  27
HETATM   27  N   UNL     1       8.124  24.446  55.096  1.00  0.00     0.106 N 
HETATM   28  C   UNL     1       8.710  23.172  55.541  1.00  0.00     0.274 C 
HETATM   29  C   UNL     1       8.008  21.929  54.985  1.00  0.00     0.030 C 
HETATM   30  C   UNL     1       7.893  21.986  53.466  1.00  0.00     0.003 C 
HETATM   31  C   UNL     1       7.279  23.307  53.018  1.00  0.00     0.030 C 
HETATM   32  C   UNL     1       8.025  24.493  53.631  1.00  0.00     0.274 C 
ENDBRANCH  26  27
ENDBRANCH   5  26
TORSDOF 5
ENDMDL
MODEL 2
REMARK VINA RESULT:     -10.2      1.531      3.468
REMARK  5 active torsions:
REMARK  status: ('A' for Active; 'I' for Inactive)
REMARK    1  A    between atoms: C_5  and  N_6 
REMARK    2  A    between atoms: C_7  and  N_8 
REMARK    3  A    between atoms: N_8  and  N_9 
REMARK    4  A    between atoms: N_13  and  C_14 
REMARK    5  A    between atoms: C_14  and  N_15 
ROOT
HETATM    1  N   UNL     1       8.025  28.048  58.128  1.00  0.00    -0.166 NA
HETATM    2  C   UNL     1       7.487  27.422  57.133  1.00  0.00     0.157 A 
HETATM    3  C   UNL     1       6.564  27.944  56.035  1.00  0.00     0.281 A 
HETATM    4  O   UNL     1       6.229  29.108  55.931  1.00  0.00    -0.265 OA
HETATM    5  N   UNL     1       6.259  26.844  55.255  1.00  0.00    -0.284 N 
HETATM    6  C   UNL     1       7.673  26.002  56.867  1.00  0.00     0.027 A 
HETATM    7  C   UNL     1       6.928  25.699  55.731  1.00  0.00     0.052 A 
HETATM    8  C   UNL     1       6.922  24.411  55.231  1.00  0.00     0.031 A 
HETATM    9  C   UNL     1       7.675  23.438  55.903  1.00  0.00     0.002 A 
HETATM   10  C   UNL     1       8.424  23.762  57.051  1.00  0.00     0.001 A 
HETATM   11  C   UNL     1       8.428  25.065  57.548  1.00  0.00     0.016 A 
ENDROOT
BRANCH   1  12
HETATM   12  N   UNL     1       7.776  29.385  58.271  1.00  0.00    -0.252 N 
HETATM   13  H   UNL     1       6.810  29.705  58.215  1.00  0.00     0.191 HD
BRANCH  12  14
HETATM   14  C   UNL     1       8.800  30.293  58.212  1.00  0.00     0.192 C 
HETATM   15  N   UNL     1       8.663  31.503  58.823  1.00  0.00    -0.332 N 
HETATM   16  H   UNL     1       9.423  32.114  58.550  1.00  0.00     0.168 HD
HETATM   17  S   UNL     1      10.251  30.056  57.388  1.00  0.00    -0.039 SA
BRANCH  15  18
HETATM   18  C   UNL     1       7.803  32.019  59.820  1.00  0.00     0.040 A 
HETATM   19  C   UNL     1       8.315  32.158  61.141  1.00  0.00    -0.029 A 
HETATM   20  C   UNL     1       7.455  32.579  62.186  1.00  0.00    -0.054 A 
HETATM   21  C   UNL     1       9.759  31.821  61.441  1.00  0.00     0.051 C 
HETATM   22  C   UNL     1       7.919  32.688  63.615  1.00  0.00     0.049 C 
HETATM   23  C   UNL     1       6.125  32.908  61.894  1.00  0.00     0.007 A 
HETATM   24  C   UNL     1       5.632  32.777  60.602  1.00  0.00     0.003 A 
HETATM   25  C   UNL     1       6.458  32.314  59.577  1.00  0.00     0.030 A 
ENDBRANCH  15  18
ENDBRANCH  12  14
ENDBRANCH   1  12
BRANCH   5  26
HETATM   26  C   UNL     1       5.460  26.898  54.058  1.00  0.00     0.405 C 
BRANCH  26  27
HETATM   27  N   UNL     1       6.296  27.239  52.906  1.00  0.00     0.106 N 
HETATM   28  C   UNL     1       6.496  26.113  51.980  1.00  0.00     0.274 C 
HETATM   29  C   UNL     1       5.270  25.776  51.125  1.00  0.00     0.030 C 
HETATM   30  C   UNL     1       4.744  27.007  50.396  1.00  0.00     0.003 C 
HETATM   31  C   UNL     1       4.535  28.164  51.367  1.00  0.00     0.030 C 
HETATM   32  C   UNL     1       5.797  28.421  52.192  1.00  0.00     0.274 C 
ENDBRANCH  26  27
ENDBRANCH   5  26
TORSDOF 5
ENDMDL
MODEL 3
REMARK VINA RESULT:      -9.4      2.141      9.054
REMARK  5 active torsions:
REMARK  status: ('A' for Active; 'I' for Inactive)
REMARK    1  A    between atoms: C_5  and  N_6 
REMARK    2  A    between atoms: C_7  and  N_8 
REMARK    3  A    between atoms: N_8  and  N_9 
REMARK    4  A    between atoms: N_13  and  C_14 
REMARK    5  A    between atoms: C_14  and  N_15 
ROOT
HETATM    1  N   UNL     1       7.106  28.393  56.267  1.00  0.00    -0.166 NA
HETATM    2  C   UNL     1       7.485  29.343  57.058  1.00  0.00     0.157 A 
HETATM    3  C   UNL     1       6.651  30.276  57.932  1.00  0.00     0.281 A 
HETATM    4  O   UNL     1       5.441  30.209  58.029  1.00  0.00    -0.265 OA
HETATM    5  N   UNL     1       7.559  31.122  58.541  1.00  0.00    -0.284 N 
HETATM    6  C   UNL     1       8.875  29.725  57.267  1.00  0.00     0.027 A 
HETATM    7  C   UNL     1       8.875  30.788  58.166  1.00  0.00     0.052 A 
HETATM    8  C   UNL     1      10.070  31.357  58.563  1.00  0.00     0.031 A 
HETATM    9  C   UNL     1      11.258  30.838  58.031  1.00  0.00     0.002 A 
HETATM   10  C   UNL     1      11.239  29.763  57.121  1.00  0.00     0.001 A 
HETATM   11  C   UNL     1      10.030  29.190  56.728  1.00  0.00     0.016 A 
ENDROOT
BRANCH   1  12
HETATM   12  N   UNL     1       5.770  28.128  56.157  1.00  0.00    -0.252 N 
HETATM   13  H   UNL     1       5.243  27.940  57.009  1.00  0.00     0.191 HD
BRANCH  12  14
HETATM   14  C   UNL     1       5.215  27.848  54.936  1.00  0.00     0.192 C 
HETATM   15  N   UNL     1       5.594  26.725  54.265  1.00  0.00    -0.332 N 
HETATM   16  H   UNL     1       5.227  26.749  53.321  1.00  0.00     0.168 HD
HETATM   17  S   UNL     1       4.094  28.825  54.143  1.00  0.00    -0.039 SA
BRANCH  15  18
HETATM   18  C   UNL     1       6.243  25.523  54.629  1.00  0.00     0.040 A 
HETATM   19  C   UNL     1       6.846  24.747  53.599  1.00  0.00    -0.029 A 
HETATM   20  C   UNL     1       7.420  23.489  53.912  1.00  0.00    -0.054 A 
HETATM   21  C   UNL     1       6.842  25.241  52.168  1.00  0.00     0.051 C 
HETATM   22  C   UNL     1       8.019  22.595  52.859  1.00  0.00     0.049 C 
HETATM   23  C   UNL     1       7.435  23.051  55.242  1.00  0.00     0.007 A 
HETATM   24  C   UNL     1       6.851  23.815  56.245  1.00  0.00     0.003 A 
HETATM   25  C   UNL     1       6.240  25.030  55.937  1.00  0.00     0.030 A 
ENDBRANCH  15  18
ENDBRANCH  12  14
ENDBRANCH   1  12
BRANCH   5  26
HETATM   26  C   UNL     1       7.205  32.128  59.509  1.00  0.00     0.405 C 
BRANCH  26  27
HETATM   27  N   UNL     1       6.772  31.497  60.757  1.00  0.00     0.106 N 
HETATM   28  C   UNL     1       7.887  30.971  61.560  1.00  0.00     0.274 C 
HETATM   29  C   UNL     1       8.715  32.048  62.268  1.00  0.00     0.030 C 
HETATM   30  C   UNL     1       7.832  32.981  63.089  1.00  0.00     0.003 C 
HETATM   31  C   UNL     1       6.685  33.524  62.245  1.00  0.00     0.030 C 
HETATM   32  C   UNL     1       5.924  32.387  61.560  1.00  0.00     0.274 C 
ENDBRANCH  26  27
ENDBRANCH   5  26
TORSDOF 5
ENDMDL
MODEL 4
REMARK VINA RESULT:      -9.4      2.543      4.645
REMARK  5 active torsions:
REMARK  status: ('A' for Active; 'I' for Inactive)
REMARK    1  A    between atoms: C_5  and  N_6 
REMARK    2  A    between atoms: C_7  and  N_8 
REMARK    3  A    between atoms: N_8  and  N_9 
REMARK    4  A    between atoms: N_13  and  C_14 
REMARK    5  A    between atoms: C_14  and  N_15 
ROOT
HETATM    1  N   UNL     1       6.956  31.708  59.347  1.00  0.00    -0.166 NA
HETATM    2  C   UNL     1       7.294  30.755  58.541  1.00  0.00     0.157 A 
HETATM    3  C   UNL     1       6.428  29.691  57.871  1.00  0.00     0.281 A 
HETATM    4  O   UNL     1       5.220  29.628  57.992  1.00  0.00    -0.265 OA
HETATM    5  N   UNL     1       7.305  28.906  57.144  1.00  0.00    -0.284 N 
HETATM    6  C   UNL     1       8.660  30.505  58.100  1.00  0.00     0.027 A 
HETATM    7  C   UNL     1       8.621  29.395  57.261  1.00  0.00     0.052 A 
HETATM    8  C   UNL     1       9.783  28.928  56.678  1.00  0.00     0.031 A 
HETATM    9  C   UNL     1      10.981  29.597  56.965  1.00  0.00     0.002 A 
HETATM   10  C   UNL     1      11.002  30.718  57.817  1.00  0.00     0.001 A 
HETATM   11  C   UNL     1       9.824  31.187  58.398  1.00  0.00     0.016 A 
ENDROOT
BRANCH   1  12
HETATM   12  N   UNL     1       5.639  31.842  59.685  1.00  0.00    -0.252 N 
HETATM   13  H   UNL     1       5.040  31.020  59.630  1.00  0.00     0.191 HD
BRANCH  12  14
HETATM   14  C   UNL     1       5.080  33.085  59.825  1.00  0.00     0.192 C 
HETATM   15  N   UNL     1       5.039  33.670  61.055  1.00  0.00    -0.332 N 
HETATM   16  H   UNL     1       4.454  34.497  61.023  1.00  0.00     0.168 HD
HETATM   17  S   UNL     1       4.377  33.971  58.576  1.00  0.00    -0.039 SA
BRANCH  15  18
HETATM   18  C   UNL     1       5.717  33.460  62.277  1.00  0.00     0.040 A 
HETATM   19  C   UNL     1       4.999  33.668  63.489  1.00  0.00    -0.029 A 
HETATM   20  C   UNL     1       5.673  33.562  64.732  1.00  0.00    -0.054 A 
HETATM   21  C   UNL     1       3.533  34.039  63.454  1.00  0.00     0.051 C 
HETATM   22  C   UNL     1       4.984  33.829  66.044  1.00  0.00     0.049 C 
HETATM   23  C   UNL     1       7.026  33.200  64.753  1.00  0.00     0.007 A 
HETATM   24  C   UNL     1       7.721  32.992  63.568  1.00  0.00     0.003 A 
HETATM   25  C   UNL     1       7.078  33.143  62.340  1.00  0.00     0.030 A 
ENDBRANCH  15  18
ENDBRANCH  12  14
ENDBRANCH   1  12
BRANCH   5  26
HETATM   26  C   UNL     1       6.900  27.813  56.299  1.00  0.00     0.405 C 
BRANCH  26  27
HETATM   27  N   UNL     1       6.422  26.694  57.113  1.00  0.00     0.106 N 
HETATM   28  C   UNL     1       5.364  25.909  56.457  1.00  0.00     0.274 C 
HETATM   29  C   UNL     1       5.862  25.008  55.321  1.00  0.00     0.030 C 
HETATM   30  C   UNL     1       7.011  24.117  55.780  1.00  0.00     0.003 C 
HETATM   31  C   UNL     1       8.102  24.943  56.452  1.00  0.00     0.030 C 
HETATM   32  C   UNL     1       7.519  25.825  57.557  1.00  0.00     0.274 C 
ENDBRANCH  26  27
ENDBRANCH   5  26
TORSDOF 5
ENDMDL
MODEL 5
REMARK VINA RESULT:      -9.2      4.562      9.267
REMARK  5 active torsions:
REMARK  status: ('A' for Active; 'I' for Inactive)
REMARK    1  A    between atoms: C_5  and  N_6 
REMARK    2  A    between atoms: C_7  and  N_8 
REMARK    3  A    between atoms: N_8  and  N_9 
REMARK    4  A    between atoms: N_13  and  C_14 
REMARK    5  A    between atoms: C_14  and  N_15 
ROOT
HETATM    1  N   UNL     1       4.050  28.607  52.482  1.00  0.00    -0.166 NA
HETATM    2  C   UNL     1       4.585  27.712  53.247  1.00  0.00     0.157 A 
HETATM    3  C   UNL     1       5.043  26.294  52.918  1.00  0.00     0.281 A 
HETATM    4  O   UNL     1       4.995  25.810  51.804  1.00  0.00    -0.265 OA
HETATM    5  N   UNL     1       5.503  25.768  54.111  1.00  0.00    -0.284 N 
HETATM    6  C   UNL     1       4.859  27.909  54.665  1.00  0.00     0.027 A 
HETATM    7  C   UNL     1       5.415  26.725  55.141  1.00  0.00     0.052 A 
HETATM    8  C   UNL     1       5.789  26.621  56.467  1.00  0.00     0.031 A 
HETATM    9  C   UNL     1       5.586  27.731  57.299  1.00  0.00     0.002 A 
HETATM   10  C   UNL     1       5.021  28.921  56.800  1.00  0.00     0.001 A 
HETATM   11  C   UNL     1       4.650  29.020  55.460  1.00  0.00     0.016 A 
ENDROOT
BRANCH   1  12
HETATM   12  N   UNL     1       3.845  28.303  51.166  1.00  0.00    -0.252 N 
HETATM   13  H   UNL     1       3.381  27.424  50.939  1.00  0.00     0.191 HD
BRANCH  12  14
HETATM   14  C   UNL     1       4.480  29.012  50.181  1.00  0.00     0.192 C 
HETATM   15  N   UNL     1       4.493  28.531  48.906  1.00  0.00    -0.332 N 
HETATM   16  H   UNL     1       5.135  29.073  48.340  1.00  0.00     0.168 HD
HETATM   17  S   UNL     1       5.312  30.458  50.420  1.00  0.00    -0.039 SA
BRANCH  15  18
HETATM   18  C   UNL     1       3.734  27.569  48.201  1.00  0.00     0.040 A 
HETATM   19  C   UNL     1       2.537  27.997  47.560  1.00  0.00    -0.029 A 
HETATM   20  C   UNL     1       1.700  27.044  46.928  1.00  0.00    -0.054 A 
HETATM   21  C   UNL     1       2.135  29.456  47.588  1.00  0.00     0.051 C 
HETATM   22  C   UNL     1       0.391  27.424  46.286  1.00  0.00     0.049 C 
HETATM   23  C   UNL     1       2.091  25.699  46.892  1.00  0.00     0.007 A 
HETATM   24  C   UNL     1       3.264  25.288  47.513  1.00  0.00     0.003 A 
HETATM   25  C   UNL     1       4.067  26.211  48.181  1.00  0.00     0.030 A 
ENDBRANCH  15  18
ENDBRANCH  12  14
ENDBRANCH   1  12
BRANCH   5  26
HETATM   26  C   UNL     1       6.094  24.462  54.244  1.00  0.00     0.405 C 
BRANCH  26  27
HETATM   27  N   UNL     1       7.544  24.541  54.059  1.00  0.00     0.106 N 
HETATM   28  C   UNL     1       8.306  24.050  55.218  1.00  0.00     0.274 C 
HETATM   29  C   UNL     1       8.302  22.526  55.374  1.00  0.00     0.030 C 
HETATM   30  C   UNL     1       8.741  21.833  54.089  1.00  0.00     0.003 C 
HETATM   31  C   UNL     1       7.941  22.345  52.896  1.00  0.00     0.030 C 
HETATM   32  C   UNL     1       7.981  23.873  52.826  1.00  0.00     0.274 C 
ENDBRANCH  26  27
ENDBRANCH   5  26
TORSDOF 5
ENDMDL
MODEL 6
REMARK VINA RESULT:      -9.2      4.251      9.840
REMARK  5 active torsions:
REMARK  status: ('A' for Active; 'I' for Inactive)
REMARK    1  A    between atoms: C_5  and  N_6 
REMARK    2  A    between atoms: C_7  and  N_8 
REMARK    3  A    between atoms: N_8  and  N_9 
REMARK    4  A    between atoms: N_13  and  C_14 
REMARK    5  A    between atoms: C_14  and  N_15 
ROOT
HETATM    1  N   UNL     1       4.985  26.463  51.807  1.00  0.00    -0.166 NA
HETATM    2  C   UNL     1       5.572  26.484  52.959  1.00  0.00     0.157 A 
HETATM    3  C   UNL     1       5.518  27.539  54.062  1.00  0.00     0.281 A 
HETATM    4  O   UNL     1       4.835  28.543  54.004  1.00  0.00    -0.265 OA
HETATM    5  N   UNL     1       6.359  27.075  55.057  1.00  0.00    -0.284 N 
HETATM    6  C   UNL     1       6.457  25.434  53.443  1.00  0.00     0.027 A 
HETATM    7  C   UNL     1       6.900  25.823  54.704  1.00  0.00     0.052 A 
HETATM    8  C   UNL     1       7.756  25.007  55.419  1.00  0.00     0.031 A 
HETATM    9  C   UNL     1       8.158  23.798  54.833  1.00  0.00     0.002 A 
HETATM   10  C   UNL     1       7.701  23.421  53.556  1.00  0.00     0.001 A 
HETATM   11  C   UNL     1       6.834  24.247  52.842  1.00  0.00     0.016 A 
ENDROOT
BRANCH   1  12
HETATM   12  N   UNL     1       4.174  27.509  51.466  1.00  0.00    -0.252 N 
HETATM   13  H   UNL     1       3.186  27.452  51.707  1.00  0.00     0.191 HD
BRANCH  12  14
HETATM   14  C   UNL     1       4.609  28.470  50.592  1.00  0.00     0.192 C 
HETATM   15  N   UNL     1       4.492  28.263  49.251  1.00  0.00    -0.332 N 
HETATM   16  H   UNL     1       5.003  28.977  48.746  1.00  0.00     0.168 HD
HETATM   17  S   UNL     1       5.340  29.920  51.042  1.00  0.00    -0.039 SA
BRANCH  15  18
HETATM   18  C   UNL     1       3.729  27.387  48.445  1.00  0.00     0.040 A 
HETATM   19  C   UNL     1       2.569  27.905  47.802  1.00  0.00    -0.029 A 
HETATM   20  C   UNL     1       1.726  27.035  47.066  1.00  0.00    -0.054 A 
HETATM   21  C   UNL     1       2.213  29.370  47.932  1.00  0.00     0.051 C 
HETATM   22  C   UNL     1       0.454  27.510  46.414  1.00  0.00     0.049 C 
HETATM   23  C   UNL     1       2.075  25.685  46.936  1.00  0.00     0.007 A 
HETATM   24  C   UNL     1       3.211  25.185  47.560  1.00  0.00     0.003 A 
HETATM   25  C   UNL     1       4.019  26.024  48.328  1.00  0.00     0.030 A 
ENDBRANCH  15  18
ENDBRANCH  12  14
ENDBRANCH   1  12
BRANCH   5  26
HETATM   26  C   UNL     1       6.556  27.735  56.322  1.00  0.00     0.405 C 
BRANCH  26  27
HETATM   27  N   UNL     1       7.053  29.095  56.110  1.00  0.00     0.106 N 
HETATM   28  C   UNL     1       6.785  29.994  57.243  1.00  0.00     0.274 C 
HETATM   29  C   UNL     1       7.672  29.746  58.467  1.00  0.00     0.030 C 
HETATM   30  C   UNL     1       9.150  29.751  58.094  1.00  0.00     0.003 C 
HETATM   31  C   UNL     1       9.417  28.811  56.923  1.00  0.00     0.030 C 
HETATM   32  C   UNL     1       8.477  29.113  55.754  1.00  0.00     0.274 C 
ENDBRANCH  26  27
ENDBRANCH   5  26
TORSDOF 5
ENDMDL
MODEL 7
REMARK VINA RESULT:      -9.0      4.518      8.138
REMARK  5 active torsions:
REMARK  status: ('A' for Active; 'I' for Inactive)
REMARK    1  A    between atoms: C_5  and  N_6 
REMARK    2  A    between atoms: C_7  and  N_8 
REMARK    3  A    between atoms: N_8  and  N_9 
REMARK    4  A    between atoms: N_13  and  C_14 
REMARK    5  A    between atoms: C_14  and  N_15 
ROOT
HETATM    1  N   UNL     1       5.406  27.274  55.569  1.00  0.00    -0.166 NA
HETATM    2  C   UNL     1       5.158  27.920  54.477  1.00  0.00     0.157 A 
HETATM    3  C   UNL     1       5.545  27.589  53.038  1.00  0.00     0.281 A 
HETATM    4  O   UNL     1       6.145  26.583  52.713  1.00  0.00    -0.265 OA
HETATM    5  N   UNL     1       5.057  28.634  52.275  1.00  0.00    -0.284 N 
HETATM    6  C   UNL     1       4.415  29.172  54.421  1.00  0.00     0.027 A 
HETATM    7  C   UNL     1       4.372  29.561  53.085  1.00  0.00     0.052 A 
HETATM    8  C   UNL     1       3.715  30.722  52.724  1.00  0.00     0.031 A 
HETATM    9  C   UNL     1       3.112  31.482  53.736  1.00  0.00     0.002 A 
HETATM   10  C   UNL     1       3.167  31.073  55.083  1.00  0.00     0.001 A 
HETATM   11  C   UNL     1       3.827  29.898  55.440  1.00  0.00     0.016 A 
ENDROOT
BRANCH   1  12
HETATM   12  N   UNL     1       6.112  26.106  55.491  1.00  0.00    -0.252 N 
HETATM   13  H   UNL     1       5.638  25.278  55.134  1.00  0.00     0.191 HD
BRANCH  12  14
HETATM   14  C   UNL     1       7.320  25.980  56.126  1.00  0.00     0.192 C 
HETATM   15  N   UNL     1       8.043  24.835  55.977  1.00  0.00    -0.332 N 
HETATM   16  H   UNL     1       8.816  24.829  56.632  1.00  0.00     0.168 HD
HETATM   17  S   UNL     1       7.996  27.139  57.145  1.00  0.00    -0.039 SA
BRANCH  15  18
HETATM   18  C   UNL     1       8.030  23.767  55.051  1.00  0.00     0.040 A 
HETATM   19  C   UNL     1       8.217  22.446  55.546  1.00  0.00    -0.029 A 
HETATM   20  C   UNL     1       8.308  21.361  54.639  1.00  0.00    -0.054 A 
HETATM   21  C   UNL     1       8.360  22.201  57.033  1.00  0.00     0.051 C 
HETATM   22  C   UNL     1       8.566  19.950  55.096  1.00  0.00     0.049 C 
HETATM   23  C   UNL     1       8.156  21.597  53.266  1.00  0.00     0.007 A 
HETATM   24  C   UNL     1       7.966  22.887  52.788  1.00  0.00     0.003 A 
HETATM   25  C   UNL     1       7.927  23.966  53.670  1.00  0.00     0.030 A 
ENDBRANCH  15  18
ENDBRANCH  12  14
ENDBRANCH   1  12
BRANCH   5  26
HETATM   26  C   UNL     1       5.144  28.697  50.839  1.00  0.00     0.405 C 
BRANCH  26  27
HETATM   27  N   UNL     1       3.950  28.104  50.233  1.00  0.00     0.106 N 
HETATM   28  C   UNL     1       3.210  29.040  49.372  1.00  0.00     0.274 C 
HETATM   29  C   UNL     1       3.883  29.321  48.025  1.00  0.00     0.030 C 
HETATM   30  C   UNL     1       4.213  28.029  47.285  1.00  0.00     0.003 C 
HETATM   31  C   UNL     1       4.985  27.071  48.186  1.00  0.00     0.030 C 
HETATM   32  C   UNL     1       4.255  26.861  49.514  1.00  0.00     0.274 C 
ENDBRANCH  26  27
ENDBRANCH   5  26
TORSDOF 5
ENDMDL
MODEL 8
REMARK VINA RESULT:      -8.7      4.165      8.705
REMARK  5 active torsions:
REMARK  status: ('A' for Active; 'I' for Inactive)
REMARK    1  A    between atoms: C_5  and  N_6 
REMARK    2  A    between atoms: C_7  and  N_8 
REMARK    3  A    between atoms: N_8  and  N_9 
REMARK    4  A    between atoms: N_13  and  C_14 
REMARK    5  A    between atoms: C_14  and  N_15 
ROOT
HETATM    1  N   UNL     1       5.223  28.674  53.432  1.00  0.00    -0.166 NA
HETATM    2  C   UNL     1       6.001  27.750  53.895  1.00  0.00     0.157 A 
HETATM    3  C   UNL     1       6.558  26.508  53.204  1.00  0.00     0.281 A 
HETATM    4  O   UNL     1       6.356  26.236  52.037  1.00  0.00    -0.265 OA
HETATM    5  N   UNL     1       7.301  25.852  54.169  1.00  0.00    -0.284 N 
HETATM    6  C   UNL     1       6.516  27.725  55.257  1.00  0.00     0.027 A 
HETATM    7  C   UNL     1       7.295  26.578  55.377  1.00  0.00     0.052 A 
HETATM    8  C   UNL     1       7.928  26.293  56.572  1.00  0.00     0.031 A 
HETATM    9  C   UNL     1       7.754  27.184  57.640  1.00  0.00     0.002 A 
HETATM   10  C   UNL     1       6.962  28.341  57.501  1.00  0.00     0.001 A 
HETATM   11  C   UNL     1       6.329  28.624  56.290  1.00  0.00     0.016 A 
ENDROOT
BRANCH   1  12
HETATM   12  N   UNL     1       4.806  28.588  52.133  1.00  0.00    -0.252 N 
HETATM   13  H   UNL     1       5.078  27.769  51.592  1.00  0.00     0.191 HD
BRANCH  12  14
HETATM   14  C   UNL     1       4.282  29.682  51.497  1.00  0.00     0.192 C 
HETATM   15  N   UNL     1       4.024  29.625  50.161  1.00  0.00    -0.332 N 
HETATM   16  H   UNL     1       3.802  30.550  49.813  1.00  0.00     0.168 HD
HETATM   17  S   UNL     1       3.954  31.160  52.238  1.00  0.00    -0.039 SA
BRANCH  15  18
HETATM   18  C   UNL     1       3.868  28.577  49.224  1.00  0.00     0.040 A 
HETATM   19  C   UNL     1       2.595  28.410  48.609  1.00  0.00    -0.029 A 
HETATM   20  C   UNL     1       2.374  27.312  47.740  1.00  0.00    -0.054 A 
HETATM   21  C   UNL     1       1.469  29.375  48.910  1.00  0.00     0.051 C 
HETATM   22  C   UNL     1       1.034  27.046  47.107  1.00  0.00     0.049 C 
HETATM   23  C   UNL     1       3.429  26.436  47.454  1.00  0.00     0.007 A 
HETATM   24  C   UNL     1       4.672  26.608  48.052  1.00  0.00     0.003 A 
HETATM   25  C   UNL     1       4.883  27.656  48.948  1.00  0.00     0.030 A 
ENDBRANCH  15  18
ENDBRANCH  12  14
ENDBRANCH   1  12
BRANCH   5  26
HETATM   26  C   UNL     1       8.063  24.654  53.927  1.00  0.00     0.405 C 
BRANCH  26  27
HETATM   27  N   UNL     1       7.205  23.475  54.053  1.00  0.00     0.106 N 
HETATM   28  C   UNL     1       7.577  22.385  53.138  1.00  0.00     0.274 C 
HETATM   29  C   UNL     1       8.850  21.633  53.540  1.00  0.00     0.030 C 
HETATM   30  C   UNL     1       8.777  21.145  54.982  1.00  0.00     0.003 C 
HETATM   31  C   UNL     1       8.397  22.284  55.921  1.00  0.00     0.030 C 
HETATM   32  C   UNL     1       7.130  22.992  55.438  1.00  0.00     0.274 C 
ENDBRANCH  26  27
ENDBRANCH   5  26
TORSDOF 5
ENDMDL
MODEL 9
REMARK VINA RESULT:      -8.6      3.845      8.315
REMARK  5 active torsions:
REMARK  status: ('A' for Active; 'I' for Inactive)
REMARK    1  A    between atoms: C_5  and  N_6 
REMARK    2  A    between atoms: C_7  and  N_8 
REMARK    3  A    between atoms: N_8  and  N_9 
REMARK    4  A    between atoms: N_13  and  C_14 
REMARK    5  A    between atoms: C_14  and  N_15 
ROOT
HETATM    1  N   UNL     1       4.370  29.634  53.760  1.00  0.00    -0.166 NA
HETATM    2  C   UNL     1       4.983  28.647  54.327  1.00  0.00     0.157 A 
HETATM    3  C   UNL     1       5.055  27.178  53.917  1.00  0.00     0.281 A 
HETATM    4  O   UNL     1       4.541  26.732  52.910  1.00  0.00    -0.265 OA
HETATM    5  N   UNL     1       5.810  26.558  54.896  1.00  0.00    -0.284 N 
HETATM    6  C   UNL     1       5.764  28.767  55.551  1.00  0.00     0.027 A 
HETATM    7  C   UNL     1       6.247  27.496  55.852  1.00  0.00     0.052 A 
HETATM    8  C   UNL     1       7.040  27.304  56.967  1.00  0.00     0.031 A 
HETATM    9  C   UNL     1       7.327  28.415  57.772  1.00  0.00     0.002 A 
HETATM   10  C   UNL     1       6.830  29.694  57.453  1.00  0.00     0.001 A 
HETATM   11  C   UNL     1       6.034  29.881  56.323  1.00  0.00     0.016 A 
ENDROOT
BRANCH   1  12
HETATM   12  N   UNL     1       3.669  29.396  52.611  1.00  0.00    -0.252 N 
HETATM   13  H   UNL     1       3.608  28.436  52.273  1.00  0.00     0.191 HD
BRANCH  12  14
HETATM   14  C   UNL     1       3.299  30.432  51.795  1.00  0.00     0.192 C 
HETATM   15  N   UNL     1       3.094  30.203  50.467  1.00  0.00    -0.332 N 
HETATM   16  H   UNL     1       2.994  31.084  49.978  1.00  0.00     0.168 HD
HETATM   17  S   UNL     1       3.108  32.030  52.294  1.00  0.00    -0.039 SA
BRANCH  15  18
HETATM   18  C   UNL     1       2.862  29.049  49.684  1.00  0.00     0.040 A 
HETATM   19  C   UNL     1       3.988  28.365  49.146  1.00  0.00    -0.029 A 
HETATM   20  C   UNL     1       3.792  27.263  48.276  1.00  0.00    -0.054 A 
HETATM   21  C   UNL     1       5.391  28.833  49.467  1.00  0.00     0.051 C 
HETATM   22  C   UNL     1       4.940  26.536  47.627  1.00  0.00     0.049 C 
HETATM   23  C   UNL     1       2.489  26.827  48.001  1.00  0.00     0.007 A 
HETATM   24  C   UNL     1       1.393  27.494  48.534  1.00  0.00     0.003 A 
HETATM   25  C   UNL     1       1.577  28.610  49.350  1.00  0.00     0.030 A 
ENDBRANCH  15  18
ENDBRANCH  12  14
ENDBRANCH   1  12
BRANCH   5  26
HETATM   26  C   UNL     1       6.185  25.169  54.869  1.00  0.00     0.405 C 
BRANCH  26  27
HETATM   27  N   UNL     1       7.622  25.037  54.620  1.00  0.00     0.106 N 
HETATM   28  C   UNL     1       8.241  23.930  55.365  1.00  0.00     0.274 C 
HETATM   29  C   UNL     1       7.911  22.539  54.815  1.00  0.00     0.030 C 
HETATM   30  C   UNL     1       8.215  22.442  53.324  1.00  0.00     0.003 C 
HETATM   31  C   UNL     1       7.563  23.591  52.563  1.00  0.00     0.030 C 
HETATM   32  C   UNL     1       7.928  24.938  53.187  1.00  0.00     0.274 C 
ENDBRANCH  26  27
ENDBRANCH   5  26
TORSDOF 5
ENDMDL
MODEL 10
REMARK VINA RESULT:      -8.5      2.322      4.078
REMARK  5 active torsions:
REMARK  status: ('A' for Active; 'I' for Inactive)
REMARK    1  A    between atoms: C_5  and  N_6 
REMARK    2  A    between atoms: C_7  and  N_8 
REMARK    3  A    between atoms: N_8  and  N_9 
REMARK    4  A    between atoms: N_13  and  C_14 
REMARK    5  A    between atoms: C_14  and  N_15 
ROOT
HETATM    1  N   UNL     1       5.748  29.164  57.824  1.00  0.00    -0.166 NA
HETATM    2  C   UNL     1       5.768  28.333  56.834  1.00  0.00     0.157 A 
HETATM    3  C   UNL     1       4.936  28.319  55.555  1.00  0.00     0.281 A 
HETATM    4  O   UNL     1       4.119  29.173  55.270  1.00  0.00    -0.265 OA
HETATM    5  N   UNL     1       5.339  27.191  54.864  1.00  0.00    -0.284 N 
HETATM    6  C   UNL     1       6.648  27.174  56.760  1.00  0.00     0.027 A 
HETATM    7  C   UNL     1       6.364  26.523  55.563  1.00  0.00     0.052 A 
HETATM    8  C   UNL     1       7.060  25.381  55.215  1.00  0.00     0.031 A 
HETATM    9  C   UNL     1       8.040  24.909  56.100  1.00  0.00     0.002 A 
HETATM   10  C   UNL     1       8.313  25.581  57.308  1.00  0.00     0.001 A 
HETATM   11  C   UNL     1       7.610  26.735  57.651  1.00  0.00     0.016 A 
ENDROOT
BRANCH   1  12
HETATM   12  N   UNL     1       4.877  30.217  57.777  1.00  0.00    -0.252 N 
HETATM   13  H   UNL     1       3.878  30.018  57.782  1.00  0.00     0.191 HD
BRANCH  12  14
HETATM   14  C   UNL     1       5.321  31.472  57.453  1.00  0.00     0.192 C 
HETATM   15  N   UNL     1       6.235  32.090  58.252  1.00  0.00    -0.332 N 
HETATM   16  H   UNL     1       6.332  33.060  57.978  1.00  0.00     0.168 HD
HETATM   17  S   UNL     1       4.787  32.371  56.132  1.00  0.00    -0.039 SA
BRANCH  15  18
HETATM   18  C   UNL     1       7.140  31.652  59.246  1.00  0.00     0.040 A 
HETATM   19  C   UNL     1       6.924  32.080  60.587  1.00  0.00    -0.029 A 
HETATM   20  C   UNL     1       7.864  31.743  61.593  1.00  0.00    -0.054 A 
HETATM   21  C   UNL     1       5.717  32.926  60.933  1.00  0.00     0.051 C 
HETATM   22  C   UNL     1       7.724  32.216  63.015  1.00  0.00     0.049 C 
HETATM   23  C   UNL     1       8.967  30.944  61.264  1.00  0.00     0.007 A 
HETATM   24  C   UNL     1       9.170  30.523  59.956  1.00  0.00     0.003 A 
HETATM   25  C   UNL     1       8.277  30.893  58.951  1.00  0.00     0.030 A 
ENDBRANCH  15  18
ENDBRANCH  12  14
ENDBRANCH   1  12
BRANCH   5  26
HETATM   26  C   UNL     1       4.853  26.824  53.559  1.00  0.00     0.405 C 
BRANCH  26  27
HETATM   27  N   UNL     1       5.820  27.211  52.531  1.00  0.00     0.106 N 
HETATM   28  C   UNL     1       6.070  26.153  51.540  1.00  0.00     0.274 C 
HETATM   29  C   UNL     1       4.928  25.947  50.539  1.00  0.00     0.030 C 
HETATM   30  C   UNL     1       4.535  27.256  49.865  1.00  0.00     0.003 C 
HETATM   31  C   UNL     1       4.273  28.343  50.901  1.00  0.00     0.030 C 
HETATM   32  C   UNL     1       5.450  28.469  51.870  1.00  0.00     0.274 C 
ENDBRANCH  26  27
ENDBRANCH   5  26
TORSDOF 5
ENDMDL
