MODEL 1
REMARK VINA RESULT:      -9.2      0.000      0.000
REMARK  3 active torsions:
REMARK  status: ('A' for Active; 'I' for Inactive)
REMARK    1  A    between atoms: C_4  and  N_5 
REMARK       I    between atoms: N_5  and  C_6 
REMARK    2  A    between atoms: C_6  and  C_7 
REMARK    3  A    between atoms: C_7  and  C_8 
ROOT
HETATM    1  C   UNL     1       7.579  25.506  55.639  1.00  0.00     0.286 C 
HETATM    2  N   UNL     1       7.759  24.399  54.591  1.00  0.00    -0.056 N 
HETATM    3  H   UNL     1       7.045  24.525  53.849  1.00  0.00     0.278 HD
HETATM    4  H   UNL     1       8.674  24.514  54.137  1.00  0.00     0.278 HD
HETATM    5  C   UNL     1       7.614  22.995  55.118  1.00  0.00     0.209 C 
HETATM    6  C   UNL     1       8.494  22.825  56.370  1.00  0.00     0.115 C 
HETATM    7  N   UNL     1       8.154  23.810  57.383  1.00  0.00    -0.353 N 
HETATM    8  C   UNL     1       7.923  25.128  57.091  1.00  0.00     0.249 C 
HETATM    9  O   UNL     1       7.975  25.972  57.979  1.00  0.00    -0.271 OA
HETATM   10  C   UNL     1       7.997  22.000  54.026  1.00  0.00     0.035 C 
HETATM   11  C   UNL     1       7.896  20.569  54.552  1.00  0.00     0.002 C 
HETATM   12  C   UNL     1       8.708  20.368  55.832  1.00  0.00     0.002 C 
HETATM   13  C   UNL     1       8.364  21.399  56.908  1.00  0.00     0.027 C 
HETATM   14  H   UNL     1       8.450  23.656  58.345  1.00  0.00     0.163 HD
ENDROOT
BRANCH   1  15
HETATM   15  C   UNL     1       6.216  26.194  55.537  1.00  0.00     0.146 C 
BRANCH  15  16
HETATM   16  C   UNL     1       6.288  27.428  54.691  1.00  0.00     0.224 C 
HETATM   17  N   UNL     1       6.921  28.578  55.006  1.00  0.00    -0.327 N 
HETATM   18  H   UNL     1       6.789  29.259  54.260  1.00  0.00     0.169 HD
HETATM   19  O   UNL     1       5.588  27.423  53.664  1.00  0.00    -0.273 OA
BRANCH  17  20
HETATM   20  C   UNL     1       7.699  29.061  56.076  1.00  0.00     0.035 A 
HETATM   21  C   UNL     1       9.083  29.219  56.096  1.00  0.00     0.036 A 
HETATM   22  C   UNL     1       9.747  29.690  57.245  1.00  0.00    -0.060 A 
HETATM   23  C   UNL     1      11.237  29.884  57.242  1.00  0.00     0.048 C 
HETATM   24  C   UNL     1       9.008  30.031  58.380  1.00  0.00     0.007 A 
HETATM   25  C   UNL     1       7.625  29.892  58.373  1.00  0.00     0.003 A 
HETATM   26  C   UNL     1       6.980  29.412  57.232  1.00  0.00     0.029 A 
ENDBRANCH  17  20
ENDBRANCH  15  16
ENDBRANCH   1  15
TORSDOF 3
ENDMDL
MODEL 2
REMARK VINA RESULT:      -9.1      1.575      7.044
REMARK  3 active torsions:
REMARK  status: ('A' for Active; 'I' for Inactive)
REMARK    1  A    between atoms: C_4  and  N_5 
REMARK       I    between atoms: N_5  and  C_6 
REMARK    2  A    between atoms: C_6  and  C_7 
REMARK    3  A    between atoms: C_7  and  C_8 
ROOT
HETATM    1  C   UNL     1       7.041  27.545  55.527  1.00  0.00     0.286 C 
HETATM    2  N   UNL     1       8.320  28.360  55.291  1.00  0.00    -0.056 N 
HETATM    3  H   UNL     1       8.997  27.771  54.771  1.00  0.00     0.278 HD
HETATM    4  H   UNL     1       8.100  29.158  54.683  1.00  0.00     0.278 HD
HETATM    5  C   UNL     1       9.011  28.836  56.543  1.00  0.00     0.209 C 
HETATM    6  C   UNL     1       7.985  29.526  57.462  1.00  0.00     0.115 C 
HETATM    7  N   UNL     1       6.880  28.634  57.771  1.00  0.00    -0.353 N 
HETATM    8  C   UNL     1       6.278  27.842  56.831  1.00  0.00     0.249 C 
HETATM    9  O   UNL     1       5.164  27.374  57.045  1.00  0.00    -0.271 OA
HETATM   10  C   UNL     1      10.149  29.781  56.168  1.00  0.00     0.035 C 
HETATM   11  C   UNL     1      10.837  30.308  57.425  1.00  0.00     0.002 C 
HETATM   12  C   UNL     1       9.848  30.951  58.398  1.00  0.00     0.002 C 
HETATM   13  C   UNL     1       8.677  30.025  58.732  1.00  0.00     0.027 C 
HETATM   14  H   UNL     1       6.280  28.844  58.566  1.00  0.00     0.163 HD
ENDROOT
BRANCH   1  15
HETATM   15  C   UNL     1       7.257  26.043  55.324  1.00  0.00     0.146 C 
BRANCH  15  16
HETATM   16  C   UNL     1       7.509  25.718  53.883  1.00  0.00     0.224 C 
HETATM   17  N   UNL     1       7.775  24.498  53.372  1.00  0.00    -0.327 N 
HETATM   18  H   UNL     1       7.928  24.571  52.368  1.00  0.00     0.169 HD
HETATM   19  O   UNL     1       7.607  26.693  53.117  1.00  0.00    -0.273 OA
BRANCH  17  20
HETATM   20  C   UNL     1       7.891  23.183  53.864  1.00  0.00     0.035 A 
HETATM   21  C   UNL     1       8.069  22.803  55.191  1.00  0.00     0.036 A 
HETATM   22  C   UNL     1       8.197  21.447  55.551  1.00  0.00    -0.060 A 
HETATM   23  C   UNL     1       8.357  21.049  56.991  1.00  0.00     0.048 C 
HETATM   24  C   UNL     1       8.121  20.460  54.566  1.00  0.00     0.007 A 
HETATM   25  C   UNL     1       7.932  20.821  53.237  1.00  0.00     0.003 A 
HETATM   26  C   UNL     1       7.818  22.170  52.893  1.00  0.00     0.029 A 
ENDBRANCH  17  20
ENDBRANCH  15  16
ENDBRANCH   1  15
TORSDOF 3
ENDMDL
MODEL 3
REMARK VINA RESULT:      -8.9      2.639      6.323
REMARK  3 active torsions:
REMARK  status: ('A' for Active; 'I' for Inactive)
REMARK    1  A    between atoms: C_4  and  N_5 
REMARK       I    between atoms: N_5  and  C_6 
REMARK    2  A    between atoms: C_6  and  C_7 
REMARK    3  A    between atoms: C_7  and  C_8 
ROOT
HETATM    1  C   UNL     1       5.360  25.889  56.507  1.00  0.00     0.286 C 
HETATM    2  N   UNL     1       5.223  25.092  55.202  1.00  0.00    -0.056 N 
HETATM    3  H   UNL     1       5.712  24.184  55.315  1.00  0.00     0.278 HD
HETATM    4  H   UNL     1       4.232  24.872  55.046  1.00  0.00     0.278 HD
HETATM    5  C   UNL     1       5.804  25.763  53.983  1.00  0.00     0.209 C 
HETATM    6  C   UNL     1       5.279  27.208  53.897  1.00  0.00     0.115 C 
HETATM    7  N   UNL     1       5.588  27.948  55.108  1.00  0.00    -0.353 N 
HETATM    8  C   UNL     1       5.435  27.419  56.362  1.00  0.00     0.249 C 
HETATM    9  O   UNL     1       5.379  28.160  57.338  1.00  0.00    -0.271 OA
HETATM   10  C   UNL     1       5.439  24.960  52.739  1.00  0.00     0.035 C 
HETATM   11  C   UNL     1       5.983  25.644  51.486  1.00  0.00     0.002 C 
HETATM   12  C   UNL     1       5.536  27.103  51.387  1.00  0.00     0.002 C 
HETATM   13  C   UNL     1       5.853  27.896  52.656  1.00  0.00     0.027 C 
HETATM   14  H   UNL     1       5.550  28.965  55.092  1.00  0.00     0.163 HD
ENDROOT
BRANCH   1  15
HETATM   15  C   UNL     1       6.469  25.346  57.411  1.00  0.00     0.146 C 
BRANCH  15  16
HETATM   16  C   UNL     1       7.818  25.517  56.782  1.00  0.00     0.224 C 
HETATM   17  N   UNL     1       8.535  24.562  56.153  1.00  0.00    -0.327 N 
HETATM   18  H   UNL     1       9.425  24.947  55.843  1.00  0.00     0.169 HD
HETATM   19  O   UNL     1       8.373  26.612  56.979  1.00  0.00    -0.273 OA
BRANCH  17  20
HETATM   20  C   UNL     1       8.366  23.203  55.824  1.00  0.00     0.035 A 
HETATM   21  C   UNL     1       8.173  22.671  54.551  1.00  0.00     0.036 A 
HETATM   22  C   UNL     1       7.990  21.288  54.358  1.00  0.00    -0.060 A 
HETATM   23  C   UNL     1       7.814  20.726  52.975  1.00  0.00     0.048 C 
HETATM   24  C   UNL     1       8.026  20.426  55.456  1.00  0.00     0.007 A 
HETATM   25  C   UNL     1       8.229  20.938  56.731  1.00  0.00     0.003 A 
HETATM   26  C   UNL     1       8.397  22.312  56.911  1.00  0.00     0.029 A 
ENDBRANCH  17  20
ENDBRANCH  15  16
ENDBRANCH   1  15
TORSDOF 3
ENDMDL
MODEL 4
REMARK VINA RESULT:      -8.6      1.491      2.731
REMARK  3 active torsions:
REMARK  status: ('A' for Active; 'I' for Inactive)
REMARK    1  A    between atoms: C_4  and  N_5 
REMARK       I    between atoms: N_5  and  C_6 
REMARK    2  A    between atoms: C_6  and  C_7 
REMARK    3  A    between atoms: C_7  and  C_8 
ROOT
HETATM    1  C   UNL     1       7.005  25.168  55.222  1.00  0.00     0.286 C 
HETATM    2  N   UNL     1       6.899  23.756  55.813  1.00  0.00    -0.056 N 
HETATM    3  H   UNL     1       7.110  23.803  56.827  1.00  0.00     0.278 HD
HETATM    4  H   UNL     1       5.927  23.431  55.732  1.00  0.00     0.278 HD
HETATM    5  C   UNL     1       7.837  22.742  55.209  1.00  0.00     0.209 C 
HETATM    6  C   UNL     1       7.724  22.793  53.674  1.00  0.00     0.115 C 
HETATM    7  N   UNL     1       7.996  24.131  53.175  1.00  0.00    -0.353 N 
HETATM    8  C   UNL     1       7.495  25.260  53.766  1.00  0.00     0.249 C 
HETATM    9  O   UNL     1       7.461  26.316  53.142  1.00  0.00    -0.271 OA
HETATM   10  C   UNL     1       7.501  21.355  55.748  1.00  0.00     0.035 C 
HETATM   11  C   UNL     1       8.414  20.305  55.117  1.00  0.00     0.002 C 
HETATM   12  C   UNL     1       8.382  20.356  53.589  1.00  0.00     0.002 C 
HETATM   13  C   UNL     1       8.664  21.759  53.049  1.00  0.00     0.027 C 
HETATM   14  H   UNL     1       8.224  24.258  52.191  1.00  0.00     0.163 HD
ENDROOT
BRANCH   1  15
HETATM   15  C   UNL     1       7.762  26.132  56.140  1.00  0.00     0.146 C 
BRANCH  15  16
HETATM   16  C   UNL     1       6.822  26.906  57.012  1.00  0.00     0.224 C 
HETATM   17  N   UNL     1       7.094  28.062  57.654  1.00  0.00    -0.327 N 
HETATM   18  H   UNL     1       6.282  28.355  58.194  1.00  0.00     0.169 HD
HETATM   19  O   UNL     1       5.736  26.355  57.263  1.00  0.00    -0.273 OA
BRANCH  17  20
HETATM   20  C   UNL     1       8.188  28.943  57.762  1.00  0.00     0.035 A 
HETATM   21  C   UNL     1       8.357  29.950  58.708  1.00  0.00     0.036 A 
HETATM   22  C   UNL     1       9.492  30.784  58.691  1.00  0.00    -0.060 A 
HETATM   23  C   UNL     1       9.675  31.847  59.738  1.00  0.00     0.048 C 
HETATM   24  C   UNL     1      10.481  30.587  57.725  1.00  0.00     0.007 A 
HETATM   25  C   UNL     1      10.334  29.578  56.781  1.00  0.00     0.003 A 
HETATM   26  C   UNL     1       9.199  28.766  56.801  1.00  0.00     0.029 A 
ENDBRANCH  17  20
ENDBRANCH  15  16
ENDBRANCH   1  15
TORSDOF 3
ENDMDL
MODEL 5
REMARK VINA RESULT:      -8.6      2.346      6.656
REMARK  3 active torsions:
REMARK  status: ('A' for Active; 'I' for Inactive)
REMARK    1  A    between atoms: C_4  and  N_5 
REMARK       I    between atoms: N_5  and  C_6 
REMARK    2  A    between atoms: C_6  and  C_7 
REMARK    3  A    between atoms: C_7  and  C_8 
ROOT
HETATM    1  C   UNL     1       6.034  29.089  55.944  1.00  0.00     0.286 C 
HETATM    2  N   UNL     1       7.471  29.204  55.418  1.00  0.00    -0.056 N 
HETATM    3  H   UNL     1       7.673  28.381  54.820  1.00  0.00     0.278 HD
HETATM    4  H   UNL     1       7.539  30.030  54.810  1.00  0.00     0.278 HD
HETATM    5  C   UNL     1       8.536  29.255  56.483  1.00  0.00     0.209 C 
HETATM    6  C   UNL     1       8.161  30.320  57.530  1.00  0.00     0.115 C 
HETATM    7  N   UNL     1       6.852  30.052  58.101  1.00  0.00    -0.353 N 
HETATM    8  C   UNL     1       5.776  29.672  57.345  1.00  0.00     0.249 C 
HETATM    9  O   UNL     1       4.639  29.783  57.795  1.00  0.00    -0.271 OA
HETATM   10  C   UNL     1       9.886  29.556  55.839  1.00  0.00     0.035 C 
HETATM   11  C   UNL     1      10.975  29.652  56.906  1.00  0.00     0.002 C 
HETATM   12  C   UNL     1      10.619  30.657  58.003  1.00  0.00     0.002 C 
HETATM   13  C   UNL     1       9.242  30.389  58.612  1.00  0.00     0.027 C 
HETATM   14  H   UNL     1       6.592  30.497  58.979  1.00  0.00     0.163 HD
ENDROOT
BRANCH   1  15
HETATM   15  C   UNL     1       5.471  27.672  55.803  1.00  0.00     0.146 C 
BRANCH  15  16
HETATM   16  C   UNL     1       4.792  27.483  54.481  1.00  0.00     0.224 C 
HETATM   17  N   UNL     1       5.119  26.578  53.536  1.00  0.00    -0.327 N 
HETATM   18  H   UNL     1       4.508  26.686  52.729  1.00  0.00     0.169 HD
HETATM   19  O   UNL     1       3.933  28.332  54.188  1.00  0.00    -0.273 OA
BRANCH  17  20
HETATM   20  C   UNL     1       6.066  25.545  53.388  1.00  0.00     0.035 A 
HETATM   21  C   UNL     1       6.316  24.508  54.283  1.00  0.00     0.036 A 
HETATM   22  C   UNL     1       7.315  23.549  54.029  1.00  0.00    -0.060 A 
HETATM   23  C   UNL     1       7.551  22.417  54.989  1.00  0.00     0.048 C 
HETATM   24  C   UNL     1       8.055  23.618  52.847  1.00  0.00     0.007 A 
HETATM   25  C   UNL     1       7.811  24.639  51.937  1.00  0.00     0.003 A 
HETATM   26  C   UNL     1       6.826  25.592  52.207  1.00  0.00     0.029 A 
ENDBRANCH  17  20
ENDBRANCH  15  16
ENDBRANCH   1  15
TORSDOF 3
ENDMDL
MODEL 6
REMARK VINA RESULT:      -8.5      2.884      7.483
REMARK  3 active torsions:
REMARK  status: ('A' for Active; 'I' for Inactive)
REMARK    1  A    between atoms: C_4  and  N_5 
REMARK       I    between atoms: N_5  and  C_6 
REMARK    2  A    between atoms: C_6  and  C_7 
REMARK    3  A    between atoms: C_7  and  C_8 
ROOT
HETATM    1  C   UNL     1       5.958  25.895  54.628  1.00  0.00     0.286 C 
HETATM    2  N   UNL     1       5.995  27.377  55.027  1.00  0.00    -0.056 N 
HETATM    3  H   UNL     1       6.111  27.441  56.055  1.00  0.00     0.278 HD
HETATM    4  H   UNL     1       6.827  27.814  54.611  1.00  0.00     0.278 HD
HETATM    5  C   UNL     1       4.761  28.163  54.667  1.00  0.00     0.209 C 
HETATM    6  C   UNL     1       4.412  27.918  53.187  1.00  0.00     0.115 C 
HETATM    7  N   UNL     1       4.235  26.500  52.922  1.00  0.00    -0.353 N 
HETATM    8  C   UNL     1       5.075  25.540  53.419  1.00  0.00     0.249 C 
HETATM    9  O   UNL     1       5.098  24.422  52.913  1.00  0.00    -0.271 OA
HETATM   10  C   UNL     1       5.002  29.644  54.946  1.00  0.00     0.035 C 
HETATM   11  C   UNL     1       3.777  30.465  54.549  1.00  0.00     0.002 C 
HETATM   12  C   UNL     1       3.356  30.209  53.102  1.00  0.00     0.002 C 
HETATM   13  C   UNL     1       3.167  28.720  52.806  1.00  0.00     0.027 C 
HETATM   14  H   UNL     1       3.745  26.210  52.078  1.00  0.00     0.163 HD
ENDROOT
BRANCH   1  15
HETATM   15  C   UNL     1       5.689  24.974  55.821  1.00  0.00     0.146 C 
BRANCH  15  16
HETATM   16  C   UNL     1       6.875  24.902  56.733  1.00  0.00     0.224 C 
HETATM   17  N   UNL     1       7.774  23.898  56.800  1.00  0.00    -0.327 N 
HETATM   18  H   UNL     1       8.461  24.098  57.524  1.00  0.00     0.169 HD
HETATM   19  O   UNL     1       6.951  25.796  57.594  1.00  0.00    -0.273 OA
BRANCH  17  20
HETATM   20  C   UNL     1       7.997  22.675  56.136  1.00  0.00     0.035 A 
HETATM   21  C   UNL     1       7.845  22.426  54.775  1.00  0.00     0.036 A 
HETATM   22  C   UNL     1       8.075  21.144  54.237  1.00  0.00    -0.060 A 
HETATM   23  C   UNL     1       7.937  20.898  52.761  1.00  0.00     0.048 C 
HETATM   24  C   UNL     1       8.489  20.107  55.076  1.00  0.00     0.007 A 
HETATM   25  C   UNL     1       8.658  20.341  56.435  1.00  0.00     0.003 A 
HETATM   26  C   UNL     1       8.414  21.613  56.957  1.00  0.00     0.029 A 
ENDBRANCH  17  20
ENDBRANCH  15  16
ENDBRANCH   1  15
TORSDOF 3
ENDMDL
MODEL 7
REMARK VINA RESULT:      -8.4      1.735      7.125
REMARK  3 active torsions:
REMARK  status: ('A' for Active; 'I' for Inactive)
REMARK    1  A    between atoms: C_4  and  N_5 
REMARK       I    between atoms: N_5  and  C_6 
REMARK    2  A    between atoms: C_6  and  C_7 
REMARK    3  A    between atoms: C_7  and  C_8 
ROOT
HETATM    1  C   UNL     1       7.183  28.356  55.722  1.00  0.00     0.286 C 
HETATM    2  N   UNL     1       8.485  29.161  55.606  1.00  0.00    -0.056 N 
HETATM    3  H   UNL     1       9.184  28.589  55.096  1.00  0.00     0.278 HD
HETATM    4  H   UNL     1       8.313  29.993  55.028  1.00  0.00     0.278 HD
HETATM    5  C   UNL     1       9.106  29.560  56.920  1.00  0.00     0.209 C 
HETATM    6  C   UNL     1       8.036  30.218  57.811  1.00  0.00     0.115 C 
HETATM    7  N   UNL     1       6.903  29.329  58.008  1.00  0.00    -0.353 N 
HETATM    8  C   UNL     1       6.348  28.597  56.992  1.00  0.00     0.249 C 
HETATM    9  O   UNL     1       5.217  28.137  57.115  1.00  0.00    -0.271 OA
HETATM   10  C   UNL     1      10.277  30.504  56.663  1.00  0.00     0.035 C 
HETATM   11  C   UNL     1      10.896  30.954  57.985  1.00  0.00     0.002 C 
HETATM   12  C   UNL     1       9.859  31.561  58.930  1.00  0.00     0.002 C 
HETATM   13  C   UNL     1       8.658  30.638  59.145  1.00  0.00     0.027 C 
HETATM   14  H   UNL     1       6.259  29.508  58.775  1.00  0.00     0.163 HD
ENDROOT
BRANCH   1  15
HETATM   15  C   UNL     1       7.391  26.863  55.452  1.00  0.00     0.146 C 
BRANCH  15  16
HETATM   16  C   UNL     1       7.390  26.569  53.984  1.00  0.00     0.224 C 
HETATM   17  N   UNL     1       7.625  25.372  53.407  1.00  0.00    -0.327 N 
HETATM   18  H   UNL     1       7.585  25.464  52.394  1.00  0.00     0.169 HD
HETATM   19  O   UNL     1       7.289  27.556  53.234  1.00  0.00    -0.273 OA
BRANCH  17  20
HETATM   20  C   UNL     1       7.903  24.061  53.841  1.00  0.00     0.035 A 
HETATM   21  C   UNL     1       7.920  22.910  53.058  1.00  0.00     0.036 A 
HETATM   22  C   UNL     1       8.188  21.647  53.622  1.00  0.00    -0.060 A 
HETATM   23  C   UNL     1       8.233  20.418  52.758  1.00  0.00     0.048 C 
HETATM   24  C   UNL     1       8.468  21.544  54.986  1.00  0.00     0.007 A 
HETATM   25  C   UNL     1       8.468  22.685  55.780  1.00  0.00     0.003 A 
HETATM   26  C   UNL     1       8.188  23.929  55.211  1.00  0.00     0.029 A 
ENDBRANCH  17  20
ENDBRANCH  15  16
ENDBRANCH   1  15
TORSDOF 3
ENDMDL
MODEL 8
REMARK VINA RESULT:      -8.3      3.280      7.383
REMARK  3 active torsions:
REMARK  status: ('A' for Active; 'I' for Inactive)
REMARK    1  A    between atoms: C_4  and  N_5 
REMARK       I    between atoms: N_5  and  C_6 
REMARK    2  A    between atoms: C_6  and  C_7 
REMARK    3  A    between atoms: C_7  and  C_8 
ROOT
HETATM    1  C   UNL     1       5.549  26.465  53.388  1.00  0.00     0.286 C 
HETATM    2  N   UNL     1       4.858  25.963  52.113  1.00  0.00    -0.056 N 
HETATM    3  H   UNL     1       5.058  24.951  52.004  1.00  0.00     0.278 HD
HETATM    4  H   UNL     1       3.841  26.048  52.229  1.00  0.00     0.278 HD
HETATM    5  C   UNL     1       5.295  26.645  50.842  1.00  0.00     0.209 C 
HETATM    6  C   UNL     1       5.232  28.171  51.033  1.00  0.00     0.115 C 
HETATM    7  N   UNL     1       6.041  28.589  52.165  1.00  0.00    -0.353 N 
HETATM    8  C   UNL     1       6.049  27.921  53.360  1.00  0.00     0.249 C 
HETATM    9  O   UNL     1       6.466  28.476  54.372  1.00  0.00    -0.271 OA
HETATM   10  C   UNL     1       4.407  26.188  49.689  1.00  0.00     0.035 C 
HETATM   11  C   UNL     1       4.807  26.899  48.397  1.00  0.00     0.002 C 
HETATM   12  C   UNL     1       4.816  28.419  48.555  1.00  0.00     0.002 C 
HETATM   13  C   UNL     1       5.663  28.875  49.744  1.00  0.00     0.027 C 
HETATM   14  H   UNL     1       6.313  29.567  52.248  1.00  0.00     0.163 HD
ENDROOT
BRANCH   1  15
HETATM   15  C   UNL     1       6.628  25.501  53.888  1.00  0.00     0.146 C 
BRANCH  15  16
HETATM   16  C   UNL     1       6.396  25.116  55.317  1.00  0.00     0.224 C 
HETATM   17  N   UNL     1       6.772  23.962  55.906  1.00  0.00    -0.327 N 
HETATM   18  H   UNL     1       6.465  23.955  56.877  1.00  0.00     0.169 HD
HETATM   19  O   UNL     1       5.675  25.886  55.975  1.00  0.00    -0.273 OA
BRANCH  17  20
HETATM   20  C   UNL     1       7.465  22.795  55.528  1.00  0.00     0.035 A 
HETATM   21  C   UNL     1       7.540  22.248  54.249  1.00  0.00     0.036 A 
HETATM   22  C   UNL     1       8.248  21.055  54.006  1.00  0.00    -0.060 A 
HETATM   23  C   UNL     1       8.346  20.494  52.615  1.00  0.00     0.048 C 
HETATM   24  C   UNL     1       8.910  20.417  55.057  1.00  0.00     0.007 A 
HETATM   25  C   UNL     1       8.855  20.956  56.337  1.00  0.00     0.003 A 
HETATM   26  C   UNL     1       8.140  22.133  56.567  1.00  0.00     0.029 A 
ENDBRANCH  17  20
ENDBRANCH  15  16
ENDBRANCH   1  15
TORSDOF 3
ENDMDL
MODEL 9
REMARK VINA RESULT:      -8.2      2.411      7.394
REMARK  3 active torsions:
REMARK  status: ('A' for Active; 'I' for Inactive)
REMARK    1  A    between atoms: C_4  and  N_5 
REMARK       I    between atoms: N_5  and  C_6 
REMARK    2  A    between atoms: C_6  and  C_7 
REMARK    3  A    between atoms: C_7  and  C_8 
ROOT
HETATM    1  C   UNL     1       8.810  28.862  56.967  1.00  0.00     0.286 C 
HETATM    2  N   UNL     1       7.714  29.348  57.925  1.00  0.00    -0.056 N 
HETATM    3  H   UNL     1       6.809  29.352  57.419  1.00  0.00     0.278 HD
HETATM    4  H   UNL     1       7.616  28.671  58.692  1.00  0.00     0.278 HD
HETATM    5  C   UNL     1       7.922  30.734  58.480  1.00  0.00     0.209 C 
HETATM    6  C   UNL     1       9.350  30.849  59.046  1.00  0.00     0.115 C 
HETATM    7  N   UNL     1      10.340  30.528  58.032  1.00  0.00    -0.353 N 
HETATM    8  C   UNL     1      10.210  29.468  57.175  1.00  0.00     0.249 C 
HETATM    9  O   UNL     1      11.192  29.036  56.580  1.00  0.00    -0.271 OA
HETATM   10  C   UNL     1       6.872  31.016  59.550  1.00  0.00     0.035 C 
HETATM   11  C   UNL     1       7.090  32.402  60.155  1.00  0.00     0.002 C 
HETATM   12  C   UNL     1       8.514  32.584  60.678  1.00  0.00     0.002 C 
HETATM   13  C   UNL     1       9.569  32.249  59.623  1.00  0.00     0.027 C 
HETATM   14  H   UNL     1      11.306  30.818  58.171  1.00  0.00     0.163 HD
ENDROOT
BRANCH   1  15
HETATM   15  C   UNL     1       8.375  28.921  55.500  1.00  0.00     0.146 C 
BRANCH  15  16
HETATM   16  C   UNL     1       6.924  28.587  55.348  1.00  0.00     0.224 C 
HETATM   17  N   UNL     1       6.414  27.439  54.852  1.00  0.00    -0.327 N 
HETATM   18  H   UNL     1       5.397  27.491  54.841  1.00  0.00     0.169 HD
HETATM   19  O   UNL     1       6.127  29.512  55.584  1.00  0.00    -0.273 OA
BRANCH  17  20
HETATM   20  C   UNL     1       6.921  26.220  54.360  1.00  0.00     0.035 A 
HETATM   21  C   UNL     1       6.991  25.010  55.045  1.00  0.00     0.036 A 
HETATM   22  C   UNL     1       7.547  23.863  54.446  1.00  0.00    -0.060 A 
HETATM   23  C   UNL     1       7.588  22.557  55.187  1.00  0.00     0.048 C 
HETATM   24  C   UNL     1       8.016  23.928  53.132  1.00  0.00     0.007 A 
HETATM   25  C   UNL     1       7.942  25.125  52.429  1.00  0.00     0.003 A 
HETATM   26  C   UNL     1       7.399  26.258  53.039  1.00  0.00     0.029 A 
ENDBRANCH  17  20
ENDBRANCH  15  16
ENDBRANCH   1  15
TORSDOF 3
ENDMDL
MODEL 10
REMARK VINA RESULT:      -8.1      2.336      7.374
REMARK  3 active torsions:
REMARK  status: ('A' for Active; 'I' for Inactive)
REMARK    1  A    between atoms: C_4  and  N_5 
REMARK       I    between atoms: N_5  and  C_6 
REMARK    2  A    between atoms: C_6  and  C_7 
REMARK    3  A    between atoms: C_7  and  C_8 
ROOT
HETATM    1  C   UNL     1       6.560  28.341  57.086  1.00  0.00     0.286 C 
HETATM    2  N   UNL     1       5.591  29.393  57.643  1.00  0.00    -0.056 N 
HETATM    3  H   UNL     1       4.898  29.628  56.908  1.00  0.00     0.278 HD
HETATM    4  H   UNL     1       5.062  28.982  58.422  1.00  0.00     0.278 HD
HETATM    5  C   UNL     1       6.235  30.685  58.076  1.00  0.00     0.209 C 
HETATM    6  C   UNL     1       7.428  30.376  59.001  1.00  0.00     0.115 C 
HETATM    7  N   UNL     1       8.383  29.501  58.343  1.00  0.00    -0.353 N 
HETATM    8  C   UNL     1       8.007  28.410  57.606  1.00  0.00     0.249 C 
HETATM    9  O   UNL     1       8.821  27.526  57.359  1.00  0.00    -0.271 OA
HETATM   10  C   UNL     1       5.199  31.560  58.775  1.00  0.00     0.035 C 
HETATM   11  C   UNL     1       5.841  32.859  59.260  1.00  0.00     0.002 C 
HETATM   12  C   UNL     1       7.068  32.603  60.135  1.00  0.00     0.002 C 
HETATM   13  C   UNL     1       8.083  31.681  59.457  1.00  0.00     0.027 C 
HETATM   14  H   UNL     1       9.329  29.431  58.713  1.00  0.00     0.163 HD
ENDROOT
BRANCH   1  15
HETATM   15  C   UNL     1       6.507  28.245  55.560  1.00  0.00     0.146 C 
BRANCH  15  16
HETATM   16  C   UNL     1       5.258  27.558  55.099  1.00  0.00     0.224 C 
HETATM   17  N   UNL     1       5.189  26.405  54.401  1.00  0.00    -0.327 N 
HETATM   18  H   UNL     1       4.216  26.181  54.201  1.00  0.00     0.169 HD
HETATM   19  O   UNL     1       4.199  28.187  55.272  1.00  0.00    -0.273 OA
BRANCH  17  20
HETATM   20  C   UNL     1       6.099  25.458  53.893  1.00  0.00     0.035 A 
HETATM   21  C   UNL     1       6.477  24.259  54.493  1.00  0.00     0.036 A 
HETATM   22  C   UNL     1       7.422  23.407  53.890  1.00  0.00    -0.060 A 
HETATM   23  C   UNL     1       7.798  22.103  54.536  1.00  0.00     0.048 C 
HETATM   24  C   UNL     1       7.976  23.752  52.655  1.00  0.00     0.007 A 
HETATM   25  C   UNL     1       7.601  24.938  52.036  1.00  0.00     0.003 A 
HETATM   26  C   UNL     1       6.672  25.780  52.650  1.00  0.00     0.029 A 
ENDBRANCH  17  20
ENDBRANCH  15  16
ENDBRANCH   1  15
TORSDOF 3
ENDMDL
