MODEL 1
REMARK VINA RESULT:      -9.5      0.000      0.000
REMARK  8 active torsions:
REMARK  status: ('A' for Active; 'I' for Inactive)
REMARK    1  A    between atoms: C_5  and  C_6 
REMARK    2  A    between atoms: N_7  and  N_8 
REMARK       I    between atoms: N_8  and  C_9 
REMARK    3  A    between atoms: C_9  and  C_10 
REMARK    4  A    between atoms: N_11  and  C_12 
REMARK    5  A    between atoms: C_16  and  N_17 
REMARK    6  A    between atoms: C_20  and  C_21 
REMARK    7  A    between atoms: C_21  and  N_22 
REMARK    8  A    between atoms: C_30  and  O_31 
ROOT
HETATM    1  C   UNL     1       7.548  27.343  56.018  1.00  0.00     0.159 A 
HETATM    2  N   UNL     1       8.163  27.879  57.154  1.00  0.00    -0.184 N 
HETATM    3  N   UNL     1       8.038  26.980  58.174  1.00  0.00    -0.058 NA
HETATM    4  N   UNL     1       7.431  25.893  57.742  1.00  0.00    -0.132 NA
HETATM    5  C   UNL     1       7.114  26.083  56.437  1.00  0.00     0.118 A 
ENDROOT
BRANCH   1   6
HETATM    6  C   UNL     1       7.366  27.846  54.676  1.00  0.00     0.292 C 
HETATM    7  N   UNL     1       6.090  28.062  54.200  1.00  0.00    -0.242 N 
HETATM    8  H   UNL     1       5.275  28.022  54.809  1.00  0.00     0.192 HD
HETATM    9  O   UNL     1       8.363  28.020  53.968  1.00  0.00    -0.264 OA
BRANCH   7  10
HETATM   10  N   UNL     1       5.917  28.491  52.916  1.00  0.00    -0.183 NA
HETATM   11  C   UNL     1       5.370  27.634  52.110  1.00  0.00     0.153 C 
BRANCH  11  12
HETATM   12  C   UNL     1       5.127  27.967  50.692  1.00  0.00     0.017 A 
HETATM   13  C   UNL     1       4.508  27.003  49.889  1.00  0.00     0.034 A 
HETATM   14  C   UNL     1       4.269  27.285  48.543  1.00  0.00     0.012 A 
HETATM   15  C   UNL     1       4.638  28.512  47.994  1.00  0.00     0.022 A 
HETATM   16 BR   UNL     1       3.434  25.984  47.455  1.00  0.00    -0.051 Br
HETATM   17  C   UNL     1       5.254  29.473  48.798  1.00  0.00     0.039 A 
HETATM   18  C   UNL     1       5.498  29.202  50.142  1.00  0.00     0.077 A 
BRANCH  18  19
HETATM   19  O   UNL     1       6.106  30.192  50.865  1.00  0.00    -0.360 OA
HETATM   20  H   UNL     1       5.607  31.023  50.709  1.00  0.00     0.217 HD
ENDBRANCH  18  19
ENDBRANCH  11  12
ENDBRANCH   7  10
ENDBRANCH   1   6
BRANCH   2  21
HETATM   21  C   UNL     1       8.864  29.094  57.357  1.00  0.00     0.230 A 
HETATM   22  N   UNL     1       9.847  29.462  56.535  1.00  0.00    -0.081 NA
HETATM   23  O   UNL     1      10.302  30.669  57.067  1.00  0.00    -0.103 OA
HETATM   24  N   UNL     1       9.571  31.028  58.187  1.00  0.00    -0.083 NA
HETATM   25  C   UNL     1       8.683  30.053  58.373  1.00  0.00     0.201 A 
BRANCH  25  26
HETATM   26  N   UNL     1       7.777  30.032  59.362  1.00  0.00    -0.379 N 
HETATM   27  H   UNL     1       7.035  30.726  59.394  1.00  0.00     0.158 HD
HETATM   28  H   UNL     1       7.850  29.442  60.188  1.00  0.00     0.158 HD
ENDBRANCH  25  26
ENDBRANCH   2  21
BRANCH   5  29
HETATM   29  C   UNL     1       6.372  25.012  55.698  1.00  0.00     0.298 C 
BRANCH  29  30
HETATM   30  N   UNL     1       7.211  24.092  54.837  1.00  0.00    -0.066 N 
HETATM   31  H   UNL     1       8.154  24.538  54.825  1.00  0.00     0.280 HD
HETATM   32  C   UNL     1       7.363  22.710  55.412  1.00  0.00     0.235 C 
HETATM   33  C   UNL     1       8.344  21.913  54.563  1.00  0.00     0.028 C 
HETATM   34  C   UNL     1       7.923  21.875  53.098  1.00  0.00     0.003 C 
HETATM   35  C   UNL     1       7.711  23.282  52.553  1.00  0.00     0.028 C 
HETATM   36  C   UNL     1       6.734  24.077  53.409  1.00  0.00     0.235 C 
ENDBRANCH  29  30
ENDBRANCH   5  29
TORSDOF 8
ENDMDL
MODEL 2
REMARK VINA RESULT:      -9.4      2.922      6.046
REMARK  8 active torsions:
REMARK  status: ('A' for Active; 'I' for Inactive)
REMARK    1  A    between atoms: C_5  and  C_6 
REMARK    2  A    between atoms: N_7  and  N_8 
REMARK       I    between atoms: N_8  and  C_9 
REMARK    3  A    between atoms: C_9  and  C_10 
REMARK    4  A    between atoms: N_11  and  C_12 
REMARK    5  A    between atoms: C_16  and  N_17 
REMARK    6  A    between atoms: C_20  and  C_21 
REMARK    7  A    between atoms: C_21  and  N_22 
REMARK    8  A    between atoms: C_30  and  O_31 
ROOT
HETATM    1  C   UNL     1       5.705  28.787  56.295  1.00  0.00     0.159 A 
HETATM    2  N   UNL     1       6.190  29.942  56.917  1.00  0.00    -0.184 N 
HETATM    3  N   UNL     1       5.688  31.026  56.257  1.00  0.00    -0.058 NA
HETATM    4  N   UNL     1       4.880  30.631  55.294  1.00  0.00    -0.132 NA
HETATM    5  C   UNL     1       4.873  29.275  55.286  1.00  0.00     0.118 A 
ENDROOT
BRANCH   1   6
HETATM    6  C   UNL     1       5.910  27.380  56.553  1.00  0.00     0.292 C 
HETATM    7  N   UNL     1       7.123  26.802  56.238  1.00  0.00    -0.242 N 
HETATM    8  H   UNL     1       7.931  27.360  55.970  1.00  0.00     0.192 HD
HETATM    9  O   UNL     1       4.970  26.716  57.000  1.00  0.00    -0.264 OA
BRANCH   7  10
HETATM   10  N   UNL     1       7.300  25.463  56.436  1.00  0.00    -0.183 NA
HETATM   11  C   UNL     1       7.851  24.822  55.451  1.00  0.00     0.153 C 
BRANCH  11  12
HETATM   12  C   UNL     1       8.097  23.368  55.531  1.00  0.00     0.017 A 
HETATM   13  C   UNL     1       8.098  22.638  54.338  1.00  0.00     0.034 A 
HETATM   14  C   UNL     1       8.323  21.261  54.380  1.00  0.00     0.012 A 
HETATM   15  C   UNL     1       8.548  20.610  55.592  1.00  0.00     0.022 A 
HETATM   16 BR   UNL     1       8.323  20.269  52.770  1.00  0.00    -0.051 Br
HETATM   17  C   UNL     1       8.548  21.342  56.781  1.00  0.00     0.039 A 
HETATM   18  C   UNL     1       8.324  22.716  56.751  1.00  0.00     0.077 A 
BRANCH  18  19
HETATM   19  O   UNL     1       8.339  23.364  57.956  1.00  0.00    -0.360 OA
HETATM   20  H   UNL     1       8.137  22.703  58.652  1.00  0.00     0.217 HD
ENDBRANCH  18  19
ENDBRANCH  11  12
ENDBRANCH   7  10
ENDBRANCH   1   6
BRANCH   2  21
HETATM   21  C   UNL     1       7.018  30.119  58.053  1.00  0.00     0.230 A 
HETATM   22  N   UNL     1       7.949  29.219  58.368  1.00  0.00    -0.081 NA
HETATM   23  O   UNL     1       8.523  29.718  59.539  1.00  0.00    -0.103 OA
HETATM   24  N   UNL     1       7.949  30.926  59.901  1.00  0.00    -0.083 NA
HETATM   25  C   UNL     1       7.013  31.174  58.986  1.00  0.00     0.201 A 
BRANCH  25  26
HETATM   26  N   UNL     1       6.231  32.265  58.981  1.00  0.00    -0.379 N 
HETATM   27  H   UNL     1       5.885  32.646  58.105  1.00  0.00     0.158 HD
HETATM   28  H   UNL     1       6.058  32.843  59.800  1.00  0.00     0.158 HD
ENDBRANCH  25  26
ENDBRANCH   2  21
BRANCH   5  29
HETATM   29  C   UNL     1       4.063  28.551  54.254  1.00  0.00     0.298 C 
BRANCH  29  30
HETATM   30  N   UNL     1       4.847  27.791  53.206  1.00  0.00    -0.066 N 
HETATM   31  H   UNL     1       5.834  28.095  53.349  1.00  0.00     0.280 HD
HETATM   32  C   UNL     1       4.795  26.298  53.387  1.00  0.00     0.235 C 
HETATM   33  C   UNL     1       5.732  25.632  52.389  1.00  0.00     0.028 C 
HETATM   34  C   UNL     1       5.414  26.042  50.955  1.00  0.00     0.003 C 
HETATM   35  C   UNL     1       5.407  27.558  50.807  1.00  0.00     0.028 C 
HETATM   36  C   UNL     1       4.473  28.218  51.811  1.00  0.00     0.235 C 
ENDBRANCH  29  30
ENDBRANCH   5  29
TORSDOF 8
ENDMDL
MODEL 3
REMARK VINA RESULT:      -9.3      3.673      7.316
REMARK  8 active torsions:
REMARK  status: ('A' for Active; 'I' for Inactive)
REMARK    1  A    between atoms: C_5  and  C_6 
REMARK    2  A    between atoms: N_7  and  N_8 
REMARK       I    between atoms: N_8  and  C_9 
REMARK    3  A    between atoms: C_9  and  C_10 
REMARK    4  A    between atoms: N_11  and  C_12 
REMARK    5  A    between atoms: C_16  and  N_17 
REMARK    6  A    between atoms: C_20  and  C_21 
REMARK    7  A    between atoms: C_21  and  N_22 
REMARK    8  A    between atoms: C_30  and  O_31 
ROOT
HETATM    1  C   UNL     1       6.643  26.444  54.081  1.00  0.00     0.159 A 
HETATM    2  N   UNL     1       5.397  26.611  53.467  1.00  0.00    -0.184 N 
HETATM    3  N   UNL     1       5.007  25.406  52.956  1.00  0.00    -0.058 NA
HETATM    4  N   UNL     1       5.898  24.483  53.253  1.00  0.00    -0.132 NA
HETATM    5  C   UNL     1       6.909  25.081  53.931  1.00  0.00     0.118 A 
ENDROOT
BRANCH   1   6
HETATM    6  C   UNL     1       7.525  27.361  54.765  1.00  0.00     0.292 C 
HETATM    7  N   UNL     1       7.686  27.256  56.132  1.00  0.00    -0.242 N 
HETATM    8  H   UNL     1       7.323  26.463  56.656  1.00  0.00     0.192 HD
HETATM    9  O   UNL     1       8.074  28.255  54.112  1.00  0.00    -0.264 OA
BRANCH   7  10
HETATM   10  N   UNL     1       8.481  28.153  56.784  1.00  0.00    -0.183 NA
HETATM   11  C   UNL     1       7.865  28.960  57.592  1.00  0.00     0.153 C 
BRANCH  11  12
HETATM   12  C   UNL     1       8.604  29.982  58.360  1.00  0.00     0.017 A 
HETATM   13  C   UNL     1       8.125  30.321  59.630  1.00  0.00     0.034 A 
HETATM   14  C   UNL     1       8.799  31.287  60.379  1.00  0.00     0.012 A 
HETATM   15  C   UNL     1       9.939  31.914  59.877  1.00  0.00     0.022 A 
HETATM   16 BR   UNL     1       8.155  31.748  62.096  1.00  0.00    -0.051 Br
HETATM   17  C   UNL     1      10.415  31.573  58.610  1.00  0.00     0.039 A 
HETATM   18  C   UNL     1       9.750  30.611  57.853  1.00  0.00     0.077 A 
BRANCH  18  19
HETATM   19  O   UNL     1      10.276  30.331  56.622  1.00  0.00    -0.360 OA
HETATM   20  H   UNL     1      11.185  30.699  56.595  1.00  0.00     0.217 HD
ENDBRANCH  18  19
ENDBRANCH  11  12
ENDBRANCH   7  10
ENDBRANCH   1   6
BRANCH   2  21
HETATM   21  C   UNL     1       4.552  27.742  53.351  1.00  0.00     0.230 A 
HETATM   22  N   UNL     1       4.259  28.489  54.416  1.00  0.00    -0.081 NA
HETATM   23  O   UNL     1       3.397  29.468  53.919  1.00  0.00    -0.103 OA
HETATM   24  N   UNL     1       3.202  29.315  52.556  1.00  0.00    -0.083 NA
HETATM   25  C   UNL     1       3.911  28.245  52.202  1.00  0.00     0.201 A 
BRANCH  25  26
HETATM   26  N   UNL     1       3.989  27.769  50.950  1.00  0.00    -0.379 N 
HETATM   27  H   UNL     1       3.641  26.840  50.731  1.00  0.00     0.158 HD
HETATM   28  H   UNL     1       4.507  28.222  50.201  1.00  0.00     0.158 HD
ENDBRANCH  25  26
ENDBRANCH   2  21
BRANCH   5  29
HETATM   29  C   UNL     1       8.091  24.266  54.358  1.00  0.00     0.298 C 
BRANCH  29  30
HETATM   30  N   UNL     1       7.865  22.773  54.469  1.00  0.00    -0.066 N 
HETATM   31  H   UNL     1       6.842  22.653  54.309  1.00  0.00     0.280 HD
HETATM   32  C   UNL     1       8.591  21.979  53.417  1.00  0.00     0.235 C 
HETATM   33  C   UNL     1       8.181  20.516  53.512  1.00  0.00     0.028 C 
HETATM   34  C   UNL     1       8.414  19.953  54.910  1.00  0.00     0.003 C 
HETATM   35  C   UNL     1       7.726  20.808  55.967  1.00  0.00     0.028 C 
HETATM   36  C   UNL     1       8.135  22.271  55.863  1.00  0.00     0.235 C 
ENDBRANCH  29  30
ENDBRANCH   5  29
TORSDOF 8
ENDMDL
MODEL 4
REMARK VINA RESULT:      -9.3      1.642      5.403
REMARK  8 active torsions:
REMARK  status: ('A' for Active; 'I' for Inactive)
REMARK    1  A    between atoms: C_5  and  C_6 
REMARK    2  A    between atoms: N_7  and  N_8 
REMARK       I    between atoms: N_8  and  C_9 
REMARK    3  A    between atoms: C_9  and  C_10 
REMARK    4  A    between atoms: N_11  and  C_12 
REMARK    5  A    between atoms: C_16  and  N_17 
REMARK    6  A    between atoms: C_20  and  C_21 
REMARK    7  A    between atoms: C_21  and  N_22 
REMARK    8  A    between atoms: C_30  and  O_31 
ROOT
HETATM    1  C   UNL     1       7.531  26.204  55.853  1.00  0.00     0.159 A 
HETATM    2  N   UNL     1       7.986  24.894  56.031  1.00  0.00    -0.184 N 
HETATM    3  N   UNL     1       8.353  24.742  57.337  1.00  0.00    -0.058 NA
HETATM    4  N   UNL     1       8.110  25.852  58.004  1.00  0.00    -0.132 NA
HETATM    5  C   UNL     1       7.616  26.764  57.129  1.00  0.00     0.118 A 
ENDROOT
BRANCH   1   6
HETATM    6  C   UNL     1       7.037  26.918  54.697  1.00  0.00     0.292 C 
HETATM    7  N   UNL     1       5.817  26.571  54.156  1.00  0.00    -0.242 N 
HETATM    8  H   UNL     1       5.181  25.931  54.629  1.00  0.00     0.192 HD
HETATM    9  O   UNL     1       7.750  27.789  54.189  1.00  0.00    -0.264 OA
BRANCH   7  10
HETATM   10  N   UNL     1       5.373  27.211  53.036  1.00  0.00    -0.183 NA
HETATM   11  C   UNL     1       5.573  26.584  51.918  1.00  0.00     0.153 C 
BRANCH  11  12
HETATM   12  C   UNL     1       5.145  27.165  50.630  1.00  0.00     0.017 A 
HETATM   13  C   UNL     1       4.455  26.340  49.736  1.00  0.00     0.034 A 
HETATM   14  C   UNL     1       4.041  26.858  48.508  1.00  0.00     0.012 A 
HETATM   15  C   UNL     1       4.305  28.184  48.166  1.00  0.00     0.022 A 
HETATM   16 BR   UNL     1       3.110  25.745  47.295  1.00  0.00    -0.051 Br
HETATM   17  C   UNL     1       4.992  29.006  49.061  1.00  0.00     0.039 A 
HETATM   18  C   UNL     1       5.410  28.499  50.289  1.00  0.00     0.077 A 
BRANCH  18  19
HETATM   19  O   UNL     1       6.077  29.364  51.112  1.00  0.00    -0.360 OA
HETATM   20  H   UNL     1       6.821  29.749  50.600  1.00  0.00     0.217 HD
ENDBRANCH  18  19
ENDBRANCH  11  12
ENDBRANCH   7  10
ENDBRANCH   1   6
BRANCH   2  21
HETATM   21  C   UNL     1       8.071  23.800  55.135  1.00  0.00     0.230 A 
HETATM   22  N   UNL     1       7.995  23.987  53.817  1.00  0.00    -0.081 NA
HETATM   23  O   UNL     1       8.086  22.700  53.284  1.00  0.00    -0.103 OA
HETATM   24  N   UNL     1       8.243  21.755  54.285  1.00  0.00    -0.083 NA
HETATM   25  C   UNL     1       8.229  22.432  55.432  1.00  0.00     0.201 A 
BRANCH  25  26
HETATM   26  N   UNL     1       8.363  21.870  56.644  1.00  0.00    -0.379 N 
HETATM   27  H   UNL     1       9.276  21.574  56.975  1.00  0.00     0.158 HD
HETATM   28  H   UNL     1       7.579  21.582  57.225  1.00  0.00     0.158 HD
ENDBRANCH  25  26
ENDBRANCH   2  21
BRANCH   5  29
HETATM   29  C   UNL     1       7.291  28.144  57.612  1.00  0.00     0.298 C 
BRANCH  29  30
HETATM   30  N   UNL     1       8.470  29.009  58.002  1.00  0.00    -0.066 N 
HETATM   31  H   UNL     1       9.005  28.428  58.682  1.00  0.00     0.280 HD
HETATM   32  C   UNL     1       9.385  29.326  56.850  1.00  0.00     0.235 C 
HETATM   33  C   UNL     1      10.614  30.061  57.365  1.00  0.00     0.028 C 
HETATM   34  C   UNL     1      10.237  31.313  58.150  1.00  0.00     0.003 C 
HETATM   35  C   UNL     1       9.259  30.982  59.270  1.00  0.00     0.028 C 
HETATM   36  C   UNL     1       8.035  30.241  58.751  1.00  0.00     0.235 C 
ENDBRANCH  29  30
ENDBRANCH   5  29
TORSDOF 8
ENDMDL
MODEL 5
REMARK VINA RESULT:      -8.9      3.499      6.920
REMARK  8 active torsions:
REMARK  status: ('A' for Active; 'I' for Inactive)
REMARK    1  A    between atoms: C_5  and  C_6 
REMARK    2  A    between atoms: N_7  and  N_8 
REMARK       I    between atoms: N_8  and  C_9 
REMARK    3  A    between atoms: C_9  and  C_10 
REMARK    4  A    between atoms: N_11  and  C_12 
REMARK    5  A    between atoms: C_16  and  N_17 
REMARK    6  A    between atoms: C_20  and  C_21 
REMARK    7  A    between atoms: C_21  and  N_22 
REMARK    8  A    between atoms: C_30  and  O_31 
ROOT
HETATM    1  C   UNL     1       6.235  30.827  58.226  1.00  0.00     0.159 A 
HETATM    2  N   UNL     1       6.674  31.763  59.169  1.00  0.00    -0.184 N 
HETATM    3  N   UNL     1       5.639  32.610  59.445  1.00  0.00    -0.058 NA
HETATM    4  N   UNL     1       4.565  32.239  58.778  1.00  0.00    -0.132 NA
HETATM    5  C   UNL     1       4.895  31.162  58.022  1.00  0.00     0.118 A 
ENDROOT
BRANCH   1   6
HETATM    6  C   UNL     1       6.893  29.720  57.570  1.00  0.00     0.292 C 
HETATM    7  N   UNL     1       7.164  28.572  58.286  1.00  0.00    -0.242 N 
HETATM    8  H   UNL     1       6.784  28.417  59.218  1.00  0.00     0.192 HD
HETATM    9  O   UNL     1       7.246  29.853  56.394  1.00  0.00    -0.264 OA
BRANCH   7  10
HETATM   10  N   UNL     1       7.828  27.545  57.680  1.00  0.00    -0.183 NA
HETATM   11  C   UNL     1       7.078  26.606  57.192  1.00  0.00     0.153 C 
BRANCH  11  12
HETATM   12  C   UNL     1       7.667  25.434  56.514  1.00  0.00     0.017 A 
HETATM   13  C   UNL     1       7.455  25.299  55.138  1.00  0.00     0.034 A 
HETATM   14  C   UNL     1       7.995  24.201  54.467  1.00  0.00     0.012 A 
HETATM   15  C   UNL     1       8.741  23.242  55.151  1.00  0.00     0.022 A 
HETATM   16 BR   UNL     1       7.709  24.014  52.607  1.00  0.00    -0.051 Br
HETATM   17  C   UNL     1       8.952  23.380  56.524  1.00  0.00     0.039 A 
HETATM   18  C   UNL     1       8.417  24.472  57.204  1.00  0.00     0.077 A 
BRANCH  18  19
HETATM   19  O   UNL     1       8.667  24.538  58.547  1.00  0.00    -0.360 OA
HETATM   20  H   UNL     1       7.921  25.020  58.965  1.00  0.00     0.217 HD
ENDBRANCH  18  19
ENDBRANCH  11  12
ENDBRANCH   7  10
ENDBRANCH   1   6
BRANCH   2  21
HETATM   21  C   UNL     1       7.913  31.909  59.840  1.00  0.00     0.230 A 
HETATM   22  N   UNL     1       8.968  32.440  59.222  1.00  0.00    -0.081 NA
HETATM   23  O   UNL     1       9.985  32.389  60.176  1.00  0.00    -0.103 OA
HETATM   24  N   UNL     1       9.524  31.851  61.367  1.00  0.00    -0.083 NA
HETATM   25  C   UNL     1       8.244  31.548  61.161  1.00  0.00     0.201 A 
BRANCH  25  26
HETATM   26  N   UNL     1       7.436  31.008  62.086  1.00  0.00    -0.379 N 
HETATM   27  H   UNL     1       7.779  30.825  63.025  1.00  0.00     0.158 HD
HETATM   28  H   UNL     1       6.514  30.627  61.883  1.00  0.00     0.158 HD
ENDBRANCH  25  26
ENDBRANCH   2  21
BRANCH   5  29
HETATM   29  C   UNL     1       3.865  30.554  57.121  1.00  0.00     0.298 C 
BRANCH  29  30
HETATM   30  N   UNL     1       3.846  31.059  55.694  1.00  0.00    -0.066 N 
HETATM   31  H   UNL     1       4.697  31.658  55.620  1.00  0.00     0.280 HD
HETATM   32  C   UNL     1       3.964  29.963  54.670  1.00  0.00     0.235 C 
HETATM   33  C   UNL     1       4.094  30.576  53.283  1.00  0.00     0.028 C 
HETATM   34  C   UNL     1       2.938  31.521  52.972  1.00  0.00     0.003 C 
HETATM   35  C   UNL     1       2.794  32.584  54.054  1.00  0.00     0.028 C 
HETATM   36  C   UNL     1       2.671  31.965  55.439  1.00  0.00     0.235 C 
ENDBRANCH  29  30
ENDBRANCH   5  29
TORSDOF 8
ENDMDL
MODEL 6
REMARK VINA RESULT:      -8.7      3.047      5.758
REMARK  8 active torsions:
REMARK  status: ('A' for Active; 'I' for Inactive)
REMARK    1  A    between atoms: C_5  and  C_6 
REMARK    2  A    between atoms: N_7  and  N_8 
REMARK       I    between atoms: N_8  and  C_9 
REMARK    3  A    between atoms: C_9  and  C_10 
REMARK    4  A    between atoms: N_11  and  C_12 
REMARK    5  A    between atoms: C_16  and  N_17 
REMARK    6  A    between atoms: C_20  and  C_21 
REMARK    7  A    between atoms: C_21  and  N_22 
REMARK    8  A    between atoms: C_30  and  O_31 
ROOT
HETATM    1  C   UNL     1       5.853  29.399  56.555  1.00  0.00     0.159 A 
HETATM    2  N   UNL     1       6.351  30.432  57.355  1.00  0.00    -0.184 N 
HETATM    3  N   UNL     1       5.726  31.592  56.997  1.00  0.00    -0.058 NA
HETATM    4  N   UNL     1       4.831  31.348  56.061  1.00  0.00    -0.132 NA
HETATM    5  C   UNL     1       4.887  30.026  55.765  1.00  0.00     0.118 A 
ENDROOT
BRANCH   1   6
HETATM    6  C   UNL     1       6.151  27.987  56.484  1.00  0.00     0.292 C 
HETATM    7  N   UNL     1       7.313  27.570  55.868  1.00  0.00    -0.242 N 
HETATM    8  H   UNL     1       8.042  28.226  55.593  1.00  0.00     0.192 HD
HETATM    9  O   UNL     1       5.327  27.183  56.932  1.00  0.00    -0.264 OA
BRANCH   7  10
HETATM   10  N   UNL     1       7.571  26.234  55.758  1.00  0.00    -0.183 NA
HETATM   11  C   UNL     1       7.456  25.740  54.563  1.00  0.00     0.153 C 
BRANCH  11  12
HETATM   12  C   UNL     1       7.703  24.308  54.303  1.00  0.00     0.017 A 
HETATM   13  C   UNL     1       7.832  23.455  55.404  1.00  0.00     0.034 A 
HETATM   14  C   UNL     1       8.071  22.096  55.192  1.00  0.00     0.012 A 
HETATM   15  C   UNL     1       8.180  21.583  53.900  1.00  0.00     0.022 A 
HETATM   16 BR   UNL     1       8.247  20.940  56.677  1.00  0.00    -0.051 Br
HETATM   17  C   UNL     1       8.050  22.437  52.803  1.00  0.00     0.039 A 
HETATM   18  C   UNL     1       7.812  23.795  53.003  1.00  0.00     0.077 A 
BRANCH  18  19
HETATM   19  O   UNL     1       7.697  24.567  51.880  1.00  0.00    -0.360 OA
HETATM   20  H   UNL     1       7.879  25.496  52.137  1.00  0.00     0.217 HD
ENDBRANCH  18  19
ENDBRANCH  11  12
ENDBRANCH   7  10
ENDBRANCH   1   6
BRANCH   2  21
HETATM   21  C   UNL     1       7.296  30.428  58.412  1.00  0.00     0.230 A 
HETATM   22  N   UNL     1       8.419  29.716  58.322  1.00  0.00    -0.081 NA
HETATM   23  O   UNL     1       9.061  29.938  59.541  1.00  0.00    -0.103 OA
HETATM   24  N   UNL     1       8.330  30.802  60.340  1.00  0.00    -0.083 NA
HETATM   25  C   UNL     1       7.235  31.103  59.646  1.00  0.00     0.201 A 
BRANCH  25  26
HETATM   26  N   UNL     1       6.268  31.927  60.079  1.00  0.00    -0.379 N 
HETATM   27  H   UNL     1       5.394  32.009  59.566  1.00  0.00     0.158 HD
HETATM   28  H   UNL     1       6.391  32.602  60.830  1.00  0.00     0.158 HD
ENDBRANCH  25  26
ENDBRANCH   2  21
BRANCH   5  29
HETATM   29  C   UNL     1       3.998  29.476  54.692  1.00  0.00     0.298 C 
BRANCH  29  30
HETATM   30  N   UNL     1       4.694  28.952  53.453  1.00  0.00    -0.066 N 
HETATM   31  H   UNL     1       5.707  28.966  53.701  1.00  0.00     0.280 HD
HETATM   32  C   UNL     1       4.323  27.534  53.115  1.00  0.00     0.235 C 
HETATM   33  C   UNL     1       5.185  27.046  51.958  1.00  0.00     0.028 C 
HETATM   34  C   UNL     1       5.077  27.966  50.746  1.00  0.00     0.003 C 
HETATM   35  C   UNL     1       5.392  29.408  51.124  1.00  0.00     0.028 C 
HETATM   36  C   UNL     1       4.533  29.888  52.285  1.00  0.00     0.235 C 
ENDBRANCH  29  30
ENDBRANCH   5  29
TORSDOF 8
ENDMDL
MODEL 7
REMARK VINA RESULT:      -8.6      3.775      7.565
REMARK  8 active torsions:
REMARK  status: ('A' for Active; 'I' for Inactive)
REMARK    1  A    between atoms: C_5  and  C_6 
REMARK    2  A    between atoms: N_7  and  N_8 
REMARK       I    between atoms: N_8  and  C_9 
REMARK    3  A    between atoms: C_9  and  C_10 
REMARK    4  A    between atoms: N_11  and  C_12 
REMARK    5  A    between atoms: C_16  and  N_17 
REMARK    6  A    between atoms: C_20  and  C_21 
REMARK    7  A    between atoms: C_21  and  N_22 
REMARK    8  A    between atoms: C_30  and  O_31 
ROOT
HETATM    1  C   UNL     1       5.265  27.243  53.271  1.00  0.00     0.159 A 
HETATM    2  N   UNL     1       5.221  27.280  51.873  1.00  0.00    -0.184 N 
HETATM    3  N   UNL     1       5.311  25.999  51.408  1.00  0.00    -0.058 NA
HETATM    4  N   UNL     1       5.355  25.156  52.420  1.00  0.00    -0.132 NA
HETATM    5  C   UNL     1       5.336  25.880  53.567  1.00  0.00     0.118 A 
ENDROOT
BRANCH   1   6
HETATM    6  C   UNL     1       5.222  28.280  54.277  1.00  0.00     0.292 C 
HETATM    7  N   UNL     1       6.402  28.761  54.805  1.00  0.00    -0.242 N 
HETATM    8  H   UNL     1       7.307  28.520  54.407  1.00  0.00     0.192 HD
HETATM    9  O   UNL     1       4.121  28.671  54.678  1.00  0.00    -0.264 OA
BRANCH   7  10
HETATM   10  N   UNL     1       6.360  29.705  55.790  1.00  0.00    -0.183 NA
HETATM   11  C   UNL     1       7.022  29.416  56.868  1.00  0.00     0.153 C 
BRANCH  11  12
HETATM   12  C   UNL     1       7.058  30.348  58.013  1.00  0.00     0.017 A 
HETATM   13  C   UNL     1       7.996  30.108  59.023  1.00  0.00     0.034 A 
HETATM   14  C   UNL     1       8.053  30.967  60.122  1.00  0.00     0.012 A 
HETATM   15  C   UNL     1       7.189  32.057  60.221  1.00  0.00     0.022 A 
HETATM   16 BR   UNL     1       9.317  30.646  61.490  1.00  0.00    -0.051 Br
HETATM   17  C   UNL     1       6.255  32.295  59.211  1.00  0.00     0.039 A 
HETATM   18  C   UNL     1       6.189  31.444  58.111  1.00  0.00     0.077 A 
BRANCH  18  19
HETATM   19  O   UNL     1       5.249  31.741  57.163  1.00  0.00    -0.360 OA
HETATM   20  H   UNL     1       4.666  30.957  57.065  1.00  0.00     0.217 HD
ENDBRANCH  18  19
ENDBRANCH  11  12
ENDBRANCH   7  10
ENDBRANCH   1   6
BRANCH   2  21
HETATM   21  C   UNL     1       5.071  28.358  50.967  1.00  0.00     0.230 A 
HETATM   22  N   UNL     1       5.878  29.418  51.024  1.00  0.00    -0.081 NA
HETATM   23  O   UNL     1       5.408  30.260  50.015  1.00  0.00    -0.103 OA
HETATM   24  N   UNL     1       4.341  29.686  49.344  1.00  0.00    -0.083 NA
HETATM   25  C   UNL     1       4.127  28.511  49.934  1.00  0.00     0.201 A 
BRANCH  25  26
HETATM   26  N   UNL     1       3.172  27.643  49.565  1.00  0.00    -0.379 N 
HETATM   27  H   UNL     1       3.250  27.134  48.689  1.00  0.00     0.158 HD
HETATM   28  H   UNL     1       2.279  27.545  50.041  1.00  0.00     0.158 HD
ENDBRANCH  25  26
ENDBRANCH   2  21
BRANCH   5  29
HETATM   29  C   UNL     1       5.421  25.172  54.884  1.00  0.00     0.298 C 
BRANCH  29  30
HETATM   30  N   UNL     1       6.795  25.102  55.515  1.00  0.00    -0.066 N 
HETATM   31  H   UNL     1       7.402  25.659  54.876  1.00  0.00     0.280 HD
HETATM   32  C   UNL     1       6.859  25.737  56.878  1.00  0.00     0.235 C 
HETATM   33  C   UNL     1       8.303  25.758  57.361  1.00  0.00     0.028 C 
HETATM   34  C   UNL     1       8.922  24.365  57.354  1.00  0.00     0.003 C 
HETATM   35  C   UNL     1       8.789  23.713  55.983  1.00  0.00     0.028 C 
HETATM   36  C   UNL     1       7.344  23.701  55.503  1.00  0.00     0.235 C 
ENDBRANCH  29  30
ENDBRANCH   5  29
TORSDOF 8
ENDMDL
MODEL 8
REMARK VINA RESULT:      -8.4      1.721      2.155
REMARK  8 active torsions:
REMARK  status: ('A' for Active; 'I' for Inactive)
REMARK    1  A    between atoms: C_5  and  C_6 
REMARK    2  A    between atoms: N_7  and  N_8 
REMARK       I    between atoms: N_8  and  C_9 
REMARK    3  A    between atoms: C_9  and  C_10 
REMARK    4  A    between atoms: N_11  and  C_12 
REMARK    5  A    between atoms: C_16  and  N_17 
REMARK    6  A    between atoms: C_20  and  C_21 
REMARK    7  A    between atoms: C_21  and  N_22 
REMARK    8  A    between atoms: C_30  and  O_31 
ROOT
HETATM    1  C   UNL     1       7.525  27.154  55.798  1.00  0.00     0.159 A 
HETATM    2  N   UNL     1       8.206  27.807  56.831  1.00  0.00    -0.184 N 
HETATM    3  N   UNL     1       8.003  27.107  57.986  1.00  0.00    -0.058 NA
HETATM    4  N   UNL     1       7.284  26.031  57.740  1.00  0.00    -0.132 NA
HETATM    5  C   UNL     1       6.971  26.033  56.420  1.00  0.00     0.118 A 
ENDROOT
BRANCH   1   6
HETATM    6  C   UNL     1       7.378  27.443  54.390  1.00  0.00     0.292 C 
HETATM    7  N   UNL     1       6.213  28.026  53.935  1.00  0.00    -0.242 N 
HETATM    8  H   UNL     1       5.513  28.397  54.574  1.00  0.00     0.192 HD
HETATM    9  O   UNL     1       8.283  27.109  53.619  1.00  0.00    -0.264 OA
BRANCH   7  10
HETATM   10  N   UNL     1       6.054  28.254  52.599  1.00  0.00    -0.183 NA
HETATM   11  C   UNL     1       5.272  29.242  52.291  1.00  0.00     0.153 C 
BRANCH  11  12
HETATM   12  C   UNL     1       5.009  29.596  50.882  1.00  0.00     0.017 A 
HETATM   13  C   UNL     1       5.509  30.814  50.409  1.00  0.00     0.034 A 
HETATM   14  C   UNL     1       5.274  31.180  49.082  1.00  0.00     0.012 A 
HETATM   15  C   UNL     1       4.552  30.347  48.228  1.00  0.00     0.022 A 
HETATM   16 BR   UNL     1       5.945  32.827  48.439  1.00  0.00    -0.051 Br
HETATM   17  C   UNL     1       4.056  29.132  48.702  1.00  0.00     0.039 A 
HETATM   18  C   UNL     1       4.284  28.756  50.025  1.00  0.00     0.077 A 
BRANCH  18  19
HETATM   19  O   UNL     1       3.767  27.552  50.416  1.00  0.00    -0.360 OA
HETATM   20  H   UNL     1       3.164  27.242  49.706  1.00  0.00     0.217 HD
ENDBRANCH  18  19
ENDBRANCH  11  12
ENDBRANCH   7  10
ENDBRANCH   1   6
BRANCH   2  21
HETATM   21  C   UNL     1       9.029  28.960  56.831  1.00  0.00     0.230 A 
HETATM   22  N   UNL     1       9.809  29.243  55.787  1.00  0.00    -0.081 NA
HETATM   23  O   UNL     1      10.474  30.410  56.166  1.00  0.00    -0.103 OA
HETATM   24  N   UNL     1      10.068  30.831  57.422  1.00  0.00    -0.083 NA
HETATM   25  C   UNL     1       9.178  29.932  57.838  1.00  0.00     0.201 A 
BRANCH  25  26
HETATM   26  N   UNL     1       8.540  29.989  59.018  1.00  0.00    -0.379 N 
HETATM   27  H   UNL     1       8.700  29.276  59.724  1.00  0.00     0.158 HD
HETATM   28  H   UNL     1       7.781  30.635  59.223  1.00  0.00     0.158 HD
ENDBRANCH  25  26
ENDBRANCH   2  21
BRANCH   5  29
HETATM   29  C   UNL     1       6.114  24.936  55.867  1.00  0.00     0.298 C 
BRANCH  29  30
HETATM   30  N   UNL     1       6.845  23.791  55.199  1.00  0.00    -0.066 N 
HETATM   31  H   UNL     1       6.290  22.945  55.453  1.00  0.00     0.280 HD
HETATM   32  C   UNL     1       6.868  23.891  53.698  1.00  0.00     0.235 C 
HETATM   33  C   UNL     1       7.482  22.626  53.114  1.00  0.00     0.028 C 
HETATM   34  C   UNL     1       8.869  22.355  53.686  1.00  0.00     0.003 C 
HETATM   35  C   UNL     1       8.837  22.322  55.209  1.00  0.00     0.028 C 
HETATM   36  C   UNL     1       8.216  23.586  55.787  1.00  0.00     0.235 C 
ENDBRANCH  29  30
ENDBRANCH   5  29
TORSDOF 8
ENDMDL
MODEL 9
REMARK VINA RESULT:      -8.4      2.396      5.878
REMARK  8 active torsions:
REMARK  status: ('A' for Active; 'I' for Inactive)
REMARK    1  A    between atoms: C_5  and  C_6 
REMARK    2  A    between atoms: N_7  and  N_8 
REMARK       I    between atoms: N_8  and  C_9 
REMARK    3  A    between atoms: C_9  and  C_10 
REMARK    4  A    between atoms: N_11  and  C_12 
REMARK    5  A    between atoms: C_16  and  N_17 
REMARK    6  A    between atoms: C_20  and  C_21 
REMARK    7  A    between atoms: C_21  and  N_22 
REMARK    8  A    between atoms: C_30  and  O_31 
ROOT
HETATM    1  C   UNL     1       6.928  27.476  56.114  1.00  0.00     0.159 A 
HETATM    2  N   UNL     1       7.438  26.244  56.533  1.00  0.00    -0.184 N 
HETATM    3  N   UNL     1       8.046  26.420  57.742  1.00  0.00    -0.058 NA
HETATM    4  N   UNL     1       7.907  27.670  58.136  1.00  0.00    -0.132 NA
HETATM    5  C   UNL     1       7.237  28.341  57.166  1.00  0.00     0.118 A 
ENDROOT
BRANCH   1   6
HETATM    6  C   UNL     1       6.210  27.884  54.928  1.00  0.00     0.292 C 
HETATM    7  N   UNL     1       6.871  27.936  53.719  1.00  0.00    -0.242 N 
HETATM    8  H   UNL     1       7.808  27.554  53.602  1.00  0.00     0.192 HD
HETATM    9  O   UNL     1       5.029  28.230  55.039  1.00  0.00    -0.264 OA
BRANCH   7  10
HETATM   10  N   UNL     1       6.207  28.368  52.608  1.00  0.00    -0.183 NA
HETATM   11  C   UNL     1       5.931  27.452  51.731  1.00  0.00     0.153 C 
BRANCH  11  12
HETATM   12  C   UNL     1       5.218  27.783  50.481  1.00  0.00     0.017 A 
HETATM   13  C   UNL     1       5.324  29.089  49.993  1.00  0.00     0.034 A 
HETATM   14  C   UNL     1       4.658  29.435  48.816  1.00  0.00     0.012 A 
HETATM   15  C   UNL     1       3.893  28.496  48.125  1.00  0.00     0.022 A 
HETATM   16 BR   UNL     1       4.798  31.200  48.152  1.00  0.00    -0.051 Br
HETATM   17  C   UNL     1       3.790  27.193  48.615  1.00  0.00     0.039 A 
HETATM   18  C   UNL     1       4.450  26.837  49.789  1.00  0.00     0.077 A 
BRANCH  18  19
HETATM   19  O   UNL     1       4.300  25.542  50.205  1.00  0.00    -0.360 OA
HETATM   20  H   UNL     1       4.102  24.996  49.414  1.00  0.00     0.217 HD
ENDBRANCH  18  19
ENDBRANCH  11  12
ENDBRANCH   7  10
ENDBRANCH   1   6
BRANCH   2  21
HETATM   21  C   UNL     1       7.379  24.955  55.946  1.00  0.00     0.230 A 
HETATM   22  N   UNL     1       6.889  24.784  54.718  1.00  0.00    -0.081 NA
HETATM   23  O   UNL     1       6.968  23.407  54.508  1.00  0.00    -0.103 OA
HETATM   24  N   UNL     1       7.529  22.767  55.601  1.00  0.00    -0.083 NA
HETATM   25  C   UNL     1       7.780  23.722  56.495  1.00  0.00     0.201 A 
BRANCH  25  26
HETATM   26  N   UNL     1       8.336  23.505  57.697  1.00  0.00    -0.379 N 
HETATM   27  H   UNL     1       7.869  23.820  58.544  1.00  0.00     0.158 HD
HETATM   28  H   UNL     1       9.283  23.160  57.831  1.00  0.00     0.158 HD
ENDBRANCH  25  26
ENDBRANCH   2  21
BRANCH   5  29
HETATM   29  C   UNL     1       6.976  29.806  57.334  1.00  0.00     0.298 C 
BRANCH  29  30
HETATM   30  N   UNL     1       7.544  30.446  58.583  1.00  0.00    -0.066 N 
HETATM   31  H   UNL     1       7.456  29.708  59.314  1.00  0.00     0.280 HD
HETATM   32  C   UNL     1       9.000  30.802  58.462  1.00  0.00     0.235 C 
HETATM   33  C   UNL     1       9.517  31.290  59.808  1.00  0.00     0.028 C 
HETATM   34  C   UNL     1       8.691  32.455  60.343  1.00  0.00     0.003 C 
HETATM   35  C   UNL     1       7.211  32.097  60.395  1.00  0.00     0.028 C 
HETATM   36  C   UNL     1       6.701  31.604  59.048  1.00  0.00     0.235 C 
ENDBRANCH  29  30
ENDBRANCH   5  29
TORSDOF 8
ENDMDL
MODEL 10
REMARK VINA RESULT:      -8.4      3.691      7.260
REMARK  8 active torsions:
REMARK  status: ('A' for Active; 'I' for Inactive)
REMARK    1  A    between atoms: C_5  and  C_6 
REMARK    2  A    between atoms: N_7  and  N_8 
REMARK       I    between atoms: N_8  and  C_9 
REMARK    3  A    between atoms: C_9  and  C_10 
REMARK    4  A    between atoms: N_11  and  C_12 
REMARK    5  A    between atoms: C_16  and  N_17 
REMARK    6  A    between atoms: C_20  and  C_21 
REMARK    7  A    between atoms: C_21  and  N_22 
REMARK    8  A    between atoms: C_30  and  O_31 
ROOT
HETATM    1  C   UNL     1       6.112  26.477  53.350  1.00  0.00     0.159 A 
HETATM    2  N   UNL     1       5.306  26.517  52.207  1.00  0.00    -0.184 N 
HETATM    3  N   UNL     1       5.159  25.241  51.743  1.00  0.00    -0.058 NA
HETATM    4  N   UNL     1       5.775  24.397  52.545  1.00  0.00    -0.132 NA
HETATM    5  C   UNL     1       6.371  25.117  53.529  1.00  0.00     0.118 A 
ENDROOT
BRANCH   1   6
HETATM    6  C   UNL     1       6.602  27.509  54.235  1.00  0.00     0.292 C 
HETATM    7  N   UNL     1       5.719  28.159  55.073  1.00  0.00    -0.242 N 
HETATM    8  H   UNL     1       4.761  27.837  55.199  1.00  0.00     0.192 HD
HETATM    9  O   UNL     1       7.796  27.820  54.180  1.00  0.00    -0.264 OA
BRANCH   7  10
HETATM   10  N   UNL     1       6.172  29.166  55.874  1.00  0.00    -0.183 NA
HETATM   11  C   UNL     1       5.465  29.395  56.937  1.00  0.00     0.153 C 
BRANCH  11  12
HETATM   12  C   UNL     1       5.841  30.460  57.889  1.00  0.00     0.017 A 
HETATM   13  C   UNL     1       7.186  30.563  58.258  1.00  0.00     0.034 A 
HETATM   14  C   UNL     1       7.574  31.556  59.159  1.00  0.00     0.012 A 
HETATM   15  C   UNL     1       6.638  32.442  59.692  1.00  0.00     0.022 A 
HETATM   16 BR   UNL     1       9.391  31.698  59.662  1.00  0.00    -0.051 Br
HETATM   17  C   UNL     1       5.297  32.338  59.321  1.00  0.00     0.039 A 
HETATM   18  C   UNL     1       4.899  31.350  58.422  1.00  0.00     0.077 A 
BRANCH  18  19
HETATM   19  O   UNL     1       3.568  31.310  58.107  1.00  0.00    -0.360 OA
HETATM   20  H   UNL     1       3.117  30.763  58.786  1.00  0.00     0.217 HD
ENDBRANCH  18  19
ENDBRANCH  11  12
ENDBRANCH   7  10
ENDBRANCH   1   6
BRANCH   2  21
HETATM   21  C   UNL     1       4.653  27.592  51.556  1.00  0.00     0.230 A 
HETATM   22  N   UNL     1       3.902  28.454  52.242  1.00  0.00    -0.081 NA
HETATM   23  O   UNL     1       3.415  29.330  51.272  1.00  0.00    -0.103 OA
HETATM   24  N   UNL     1       3.899  29.002  50.015  1.00  0.00    -0.083 NA
HETATM   25  C   UNL     1       4.661  27.924  50.187  1.00  0.00     0.201 A 
BRANCH  25  26
HETATM   26  N   UNL     1       5.321  27.299  49.199  1.00  0.00    -0.379 N 
HETATM   27  H   UNL     1       4.913  27.232  48.271  1.00  0.00     0.158 HD
HETATM   28  H   UNL     1       6.166  26.750  49.340  1.00  0.00     0.158 HD
ENDBRANCH  25  26
ENDBRANCH   2  21
BRANCH   5  29
HETATM   29  C   UNL     1       7.185  24.408  54.567  1.00  0.00     0.298 C 
BRANCH  29  30
HETATM   30  N   UNL     1       7.315  22.908  54.403  1.00  0.00    -0.066 N 
HETATM   31  H   UNL     1       6.355  22.592  54.146  1.00  0.00     0.280 HD
HETATM   32  C   UNL     1       8.244  22.507  53.290  1.00  0.00     0.235 C 
HETATM   33  C   UNL     1       8.188  20.997  53.101  1.00  0.00     0.028 C 
HETATM   34  C   UNL     1       8.498  20.254  54.395  1.00  0.00     0.003 C 
HETATM   35  C   UNL     1       7.590  20.721  55.526  1.00  0.00     0.028 C 
HETATM   36  C   UNL     1       7.646  22.232  55.707  1.00  0.00     0.235 C 
ENDBRANCH  29  30
ENDBRANCH   5  29
TORSDOF 8
ENDMDL
