MODEL 1
REMARK VINA RESULT:      -9.4      0.000      0.000
REMARK  7 active torsions:
REMARK  status: ('A' for Active; 'I' for Inactive)
REMARK    1  A    between atoms: C_7  and  C_8 
REMARK    2  A    between atoms: C_8  and  N_9 
REMARK       I    between atoms: N_9  and  C_10 
REMARK       I    between atoms: C_10  and  N_11 
REMARK    3  A    between atoms: N_11  and  C_12 
REMARK    4  A    between atoms: C_12  and  C_13 
REMARK    5  A    between atoms: C_13  and  C_14 
REMARK    6  A    between atoms: C_14  and  O_15 
REMARK    7  A    between atoms: C_14  and  C_16 
ROOT
HETATM    1  N   UNL     1       7.131  26.837  55.743  1.00  0.00    -0.337 N 
HETATM    2  C   UNL     1       7.855  27.291  56.820  1.00  0.00     0.316 C 
HETATM    3  N   UNL     1       8.517  28.443  56.506  1.00  0.00    -0.339 N 
HETATM    4  O   UNL     1       7.886  26.713  57.901  1.00  0.00    -0.247 OA
HETATM    5  H   UNL     1       6.868  27.587  55.117  1.00  0.00     0.164 HD
HETATM    6  H   UNL     1       8.812  28.473  55.538  1.00  0.00     0.164 HD
ENDROOT
BRANCH   1   7
HETATM    7  C   UNL     1       6.166  25.763  55.882  1.00  0.00     0.183 C 
BRANCH   7   8
HETATM    8  C   UNL     1       6.738  24.457  55.470  1.00  0.00     0.044 A 
HETATM    9  N   UNL     1       6.856  24.081  54.140  1.00  0.00    -0.343 N 
HETATM   10  C   UNL     1       7.412  22.885  54.027  1.00  0.00     0.112 A 
HETATM   11  H   UNL     1       6.478  24.649  53.373  1.00  0.00     0.167 HD
HETATM   12  N   UNL     1       7.669  22.435  55.271  1.00  0.00    -0.311 N 
HETATM   13  C   UNL     1       7.742  22.088  52.824  1.00  0.00     0.049 A 
HETATM   14  C   UNL     1       8.249  21.191  55.512  1.00  0.00     0.014 A 
HETATM   15  C   UNL     1       7.255  23.398  56.184  1.00  0.00     0.125 A 
HETATM   16  C   UNL     1       8.500  20.711  56.909  1.00  0.00     0.068 C 
HETATM   17  C   UNL     1       8.557  20.454  54.420  1.00  0.00     0.025 A 
HETATM   18  C   UNL     1       8.313  20.893  53.050  1.00  0.00     0.006 A 
ENDBRANCH   7   8
ENDBRANCH   1   7
BRANCH   3  19
HETATM   19  C   UNL     1       9.453  29.127  57.400  1.00  0.00     0.085 C 
HETATM   20  C   UNL     1      10.757  29.525  56.702  1.00  0.00     0.032 C 
BRANCH  19  21
HETATM   21  C   UNL     1       8.815  30.334  58.111  1.00  0.00     0.063 C 
BRANCH  21  22
HETATM   22  C   UNL     1       9.742  31.092  59.072  1.00  0.00     0.177 C 
BRANCH  22  23
HETATM   23  O   UNL     1      10.144  32.341  58.498  1.00  0.00    -0.389 OA
HETATM   24  H   UNL     1      10.630  32.807  59.202  1.00  0.00     0.210 HD
ENDBRANCH  22  23
BRANCH  22  25
HETATM   25  C   UNL     1       9.121  31.380  60.396  1.00  0.00     0.081 A 
HETATM   26  O   UNL     1       7.790  31.097  60.510  1.00  0.00    -0.324 OA
HETATM   27  C   UNL     1       7.413  31.438  61.769  1.00  0.00     0.142 A 
HETATM   28  C   UNL     1       8.484  31.932  62.474  1.00  0.00     0.027 A 
HETATM   29  C   UNL     1       9.589  31.894  61.590  1.00  0.00     0.037 A 
ENDBRANCH  22  25
ENDBRANCH  21  22
ENDBRANCH  19  21
ENDBRANCH   3  19
TORSDOF 7
ENDMDL
MODEL 2
REMARK VINA RESULT:      -8.9      2.878      9.164
REMARK  7 active torsions:
REMARK  status: ('A' for Active; 'I' for Inactive)
REMARK    1  A    between atoms: C_7  and  C_8 
REMARK    2  A    between atoms: C_8  and  N_9 
REMARK       I    between atoms: N_9  and  C_10 
REMARK       I    between atoms: C_10  and  N_11 
REMARK    3  A    between atoms: N_11  and  C_12 
REMARK    4  A    between atoms: C_12  and  C_13 
REMARK    5  A    between atoms: C_13  and  C_14 
REMARK    6  A    between atoms: C_14  and  O_15 
REMARK    7  A    between atoms: C_14  and  C_16 
ROOT
HETATM    1  N   UNL     1       5.214  28.122  55.744  1.00  0.00    -0.337 N 
HETATM    2  C   UNL     1       5.401  26.769  55.584  1.00  0.00     0.316 C 
HETATM    3  N   UNL     1       5.688  26.471  54.282  1.00  0.00    -0.339 N 
HETATM    4  O   UNL     1       5.309  25.964  56.504  1.00  0.00    -0.247 OA
HETATM    5  H   UNL     1       5.717  28.660  55.050  1.00  0.00     0.164 HD
HETATM    6  H   UNL     1       5.220  27.087  53.628  1.00  0.00     0.164 HD
ENDROOT
BRANCH   1   7
HETATM    7  C   UNL     1       5.122  28.719  57.062  1.00  0.00     0.183 C 
BRANCH   7   8
HETATM    8  C   UNL     1       6.389  29.388  57.450  1.00  0.00     0.044 A 
HETATM    9  N   UNL     1       6.449  30.352  58.445  1.00  0.00    -0.343 N 
HETATM   10  C   UNL     1       7.687  30.785  58.622  1.00  0.00     0.112 A 
HETATM   11  H   UNL     1       5.607  30.716  58.909  1.00  0.00     0.167 HD
HETATM   12  N   UNL     1       8.476  30.128  57.748  1.00  0.00    -0.311 N 
HETATM   13  C   UNL     1       8.230  31.790  59.563  1.00  0.00     0.049 A 
HETATM   14  C   UNL     1       9.849  30.357  57.662  1.00  0.00     0.014 A 
HETATM   15  C   UNL     1       7.687  29.256  57.008  1.00  0.00     0.125 A 
HETATM   16  C   UNL     1      10.694  29.626  56.663  1.00  0.00     0.068 C 
HETATM   17  C   UNL     1      10.357  31.272  58.519  1.00  0.00     0.025 A 
HETATM   18  C   UNL     1       9.555  32.005  59.492  1.00  0.00     0.006 A 
ENDBRANCH   7   8
ENDBRANCH   1   7
BRANCH   3  19
HETATM   19  C   UNL     1       5.843  25.113  53.761  1.00  0.00     0.085 C 
HETATM   20  C   UNL     1       5.037  24.872  52.481  1.00  0.00     0.032 C 
BRANCH  19  21
HETATM   21  C   UNL     1       7.319  24.720  53.567  1.00  0.00     0.063 C 
BRANCH  21  22
HETATM   22  C   UNL     1       7.893  23.782  54.640  1.00  0.00     0.177 C 
BRANCH  22  23
HETATM   23  O   UNL     1       7.025  23.735  55.778  1.00  0.00    -0.389 OA
HETATM   24  H   UNL     1       7.609  23.594  56.545  1.00  0.00     0.210 HD
ENDBRANCH  22  23
BRANCH  22  25
HETATM   25  C   UNL     1       8.095  22.385  54.164  1.00  0.00     0.081 A 
HETATM   26  O   UNL     1       8.574  21.499  55.085  1.00  0.00    -0.324 OA
HETATM   27  C   UNL     1       8.702  20.300  54.462  1.00  0.00     0.142 A 
HETATM   28  C   UNL     1       8.306  20.396  53.149  1.00  0.00     0.027 A 
HETATM   29  C   UNL     1       7.912  21.742  52.954  1.00  0.00     0.037 A 
ENDBRANCH  22  25
ENDBRANCH  21  22
ENDBRANCH  19  21
ENDBRANCH   3  19
TORSDOF 7
ENDMDL
MODEL 3
REMARK VINA RESULT:      -8.8      2.283      3.582
REMARK  7 active torsions:
REMARK  status: ('A' for Active; 'I' for Inactive)
REMARK    1  A    between atoms: C_7  and  C_8 
REMARK    2  A    between atoms: C_8  and  N_9 
REMARK       I    between atoms: N_9  and  C_10 
REMARK       I    between atoms: C_10  and  N_11 
REMARK    3  A    between atoms: N_11  and  C_12 
REMARK    4  A    between atoms: C_12  and  C_13 
REMARK    5  A    between atoms: C_13  and  C_14 
REMARK    6  A    between atoms: C_14  and  O_15 
REMARK    7  A    between atoms: C_14  and  C_16 
ROOT
HETATM    1  N   UNL     1       6.697  26.788  53.631  1.00  0.00    -0.337 N 
HETATM    2  C   UNL     1       7.172  27.854  54.359  1.00  0.00     0.316 C 
HETATM    3  N   UNL     1       6.202  28.345  55.186  1.00  0.00    -0.339 N 
HETATM    4  O   UNL     1       8.314  28.285  54.251  1.00  0.00    -0.247 OA
HETATM    5  H   UNL     1       5.945  26.307  54.107  1.00  0.00     0.164 HD
HETATM    6  H   UNL     1       5.274  28.263  54.791  1.00  0.00     0.164 HD
ENDROOT
BRANCH   1   7
HETATM    7  C   UNL     1       7.588  25.951  52.851  1.00  0.00     0.183 C 
BRANCH   7   8
HETATM    8  C   UNL     1       7.813  24.636  53.502  1.00  0.00     0.044 A 
HETATM    9  N   UNL     1       7.947  24.497  54.875  1.00  0.00    -0.343 N 
HETATM   10  C   UNL     1       8.119  23.229  55.216  1.00  0.00     0.112 A 
HETATM   11  H   UNL     1       7.983  25.305  55.509  1.00  0.00     0.167 HD
HETATM   12  N   UNL     1       8.111  22.499  54.082  1.00  0.00    -0.311 N 
HETATM   13  C   UNL     1       8.296  22.606  56.546  1.00  0.00     0.049 A 
HETATM   14  C   UNL     1       8.281  21.115  54.084  1.00  0.00     0.014 A 
HETATM   15  C   UNL     1       7.924  23.356  53.005  1.00  0.00     0.125 A 
HETATM   16  C   UNL     1       8.290  20.336  52.803  1.00  0.00     0.068 C 
HETATM   17  C   UNL     1       8.441  20.534  55.294  1.00  0.00     0.025 A 
HETATM   18  C   UNL     1       8.448  21.271  56.553  1.00  0.00     0.006 A 
ENDBRANCH   7   8
ENDBRANCH   1   7
BRANCH   3  19
HETATM   19  C   UNL     1       6.355  29.539  56.018  1.00  0.00     0.085 C 
HETATM   20  C   UNL     1       5.295  30.605  55.729  1.00  0.00     0.032 C 
BRANCH  19  21
HETATM   21  C   UNL     1       6.410  29.207  57.521  1.00  0.00     0.063 C 
BRANCH  21  22
HETATM   22  C   UNL     1       7.712  28.547  57.999  1.00  0.00     0.177 C 
BRANCH  22  23
HETATM   23  O   UNL     1       7.921  27.305  57.316  1.00  0.00    -0.389 OA
HETATM   24  H   UNL     1       8.549  26.807  57.870  1.00  0.00     0.210 HD
ENDBRANCH  22  23
BRANCH  22  25
HETATM   25  C   UNL     1       8.921  29.392  57.786  1.00  0.00     0.081 A 
HETATM   26  O   UNL     1       9.917  28.838  57.036  1.00  0.00    -0.324 OA
HETATM   27  C   UNL     1      10.925  29.746  56.971  1.00  0.00     0.142 A 
HETATM   28  C   UNL     1      10.590  30.884  57.666  1.00  0.00     0.027 A 
HETATM   29  C   UNL     1       9.296  30.659  58.192  1.00  0.00     0.037 A 
ENDBRANCH  22  25
ENDBRANCH  21  22
ENDBRANCH  19  21
ENDBRANCH   3  19
TORSDOF 7
ENDMDL
MODEL 4
REMARK VINA RESULT:      -8.7      2.517      4.598
REMARK  7 active torsions:
REMARK  status: ('A' for Active; 'I' for Inactive)
REMARK    1  A    between atoms: C_7  and  C_8 
REMARK    2  A    between atoms: C_8  and  N_9 
REMARK       I    between atoms: N_9  and  C_10 
REMARK       I    between atoms: C_10  and  N_11 
REMARK    3  A    between atoms: N_11  and  C_12 
REMARK    4  A    between atoms: C_12  and  C_13 
REMARK    5  A    between atoms: C_13  and  C_14 
REMARK    6  A    between atoms: C_14  and  O_15 
REMARK    7  A    between atoms: C_14  and  C_16 
ROOT
HETATM    1  N   UNL     1       7.391  29.484  58.700  1.00  0.00    -0.337 N 
HETATM    2  C   UNL     1       7.905  30.606  59.306  1.00  0.00     0.316 C 
HETATM    3  N   UNL     1       8.046  30.407  60.651  1.00  0.00    -0.339 N 
HETATM    4  O   UNL     1       8.182  31.633  58.696  1.00  0.00    -0.247 OA
HETATM    5  H   UNL     1       7.612  28.640  59.212  1.00  0.00     0.164 HD
HETATM    6  H   UNL     1       7.331  29.801  61.033  1.00  0.00     0.164 HD
ENDROOT
BRANCH   1   7
HETATM    7  C   UNL     1       7.358  29.357  57.256  1.00  0.00     0.183 C 
BRANCH   7   8
HETATM    8  C   UNL     1       7.414  27.936  56.830  1.00  0.00     0.044 A 
HETATM    9  N   UNL     1       8.271  27.016  57.416  1.00  0.00    -0.343 N 
HETATM   10  C   UNL     1       8.124  25.814  56.881  1.00  0.00     0.112 A 
HETATM   11  H   UNL     1       8.973  27.286  58.117  1.00  0.00     0.167 HD
HETATM   12  N   UNL     1       7.176  25.906  55.927  1.00  0.00    -0.311 N 
HETATM   13  C   UNL     1       8.807  24.536  57.184  1.00  0.00     0.049 A 
HETATM   14  C   UNL     1       6.783  24.813  55.156  1.00  0.00     0.014 A 
HETATM   15  C   UNL     1       6.723  27.219  55.879  1.00  0.00     0.125 A 
HETATM   16  C   UNL     1       5.742  24.955  54.087  1.00  0.00     0.068 C 
HETATM   17  C   UNL     1       7.398  23.640  55.425  1.00  0.00     0.025 A 
HETATM   18  C   UNL     1       8.422  23.477  56.452  1.00  0.00     0.006 A 
ENDBRANCH   7   8
ENDBRANCH   1   7
BRANCH   3  19
HETATM   19  C   UNL     1       8.473  31.439  61.596  1.00  0.00     0.085 C 
HETATM   20  C   UNL     1       9.885  31.958  61.311  1.00  0.00     0.032 C 
BRANCH  19  21
HETATM   21  C   UNL     1       7.467  32.601  61.697  1.00  0.00     0.063 C 
BRANCH  21  22
HETATM   22  C   UNL     1       6.188  32.292  62.489  1.00  0.00     0.177 C 
BRANCH  22  23
HETATM   23  O   UNL     1       6.036  30.878  62.661  1.00  0.00    -0.389 OA
HETATM   24  H   UNL     1       6.937  30.535  62.802  1.00  0.00     0.210 HD
ENDBRANCH  22  23
BRANCH  22  25
HETATM   25  C   UNL     1       6.157  32.920  63.840  1.00  0.00     0.081 A 
HETATM   26  O   UNL     1       4.926  33.051  64.415  1.00  0.00    -0.324 OA
HETATM   27  C   UNL     1       5.107  33.652  65.619  1.00  0.00     0.142 A 
HETATM   28  C   UNL     1       6.440  33.905  65.834  1.00  0.00     0.027 A 
HETATM   29  C   UNL     1       7.122  33.433  64.687  1.00  0.00     0.037 A 
ENDBRANCH  22  25
ENDBRANCH  21  22
ENDBRANCH  19  21
ENDBRANCH   3  19
TORSDOF 7
ENDMDL
MODEL 5
REMARK VINA RESULT:      -8.6      1.794      2.573
REMARK  7 active torsions:
REMARK  status: ('A' for Active; 'I' for Inactive)
REMARK    1  A    between atoms: C_7  and  C_8 
REMARK    2  A    between atoms: C_8  and  N_9 
REMARK       I    between atoms: N_9  and  C_10 
REMARK       I    between atoms: C_10  and  N_11 
REMARK    3  A    between atoms: N_11  and  C_12 
REMARK    4  A    between atoms: C_12  and  C_13 
REMARK    5  A    between atoms: C_13  and  C_14 
REMARK    6  A    between atoms: C_14  and  O_15 
REMARK    7  A    between atoms: C_14  and  C_16 
ROOT
HETATM    1  N   UNL     1       6.449  28.764  56.998  1.00  0.00    -0.337 N 
HETATM    2  C   UNL     1       7.558  28.788  57.811  1.00  0.00     0.316 C 
HETATM    3  N   UNL     1       8.049  30.058  57.920  1.00  0.00    -0.339 N 
HETATM    4  O   UNL     1       8.022  27.787  58.344  1.00  0.00    -0.247 OA
HETATM    5  H   UNL     1       5.962  29.651  56.991  1.00  0.00     0.164 HD
HETATM    6  H   UNL     1       7.920  30.601  57.075  1.00  0.00     0.164 HD
ENDROOT
BRANCH   1   7
HETATM    7  C   UNL     1       5.611  27.584  56.901  1.00  0.00     0.183 C 
BRANCH   7   8
HETATM    8  C   UNL     1       6.156  26.605  55.928  1.00  0.00     0.044 A 
HETATM    9  N   UNL     1       6.400  26.929  54.601  1.00  0.00    -0.343 N 
HETATM   10  C   UNL     1       6.902  25.899  53.939  1.00  0.00     0.112 A 
HETATM   11  H   UNL     1       6.138  27.838  54.201  1.00  0.00     0.167 HD
HETATM   12  N   UNL     1       6.996  24.867  54.802  1.00  0.00    -0.311 N 
HETATM   13  C   UNL     1       7.319  25.776  52.524  1.00  0.00     0.049 A 
HETATM   14  C   UNL     1       7.480  23.616  54.421  1.00  0.00     0.014 A 
HETATM   15  C   UNL     1       6.536  25.286  56.044  1.00  0.00     0.125 A 
HETATM   16  C   UNL     1       7.551  22.484  55.401  1.00  0.00     0.068 C 
HETATM   17  C   UNL     1       7.867  23.493  53.132  1.00  0.00     0.025 A 
HETATM   18  C   UNL     1       7.798  24.575  52.156  1.00  0.00     0.006 A 
ENDBRANCH   7   8
ENDBRANCH   1   7
BRANCH   3  19
HETATM   19  C   UNL     1       9.279  30.408  58.631  1.00  0.00     0.085 C 
HETATM   20  C   UNL     1      10.382  30.912  57.696  1.00  0.00     0.032 C 
BRANCH  19  21
HETATM   21  C   UNL     1       9.033  31.402  59.782  1.00  0.00     0.063 C 
BRANCH  21  22
HETATM   22  C   UNL     1       8.241  30.841  60.972  1.00  0.00     0.177 C 
BRANCH  22  23
HETATM   23  O   UNL     1       9.034  29.893  61.697  1.00  0.00    -0.389 OA
HETATM   24  H   UNL     1       9.960  30.148  61.532  1.00  0.00     0.210 HD
ENDBRANCH  22  23
BRANCH  22  25
HETATM   25  C   UNL     1       7.792  31.887  61.934  1.00  0.00     0.081 A 
HETATM   26  O   UNL     1       6.847  32.759  61.475  1.00  0.00    -0.324 OA
HETATM   27  C   UNL     1       6.584  33.633  62.481  1.00  0.00     0.142 A 
HETATM   28  C   UNL     1       7.342  33.333  63.588  1.00  0.00     0.027 A 
HETATM   29  C   UNL     1       8.122  32.205  63.238  1.00  0.00     0.037 A 
ENDBRANCH  22  25
ENDBRANCH  21  22
ENDBRANCH  19  21
ENDBRANCH   3  19
TORSDOF 7
ENDMDL
MODEL 6
REMARK VINA RESULT:      -8.5      6.440      9.444
REMARK  7 active torsions:
REMARK  status: ('A' for Active; 'I' for Inactive)
REMARK    1  A    between atoms: C_7  and  C_8 
REMARK    2  A    between atoms: C_8  and  N_9 
REMARK       I    between atoms: N_9  and  C_10 
REMARK       I    between atoms: C_10  and  N_11 
REMARK    3  A    between atoms: N_11  and  C_12 
REMARK    4  A    between atoms: C_12  and  C_13 
REMARK    5  A    between atoms: C_13  and  C_14 
REMARK    6  A    between atoms: C_14  and  O_15 
REMARK    7  A    between atoms: C_14  and  C_16 
ROOT
HETATM    1  N   UNL     1       6.303  25.702  52.194  1.00  0.00    -0.337 N 
HETATM    2  C   UNL     1       5.436  26.571  51.576  1.00  0.00     0.316 C 
HETATM    3  N   UNL     1       5.620  26.556  50.222  1.00  0.00    -0.339 N 
HETATM    4  O   UNL     1       4.624  27.258  52.185  1.00  0.00    -0.247 OA
HETATM    5  H   UNL     1       6.580  24.943  51.585  1.00  0.00     0.164 HD
HETATM    6  H   UNL     1       6.584  26.394  49.961  1.00  0.00     0.164 HD
ENDROOT
BRANCH   1   7
HETATM    7  C   UNL     1       6.159  25.365  53.597  1.00  0.00     0.183 C 
BRANCH   7   8
HETATM    8  C   UNL     1       6.800  24.065  53.917  1.00  0.00     0.044 A 
HETATM    9  N   UNL     1       7.157  23.149  52.938  1.00  0.00    -0.343 N 
HETATM   10  C   UNL     1       7.729  22.079  53.467  1.00  0.00     0.112 A 
HETATM   11  H   UNL     1       6.921  23.284  51.947  1.00  0.00     0.167 HD
HETATM   12  N   UNL     1       7.759  22.252  54.804  1.00  0.00    -0.311 N 
HETATM   13  C   UNL     1       8.273  20.862  52.824  1.00  0.00     0.049 A 
HETATM   14  C   UNL     1       8.290  21.297  55.670  1.00  0.00     0.014 A 
HETATM   15  C   UNL     1       7.184  23.481  55.104  1.00  0.00     0.125 A 
HETATM   16  C   UNL     1       8.287  21.511  57.153  1.00  0.00     0.068 C 
HETATM   17  C   UNL     1       8.792  20.182  55.093  1.00  0.00     0.025 A 
HETATM   18  C   UNL     1       8.797  19.944  53.654  1.00  0.00     0.006 A 
ENDBRANCH   7   8
ENDBRANCH   1   7
BRANCH   3  19
HETATM   19  C   UNL     1       4.925  27.440  49.285  1.00  0.00     0.085 C 
HETATM   20  C   UNL     1       5.551  28.835  49.210  1.00  0.00     0.032 C 
BRANCH  19  21
HETATM   21  C   UNL     1       4.786  26.820  47.882  1.00  0.00     0.063 C 
BRANCH  21  22
HETATM   22  C   UNL     1       3.418  26.191  47.578  1.00  0.00     0.177 C 
BRANCH  22  23
HETATM   23  O   UNL     1       2.934  25.473  48.718  1.00  0.00    -0.389 OA
HETATM   24  H   UNL     1       3.363  25.888  49.488  1.00  0.00     0.210 HD
ENDBRANCH  22  23
BRANCH  22  25
HETATM   25  C   UNL     1       2.378  27.185  47.190  1.00  0.00     0.081 A 
HETATM   26  O   UNL     1       1.144  26.681  46.898  1.00  0.00    -0.324 OA
HETATM   27  C   UNL     1       0.351  27.730  46.559  1.00  0.00     0.142 A 
HETATM   28  C   UNL     1       1.055  28.908  46.633  1.00  0.00     0.027 A 
HETATM   29  C   UNL     1       2.364  28.559  47.042  1.00  0.00     0.037 A 
ENDBRANCH  22  25
ENDBRANCH  21  22
ENDBRANCH  19  21
ENDBRANCH   3  19
TORSDOF 7
ENDMDL
MODEL 7
REMARK VINA RESULT:      -8.4      2.190      9.681
REMARK  7 active torsions:
REMARK  status: ('A' for Active; 'I' for Inactive)
REMARK    1  A    between atoms: C_7  and  C_8 
REMARK    2  A    between atoms: C_8  and  N_9 
REMARK       I    between atoms: N_9  and  C_10 
REMARK       I    between atoms: C_10  and  N_11 
REMARK    3  A    between atoms: N_11  and  C_12 
REMARK    4  A    between atoms: C_12  and  C_13 
REMARK    5  A    between atoms: C_13  and  C_14 
REMARK    6  A    between atoms: C_14  and  O_15 
REMARK    7  A    between atoms: C_14  and  C_16 
ROOT
HETATM    1  N   UNL     1       8.290  28.843  56.727  1.00  0.00    -0.337 N 
HETATM    2  C   UNL     1       8.061  27.498  56.899  1.00  0.00     0.316 C 
HETATM    3  N   UNL     1       7.276  27.009  55.893  1.00  0.00    -0.339 N 
HETATM    4  O   UNL     1       8.508  26.855  57.842  1.00  0.00    -0.247 OA
HETATM    5  H   UNL     1       8.235  29.117  55.755  1.00  0.00     0.164 HD
HETATM    6  H   UNL     1       6.604  27.687  55.557  1.00  0.00     0.164 HD
ENDROOT
BRANCH   1   7
HETATM    7  C   UNL     1       9.272  29.548  57.528  1.00  0.00     0.183 C 
BRANCH   7   8
HETATM    8  C   UNL     1       8.632  30.324  58.620  1.00  0.00     0.044 A 
HETATM    9  N   UNL     1       9.244  30.525  59.849  1.00  0.00    -0.343 N 
HETATM   10  C   UNL     1       8.488  31.263  60.647  1.00  0.00     0.112 A 
HETATM   11  H   UNL     1      10.135  30.078  60.099  1.00  0.00     0.167 HD
HETATM   12  N   UNL     1       7.358  31.562  59.975  1.00  0.00    -0.311 N 
HETATM   13  C   UNL     1       8.725  31.736  62.029  1.00  0.00     0.049 A 
HETATM   14  C   UNL     1       6.334  32.324  60.537  1.00  0.00     0.014 A 
HETATM   15  C   UNL     1       7.428  30.986  58.713  1.00  0.00     0.125 A 
HETATM   16  C   UNL     1       5.080  32.619  59.770  1.00  0.00     0.068 C 
HETATM   17  C   UNL     1       6.540  32.764  61.799  1.00  0.00     0.025 A 
HETATM   18  C   UNL     1       7.746  32.481  62.570  1.00  0.00     0.006 A 
ENDBRANCH   7   8
ENDBRANCH   1   7
BRANCH   3  19
HETATM   19  C   UNL     1       6.768  25.638  55.836  1.00  0.00     0.085 C 
HETATM   20  C   UNL     1       5.427  25.532  55.106  1.00  0.00     0.032 C 
BRANCH  19  21
HETATM   21  C   UNL     1       7.796  24.651  55.250  1.00  0.00     0.063 C 
BRANCH  21  22
HETATM   22  C   UNL     1       8.484  23.737  56.275  1.00  0.00     0.177 C 
BRANCH  22  23
HETATM   23  O   UNL     1       7.951  23.966  57.584  1.00  0.00    -0.389 OA
HETATM   24  H   UNL     1       7.410  24.772  57.508  1.00  0.00     0.210 HD
ENDBRANCH  22  23
BRANCH  22  25
HETATM   25  C   UNL     1       8.337  22.285  55.971  1.00  0.00     0.081 A 
HETATM   26  O   UNL     1       8.031  21.970  54.679  1.00  0.00    -0.324 OA
HETATM   27  C   UNL     1       7.927  20.618  54.609  1.00  0.00     0.142 A 
HETATM   28  C   UNL     1       8.167  20.053  55.839  1.00  0.00     0.027 A 
HETATM   29  C   UNL     1       8.434  21.129  56.720  1.00  0.00     0.037 A 
ENDBRANCH  22  25
ENDBRANCH  21  22
ENDBRANCH  19  21
ENDBRANCH   3  19
TORSDOF 7
ENDMDL
MODEL 8
REMARK VINA RESULT:      -8.3      7.305     10.273
REMARK  7 active torsions:
REMARK  status: ('A' for Active; 'I' for Inactive)
REMARK    1  A    between atoms: C_7  and  C_8 
REMARK    2  A    between atoms: C_8  and  N_9 
REMARK       I    between atoms: N_9  and  C_10 
REMARK       I    between atoms: C_10  and  N_11 
REMARK    3  A    between atoms: N_11  and  C_12 
REMARK    4  A    between atoms: C_12  and  C_13 
REMARK    5  A    between atoms: C_13  and  C_14 
REMARK    6  A    between atoms: C_14  and  O_15 
REMARK    7  A    between atoms: C_14  and  C_16 
ROOT
HETATM    1  N   UNL     1       4.798  25.831  51.505  1.00  0.00    -0.337 N 
HETATM    2  C   UNL     1       4.635  26.840  50.585  1.00  0.00     0.316 C 
HETATM    3  N   UNL     1       4.093  26.356  49.428  1.00  0.00    -0.339 N 
HETATM    4  O   UNL     1       4.949  28.004  50.802  1.00  0.00    -0.247 OA
HETATM    5  H   UNL     1       4.141  25.075  51.362  1.00  0.00     0.164 HD
HETATM    6  H   UNL     1       4.388  25.409  49.224  1.00  0.00     0.164 HD
ENDROOT
BRANCH   1   7
HETATM    7  C   UNL     1       5.141  26.117  52.884  1.00  0.00     0.183 C 
BRANCH   7   8
HETATM    8  C   UNL     1       6.117  25.136  53.421  1.00  0.00     0.044 A 
HETATM    9  N   UNL     1       6.477  23.988  52.729  1.00  0.00    -0.343 N 
HETATM   10  C   UNL     1       7.375  23.284  53.401  1.00  0.00     0.112 A 
HETATM   11  H   UNL     1       6.026  23.713  51.848  1.00  0.00     0.167 HD
HETATM   12  N   UNL     1       7.626  23.938  54.553  1.00  0.00    -0.311 N 
HETATM   13  C   UNL     1       8.049  22.011  53.061  1.00  0.00     0.049 A 
HETATM   14  C   UNL     1       8.525  23.458  55.504  1.00  0.00     0.014 A 
HETATM   15  C   UNL     1       6.852  25.092  54.585  1.00  0.00     0.125 A 
HETATM   16  C   UNL     1       8.764  24.199  56.785  1.00  0.00     0.068 C 
HETATM   17  C   UNL     1       9.149  22.297  55.204  1.00  0.00     0.025 A 
HETATM   18  C   UNL     1       8.925  21.551  53.970  1.00  0.00     0.006 A 
ENDBRANCH   7   8
ENDBRANCH   1   7
BRANCH   3  19
HETATM   19  C   UNL     1       3.885  27.153  48.218  1.00  0.00     0.085 C 
HETATM   20  C   UNL     1       5.184  27.415  47.450  1.00  0.00     0.032 C 
BRANCH  19  21
HETATM   21  C   UNL     1       2.808  26.554  47.295  1.00  0.00     0.063 C 
BRANCH  21  22
HETATM   22  C   UNL     1       1.358  26.818  47.725  1.00  0.00     0.177 C 
BRANCH  22  23
HETATM   23  O   UNL     1       1.322  27.395  49.035  1.00  0.00    -0.389 OA
HETATM   24  H   UNL     1       1.949  28.141  49.007  1.00  0.00     0.210 HD
ENDBRANCH  22  23
BRANCH  22  25
HETATM   25  C   UNL     1       0.620  27.730  46.805  1.00  0.00     0.081 A 
HETATM   26  O   UNL     1       0.844  29.066  46.977  1.00  0.00    -0.324 OA
HETATM   27  C   UNL     1       0.080  29.722  46.067  1.00  0.00     0.142 A 
HETATM   28  C   UNL     1      -0.631  28.827  45.303  1.00  0.00     0.027 A 
HETATM   29  C   UNL     1      -0.283  27.540  45.777  1.00  0.00     0.037 A 
ENDBRANCH  22  25
ENDBRANCH  21  22
ENDBRANCH  19  21
ENDBRANCH   3  19
TORSDOF 7
ENDMDL
MODEL 9
REMARK VINA RESULT:      -8.2      2.382      9.812
REMARK  7 active torsions:
REMARK  status: ('A' for Active; 'I' for Inactive)
REMARK    1  A    between atoms: C_7  and  C_8 
REMARK    2  A    between atoms: C_8  and  N_9 
REMARK       I    between atoms: N_9  and  C_10 
REMARK       I    between atoms: C_10  and  N_11 
REMARK    3  A    between atoms: N_11  and  C_12 
REMARK    4  A    between atoms: C_12  and  C_13 
REMARK    5  A    between atoms: C_13  and  C_14 
REMARK    6  A    between atoms: C_14  and  O_15 
REMARK    7  A    between atoms: C_14  and  C_16 
ROOT
HETATM    1  N   UNL     1       6.318  28.620  56.936  1.00  0.00    -0.337 N 
HETATM    2  C   UNL     1       7.324  27.754  56.577  1.00  0.00     0.316 C 
HETATM    3  N   UNL     1       6.850  26.476  56.484  1.00  0.00    -0.339 N 
HETATM    4  O   UNL     1       8.480  28.111  56.381  1.00  0.00    -0.247 OA
HETATM    5  H   UNL     1       5.407  28.285  56.653  1.00  0.00     0.164 HD
HETATM    6  H   UNL     1       6.111  26.284  57.149  1.00  0.00     0.164 HD
ENDROOT
BRANCH   1   7
HETATM    7  C   UNL     1       6.507  30.057  56.883  1.00  0.00     0.183 C 
BRANCH   7   8
HETATM    8  C   UNL     1       6.902  30.607  58.203  1.00  0.00     0.044 A 
HETATM    9  N   UNL     1       8.035  30.181  58.880  1.00  0.00    -0.343 N 
HETATM   10  C   UNL     1       8.186  30.831  60.023  1.00  0.00     0.112 A 
HETATM   11  H   UNL     1       8.615  29.401  58.544  1.00  0.00     0.167 HD
HETATM   12  N   UNL     1       7.159  31.697  60.137  1.00  0.00    -0.311 N 
HETATM   13  C   UNL     1       9.236  30.722  61.060  1.00  0.00     0.049 A 
HETATM   14  C   UNL     1       7.008  32.536  61.240  1.00  0.00     0.014 A 
HETATM   15  C   UNL     1       6.348  31.572  59.016  1.00  0.00     0.125 A 
HETATM   16  C   UNL     1       5.841  33.471  61.347  1.00  0.00     0.068 C 
HETATM   17  C   UNL     1       7.963  32.447  62.194  1.00  0.00     0.025 A 
HETATM   18  C   UNL     1       9.102  31.538  62.119  1.00  0.00     0.006 A 
ENDBRANCH   7   8
ENDBRANCH   1   7
BRANCH   3  19
HETATM   19  C   UNL     1       7.686  25.304  56.219  1.00  0.00     0.085 C 
HETATM   20  C   UNL     1       8.516  24.880  57.433  1.00  0.00     0.032 C 
BRANCH  19  21
HETATM   21  C   UNL     1       6.879  24.118  55.659  1.00  0.00     0.063 C 
BRANCH  21  22
HETATM   22  C   UNL     1       7.152  23.777  54.187  1.00  0.00     0.177 C 
BRANCH  22  23
HETATM   23  O   UNL     1       8.124  24.674  53.639  1.00  0.00    -0.389 OA
HETATM   24  H   UNL     1       8.409  24.268  52.800  1.00  0.00     0.210 HD
ENDBRANCH  22  23
BRANCH  22  25
HETATM   25  C   UNL     1       7.648  22.387  53.980  1.00  0.00     0.081 A 
HETATM   26  O   UNL     1       7.876  21.655  55.109  1.00  0.00    -0.324 OA
HETATM   27  C   UNL     1       8.332  20.439  54.715  1.00  0.00     0.142 A 
HETATM   28  C   UNL     1       8.396  20.371  53.344  1.00  0.00     0.027 A 
HETATM   29  C   UNL     1       7.953  21.628  52.866  1.00  0.00     0.037 A 
ENDBRANCH  22  25
ENDBRANCH  21  22
ENDBRANCH  19  21
ENDBRANCH   3  19
TORSDOF 7
ENDMDL
MODEL 10
REMARK VINA RESULT:      -8.2      4.324      7.476
REMARK  7 active torsions:
REMARK  status: ('A' for Active; 'I' for Inactive)
REMARK    1  A    between atoms: C_7  and  C_8 
REMARK    2  A    between atoms: C_8  and  N_9 
REMARK       I    between atoms: N_9  and  C_10 
REMARK       I    between atoms: C_10  and  N_11 
REMARK    3  A    between atoms: N_11  and  C_12 
REMARK    4  A    between atoms: C_12  and  C_13 
REMARK    5  A    between atoms: C_13  and  C_14 
REMARK    6  A    between atoms: C_14  and  O_15 
REMARK    7  A    between atoms: C_14  and  C_16 
ROOT
HETATM    1  N   UNL     1       7.198  27.152  55.273  1.00  0.00    -0.337 N 
HETATM    2  C   UNL     1       5.870  27.430  55.054  1.00  0.00     0.316 C 
HETATM    3  N   UNL     1       5.709  28.139  53.897  1.00  0.00    -0.339 N 
HETATM    4  O   UNL     1       4.976  27.082  55.816  1.00  0.00    -0.247 OA
HETATM    5  H   UNL     1       7.727  27.117  54.411  1.00  0.00     0.164 HD
HETATM    6  H   UNL     1       6.484  28.762  53.709  1.00  0.00     0.164 HD
ENDROOT
BRANCH   1   7
HETATM    7  C   UNL     1       7.613  26.223  56.307  1.00  0.00     0.183 C 
BRANCH   7   8
HETATM    8  C   UNL     1       7.745  24.842  55.781  1.00  0.00     0.044 A 
HETATM    9  N   UNL     1       7.670  24.549  54.427  1.00  0.00    -0.343 N 
HETATM   10  C   UNL     1       7.837  23.255  54.205  1.00  0.00     0.112 A 
HETATM   11  H   UNL     1       7.434  25.259  53.723  1.00  0.00     0.167 HD
HETATM   12  N   UNL     1       8.020  22.657  55.400  1.00  0.00    -0.311 N 
HETATM   13  C   UNL     1       7.845  22.489  52.939  1.00  0.00     0.049 A 
HETATM   14  C   UNL     1       8.216  21.283  55.526  1.00  0.00     0.014 A 
HETATM   15  C   UNL     1       7.965  23.628  56.393  1.00  0.00     0.125 A 
HETATM   16  C   UNL     1       8.393  20.647  56.872  1.00  0.00     0.068 C 
HETATM   17  C   UNL     1       8.227  20.573  54.375  1.00  0.00     0.025 A 
HETATM   18  C   UNL     1       8.046  21.165  53.054  1.00  0.00     0.006 A 
ENDBRANCH   7   8
ENDBRANCH   1   7
BRANCH   3  19
HETATM   19  C   UNL     1       4.430  28.676  53.430  1.00  0.00     0.085 C 
HETATM   20  C   UNL     1       4.235  30.149  53.802  1.00  0.00     0.032 C 
BRANCH  19  21
HETATM   21  C   UNL     1       4.211  28.453  51.922  1.00  0.00     0.063 C 
BRANCH  21  22
HETATM   22  C   UNL     1       4.990  27.276  51.315  1.00  0.00     0.177 C 
BRANCH  22  23
HETATM   23  O   UNL     1       4.572  26.042  51.909  1.00  0.00    -0.389 OA
HETATM   24  H   UNL     1       4.120  26.290  52.736  1.00  0.00     0.210 HD
ENDBRANCH  22  23
BRANCH  22  25
HETATM   25  C   UNL     1       4.824  27.150  49.840  1.00  0.00     0.081 A 
HETATM   26  O   UNL     1       5.404  28.127  49.084  1.00  0.00    -0.324 OA
HETATM   27  C   UNL     1       5.131  27.846  47.784  1.00  0.00     0.142 A 
HETATM   28  C   UNL     1       4.386  26.694  47.688  1.00  0.00     0.027 A 
HETATM   29  C   UNL     1       4.188  26.242  49.014  1.00  0.00     0.037 A 
ENDBRANCH  22  25
ENDBRANCH  21  22
ENDBRANCH  19  21
ENDBRANCH   3  19
TORSDOF 7
ENDMDL
