MODEL 1
REMARK VINA RESULT:      -9.3      0.000      0.000
REMARK  6 active torsions:
REMARK  status: ('A' for Active; 'I' for Inactive)
REMARK    1  A    between atoms: C_2  and  O_3 
REMARK    2  A    between atoms: C_2  and  C_4 
REMARK    3  A    between atoms: C_2  and  C_11 
REMARK    4  A    between atoms: C_11  and  N_12 
REMARK       I    between atoms: N_12  and  C_13 
REMARK    5  A    between atoms: C_13  and  C_14 
REMARK    6  A    between atoms: C_15  and  C_16 
ROOT
HETATM    1  N   UNL     1       7.288  24.900  57.258  1.00  0.00    -0.354 N 
HETATM    2  C   UNL     1       8.402  24.126  57.005  1.00  0.00     0.255 C 
HETATM    3  O   UNL     1       9.530  24.471  57.339  1.00  0.00    -0.268 OA
HETATM    4  H   UNL     1       6.396  24.616  56.884  1.00  0.00     0.162 HD
ENDROOT
BRANCH   2   5
HETATM    5  C   UNL     1       8.130  22.886  56.289  1.00  0.00     0.080 A 
HETATM    6  C   UNL     1       7.640  22.701  54.951  1.00  0.00     0.104 A 
HETATM    7  N   UNL     1       7.574  21.392  54.642  1.00  0.00    -0.174 NA
HETATM    8  N   UNL     1       7.993  20.760  55.739  1.00  0.00    -0.288 N 
HETATM    9  H   UNL     1       8.026  19.745  55.721  1.00  0.00     0.188 HD
HETATM   10  C   UNL     1       8.336  21.596  56.754  1.00  0.00     0.128 A 
BRANCH   6  11
HETATM   11  C   UNL     1       7.222  23.693  53.954  1.00  0.00    -0.004 A 
HETATM   12  C   UNL     1       8.061  23.983  52.864  1.00  0.00     0.017 A 
HETATM   13  C   UNL     1       7.675  24.908  51.892  1.00  0.00     0.043 A 
HETATM   14  C   UNL     1       6.444  25.543  52.005  1.00  0.00     0.116 A 
HETATM   15  F   UNL     1       6.072  26.431  51.074  1.00  0.00    -0.206 F 
HETATM   16  C   UNL     1       5.592  25.264  53.065  1.00  0.00     0.043 A 
HETATM   17  C   UNL     1       5.976  24.334  54.036  1.00  0.00     0.017 A 
ENDBRANCH   6  11
ENDBRANCH   2   5
BRANCH   1  18
HETATM   18  C   UNL     1       7.370  26.176  57.952  1.00  0.00     0.165 C 
BRANCH  18  19
HETATM   19  C   UNL     1       7.214  27.427  57.037  1.00  0.00     0.097 C 
HETATM   20  C   UNL     1       5.723  27.796  56.935  1.00  0.00     0.053 C 
BRANCH  19  21
HETATM   21  O   UNL     1       7.585  27.026  55.703  1.00  0.00    -0.384 OA
HETATM   22  H   UNL     1       8.043  26.170  55.772  1.00  0.00     0.211 HD
ENDBRANCH  19  21
BRANCH  19  23
HETATM   23  C   UNL     1       8.129  28.584  57.447  1.00  0.00    -0.023 A 
HETATM   24  C   UNL     1       7.843  29.446  58.520  1.00  0.00     0.013 A 
HETATM   25  C   UNL     1       8.704  30.498  58.848  1.00  0.00     0.043 A 
HETATM   26  C   UNL     1       9.861  30.698  58.109  1.00  0.00     0.116 A 
HETATM   27  F   UNL     1      10.681  31.709  58.424  1.00  0.00    -0.206 F 
HETATM   28  C   UNL     1      10.175  29.866  57.045  1.00  0.00     0.043 A 
HETATM   29  C   UNL     1       9.313  28.818  56.715  1.00  0.00     0.013 A 
ENDBRANCH  19  23
ENDBRANCH  18  19
ENDBRANCH   1  18
TORSDOF 6
ENDMDL
MODEL 2
REMARK VINA RESULT:      -9.2      3.198      8.453
REMARK  6 active torsions:
REMARK  status: ('A' for Active; 'I' for Inactive)
REMARK    1  A    between atoms: C_2  and  O_3 
REMARK    2  A    between atoms: C_2  and  C_4 
REMARK    3  A    between atoms: C_2  and  C_11 
REMARK    4  A    between atoms: C_11  and  N_12 
REMARK       I    between atoms: N_12  and  C_13 
REMARK    5  A    between atoms: C_13  and  C_14 
REMARK    6  A    between atoms: C_15  and  C_16 
ROOT
HETATM    1  N   UNL     1       8.526  27.447  56.874  1.00  0.00    -0.354 N 
HETATM    2  C   UNL     1       8.177  28.592  57.560  1.00  0.00     0.255 C 
HETATM    3  O   UNL     1       7.088  28.722  58.108  1.00  0.00    -0.268 OA
HETATM    4  H   UNL     1       9.396  27.424  56.365  1.00  0.00     0.162 HD
ENDROOT
BRANCH   2   5
HETATM    5  C   UNL     1       9.194  29.637  57.557  1.00  0.00     0.080 A 
HETATM    6  C   UNL     1       9.431  30.672  58.524  1.00  0.00     0.104 A 
HETATM    7  N   UNL     1      10.505  31.409  58.182  1.00  0.00    -0.174 NA
HETATM    8  N   UNL     1      10.935  30.878  57.037  1.00  0.00    -0.288 N 
HETATM    9  H   UNL     1      11.753  31.289  56.599  1.00  0.00     0.188 HD
HETATM   10  C   UNL     1      10.192  29.821  56.613  1.00  0.00     0.128 A 
BRANCH   6  11
HETATM   11  C   UNL     1       8.693  31.009  59.746  1.00  0.00    -0.004 A 
HETATM   12  C   UNL     1       9.182  30.588  60.995  1.00  0.00     0.017 A 
HETATM   13  C   UNL     1       8.507  30.914  62.173  1.00  0.00     0.043 A 
HETATM   14  C   UNL     1       7.342  31.667  62.106  1.00  0.00     0.116 A 
HETATM   15  F   UNL     1       6.693  31.981  63.235  1.00  0.00    -0.206 F 
HETATM   16  C   UNL     1       6.845  32.105  60.885  1.00  0.00     0.043 A 
HETATM   17  C   UNL     1       7.523  31.784  59.706  1.00  0.00     0.017 A 
ENDBRANCH   6  11
ENDBRANCH   2   5
BRANCH   1  18
HETATM   18  C   UNL     1       7.631  26.306  56.761  1.00  0.00     0.165 C 
BRANCH  18  19
HETATM   19  C   UNL     1       6.989  26.117  55.354  1.00  0.00     0.097 C 
HETATM   20  C   UNL     1       7.343  27.325  54.470  1.00  0.00     0.053 C 
BRANCH  19  21
HETATM   21  O   UNL     1       5.560  26.195  55.527  1.00  0.00    -0.384 OA
HETATM   22  H   UNL     1       5.277  25.385  55.988  1.00  0.00     0.211 HD
ENDBRANCH  19  21
BRANCH  19  23
HETATM   23  C   UNL     1       7.309  24.756  54.731  1.00  0.00    -0.023 A 
HETATM   24  C   UNL     1       7.332  23.559  55.469  1.00  0.00     0.013 A 
HETATM   25  C   UNL     1       7.643  22.342  54.856  1.00  0.00     0.043 A 
HETATM   26  C   UNL     1       7.933  22.306  53.499  1.00  0.00     0.116 A 
HETATM   27  F   UNL     1       8.234  21.138  52.918  1.00  0.00    -0.206 F 
HETATM   28  C   UNL     1       7.918  23.467  52.741  1.00  0.00     0.043 A 
HETATM   29  C   UNL     1       7.611  24.683  53.354  1.00  0.00     0.013 A 
ENDBRANCH  19  23
ENDBRANCH  18  19
ENDBRANCH   1  18
TORSDOF 6
ENDMDL
MODEL 3
REMARK VINA RESULT:      -9.1      3.828      6.858
REMARK  6 active torsions:
REMARK  status: ('A' for Active; 'I' for Inactive)
REMARK    1  A    between atoms: C_2  and  O_3 
REMARK    2  A    between atoms: C_2  and  C_4 
REMARK    3  A    between atoms: C_2  and  C_11 
REMARK    4  A    between atoms: C_11  and  N_12 
REMARK       I    between atoms: N_12  and  C_13 
REMARK    5  A    between atoms: C_13  and  C_14 
REMARK    6  A    between atoms: C_15  and  C_16 
ROOT
HETATM    1  N   UNL     1       5.776  26.407  54.039  1.00  0.00    -0.354 N 
HETATM    2  C   UNL     1       7.074  26.535  54.490  1.00  0.00     0.255 C 
HETATM    3  O   UNL     1       7.932  27.139  53.856  1.00  0.00    -0.268 OA
HETATM    4  H   UNL     1       5.133  25.825  54.553  1.00  0.00     0.162 HD
ENDROOT
BRANCH   2   5
HETATM    5  C   UNL     1       7.344  25.876  55.762  1.00  0.00     0.080 A 
HETATM    6  C   UNL     1       7.687  24.504  56.016  1.00  0.00     0.104 A 
HETATM    7  N   UNL     1       7.910  24.302  57.328  1.00  0.00    -0.174 NA
HETATM    8  N   UNL     1       7.708  25.491  57.898  1.00  0.00    -0.288 N 
HETATM    9  H   UNL     1       7.830  25.565  58.903  1.00  0.00     0.188 HD
HETATM   10  C   UNL     1       7.366  26.467  57.016  1.00  0.00     0.128 A 
BRANCH   6  11
HETATM   11  C   UNL     1       7.804  23.374  55.088  1.00  0.00    -0.004 A 
HETATM   12  C   UNL     1       7.717  22.058  55.578  1.00  0.00     0.017 A 
HETATM   13  C   UNL     1       7.804  20.967  54.711  1.00  0.00     0.043 A 
HETATM   14  C   UNL     1       7.976  21.188  53.350  1.00  0.00     0.116 A 
HETATM   15  F   UNL     1       8.061  20.143  52.517  1.00  0.00    -0.206 F 
HETATM   16  C   UNL     1       8.053  22.478  52.842  1.00  0.00     0.043 A 
HETATM   17  C   UNL     1       7.960  23.571  53.708  1.00  0.00     0.017 A 
ENDBRANCH   6  11
ENDBRANCH   2   5
BRANCH   1  18
HETATM   18  C   UNL     1       5.329  26.989  52.784  1.00  0.00     0.165 C 
BRANCH  18  19
HETATM   19  C   UNL     1       5.405  26.033  51.557  1.00  0.00     0.097 C 
HETATM   20  C   UNL     1       4.797  24.671  51.938  1.00  0.00     0.053 C 
BRANCH  19  21
HETATM   21  O   UNL     1       6.800  25.758  51.319  1.00  0.00    -0.384 OA
HETATM   22  H   UNL     1       7.110  25.178  52.037  1.00  0.00     0.211 HD
ENDBRANCH  19  21
BRANCH  19  23
HETATM   23  C   UNL     1       4.828  26.652  50.281  1.00  0.00    -0.023 A 
HETATM   24  C   UNL     1       4.154  25.902  49.301  1.00  0.00     0.013 A 
HETATM   25  C   UNL     1       3.656  26.512  48.145  1.00  0.00     0.043 A 
HETATM   26  C   UNL     1       3.825  27.877  47.957  1.00  0.00     0.116 A 
HETATM   27  F   UNL     1       3.349  28.455  46.847  1.00  0.00    -0.206 F 
HETATM   28  C   UNL     1       4.483  28.646  48.905  1.00  0.00     0.043 A 
HETATM   29  C   UNL     1       4.984  28.037  50.056  1.00  0.00     0.013 A 
ENDBRANCH  19  23
ENDBRANCH  18  19
ENDBRANCH   1  18
TORSDOF 6
ENDMDL
MODEL 4
REMARK VINA RESULT:      -8.9      4.548      8.311
REMARK  6 active torsions:
REMARK  status: ('A' for Active; 'I' for Inactive)
REMARK    1  A    between atoms: C_2  and  O_3 
REMARK    2  A    between atoms: C_2  and  C_4 
REMARK    3  A    between atoms: C_2  and  C_11 
REMARK    4  A    between atoms: C_11  and  N_12 
REMARK       I    between atoms: N_12  and  C_13 
REMARK    5  A    between atoms: C_13  and  C_14 
REMARK    6  A    between atoms: C_15  and  C_16 
ROOT
HETATM    1  N   UNL     1       5.699  26.404  51.816  1.00  0.00    -0.354 N 
HETATM    2  C   UNL     1       5.329  25.647  52.909  1.00  0.00     0.255 C 
HETATM    3  O   UNL     1       4.411  24.836  52.865  1.00  0.00    -0.268 OA
HETATM    4  H   UNL     1       6.400  27.121  51.928  1.00  0.00     0.162 HD
ENDROOT
BRANCH   2   5
HETATM    5  C   UNL     1       6.098  25.910  54.119  1.00  0.00     0.080 A 
HETATM    6  C   UNL     1       7.029  25.055  54.804  1.00  0.00     0.104 A 
HETATM    7  N   UNL     1       7.572  25.689  55.860  1.00  0.00    -0.174 NA
HETATM    8  N   UNL     1       7.006  26.897  55.863  1.00  0.00    -0.288 N 
HETATM    9  H   UNL     1       7.283  27.551  56.589  1.00  0.00     0.188 HD
HETATM   10  C   UNL     1       6.118  27.086  54.852  1.00  0.00     0.128 A 
BRANCH   6  11
HETATM   11  C   UNL     1       7.423  23.671  54.520  1.00  0.00    -0.004 A 
HETATM   12  C   UNL     1       7.466  22.731  55.565  1.00  0.00     0.017 A 
HETATM   13  C   UNL     1       7.818  21.403  55.316  1.00  0.00     0.043 A 
HETATM   14  C   UNL     1       8.125  21.010  54.019  1.00  0.00     0.116 A 
HETATM   15  F   UNL     1       8.464  19.737  53.778  1.00  0.00    -0.206 F 
HETATM   16  C   UNL     1       8.078  21.917  52.969  1.00  0.00     0.043 A 
HETATM   17  C   UNL     1       7.720  23.246  53.217  1.00  0.00     0.017 A 
ENDBRANCH   6  11
ENDBRANCH   2   5
BRANCH   1  18
HETATM   18  C   UNL     1       5.035  26.285  50.528  1.00  0.00     0.165 C 
BRANCH  18  19
HETATM   19  C   UNL     1       4.326  27.583  50.037  1.00  0.00     0.097 C 
HETATM   20  C   UNL     1       5.389  28.644  49.702  1.00  0.00     0.053 C 
BRANCH  19  21
HETATM   21  O   UNL     1       3.608  28.125  51.163  1.00  0.00    -0.384 OA
HETATM   22  H   UNL     1       2.709  27.753  51.143  1.00  0.00     0.211 HD
ENDBRANCH  19  21
BRANCH  19  23
HETATM   23  C   UNL     1       3.312  27.322  48.920  1.00  0.00    -0.023 A 
HETATM   24  C   UNL     1       3.449  26.279  47.987  1.00  0.00     0.013 A 
HETATM   25  C   UNL     1       2.502  26.090  46.975  1.00  0.00     0.043 A 
HETATM   26  C   UNL     1       1.408  26.939  46.886  1.00  0.00     0.116 A 
HETATM   27  F   UNL     1       0.506  26.756  45.913  1.00  0.00    -0.206 F 
HETATM   28  C   UNL     1       1.241  27.976  47.791  1.00  0.00     0.043 A 
HETATM   29  C   UNL     1       2.188  28.168  48.798  1.00  0.00     0.013 A 
ENDBRANCH  19  23
ENDBRANCH  18  19
ENDBRANCH   1  18
TORSDOF 6
ENDMDL
MODEL 5
REMARK VINA RESULT:      -8.9      2.889      7.653
REMARK  6 active torsions:
REMARK  status: ('A' for Active; 'I' for Inactive)
REMARK    1  A    between atoms: C_2  and  O_3 
REMARK    2  A    between atoms: C_2  and  C_4 
REMARK    3  A    between atoms: C_2  and  C_11 
REMARK    4  A    between atoms: C_11  and  N_12 
REMARK       I    between atoms: N_12  and  C_13 
REMARK    5  A    between atoms: C_13  and  C_14 
REMARK    6  A    between atoms: C_15  and  C_16 
ROOT
HETATM    1  N   UNL     1       5.427  26.402  55.477  1.00  0.00    -0.354 N 
HETATM    2  C   UNL     1       5.969  27.109  56.531  1.00  0.00     0.255 C 
HETATM    3  O   UNL     1       6.681  26.580  57.377  1.00  0.00    -0.268 OA
HETATM    4  H   UNL     1       4.775  26.862  54.860  1.00  0.00     0.162 HD
ENDROOT
BRANCH   2   5
HETATM    5  C   UNL     1       5.606  28.520  56.568  1.00  0.00     0.080 A 
HETATM    6  C   UNL     1       6.458  29.672  56.675  1.00  0.00     0.104 A 
HETATM    7  N   UNL     1       5.736  30.807  56.623  1.00  0.00    -0.174 NA
HETATM    8  N   UNL     1       4.471  30.404  56.500  1.00  0.00    -0.288 N 
HETATM    9  H   UNL     1       3.749  31.114  56.439  1.00  0.00     0.188 HD
HETATM   10  C   UNL     1       4.331  29.053  56.465  1.00  0.00     0.128 A 
BRANCH   6  11
HETATM   11  C   UNL     1       7.914  29.757  56.833  1.00  0.00    -0.004 A 
HETATM   12  C   UNL     1       8.457  30.232  58.040  1.00  0.00     0.017 A 
HETATM   13  C   UNL     1       9.840  30.303  58.221  1.00  0.00     0.043 A 
HETATM   14  C   UNL     1      10.685  29.893  57.197  1.00  0.00     0.116 A 
HETATM   15  F   UNL     1      12.011  29.960  57.369  1.00  0.00    -0.206 F 
HETATM   16  C   UNL     1      10.172  29.408  56.001  1.00  0.00     0.043 A 
HETATM   17  C   UNL     1       8.788  29.332  55.821  1.00  0.00     0.017 A 
ENDBRANCH   6  11
ENDBRANCH   2   5
BRANCH   1  18
HETATM   18  C   UNL     1       5.670  24.981  55.287  1.00  0.00     0.165 C 
BRANCH  18  19
HETATM   19  C   UNL     1       6.513  24.627  54.025  1.00  0.00     0.097 C 
HETATM   20  C   UNL     1       7.464  25.794  53.708  1.00  0.00     0.053 C 
BRANCH  19  21
HETATM   21  O   UNL     1       5.603  24.580  52.908  1.00  0.00    -0.384 OA
HETATM   22  H   UNL     1       5.228  23.682  52.875  1.00  0.00     0.211 HD
ENDBRANCH  19  21
BRANCH  19  23
HETATM   23  C   UNL     1       7.195  23.260  54.129  1.00  0.00    -0.023 A 
HETATM   24  C   UNL     1       7.645  22.540  53.008  1.00  0.00     0.013 A 
HETATM   25  C   UNL     1       8.250  21.288  53.153  1.00  0.00     0.043 A 
HETATM   26  C   UNL     1       8.414  20.743  54.418  1.00  0.00     0.116 A 
HETATM   27  F   UNL     1       8.991  19.542  54.551  1.00  0.00    -0.206 F 
HETATM   28  C   UNL     1       7.983  21.426  55.544  1.00  0.00     0.043 A 
HETATM   29  C   UNL     1       7.375  22.674  55.400  1.00  0.00     0.013 A 
ENDBRANCH  19  23
ENDBRANCH  18  19
ENDBRANCH   1  18
TORSDOF 6
ENDMDL
MODEL 6
REMARK VINA RESULT:      -8.9      2.889      8.385
REMARK  6 active torsions:
REMARK  status: ('A' for Active; 'I' for Inactive)
REMARK    1  A    between atoms: C_2  and  O_3 
REMARK    2  A    between atoms: C_2  and  C_4 
REMARK    3  A    between atoms: C_2  and  C_11 
REMARK    4  A    between atoms: C_11  and  N_12 
REMARK       I    between atoms: N_12  and  C_13 
REMARK    5  A    between atoms: C_13  and  C_14 
REMARK    6  A    between atoms: C_15  and  C_16 
ROOT
HETATM    1  N   UNL     1       7.108  27.501  56.144  1.00  0.00    -0.354 N 
HETATM    2  C   UNL     1       7.164  28.272  57.287  1.00  0.00     0.255 C 
HETATM    3  O   UNL     1       7.825  27.945  58.266  1.00  0.00    -0.268 OA
HETATM    4  H   UNL     1       6.479  27.768  55.402  1.00  0.00     0.162 HD
ENDROOT
BRANCH   2   5
HETATM    5  C   UNL     1       6.357  29.485  57.244  1.00  0.00     0.080 A 
HETATM    6  C   UNL     1       6.548  30.725  57.943  1.00  0.00     0.104 A 
HETATM    7  N   UNL     1       5.608  31.622  57.591  1.00  0.00    -0.174 NA
HETATM    8  N   UNL     1       4.837  30.983  56.710  1.00  0.00    -0.288 N 
HETATM    9  H   UNL     1       4.054  31.489  56.307  1.00  0.00     0.188 HD
HETATM   10  C   UNL     1       5.231  29.706  56.466  1.00  0.00     0.128 A 
BRANCH   6  11
HETATM   11  C   UNL     1       7.562  31.104  58.933  1.00  0.00    -0.004 A 
HETATM   12  C   UNL     1       8.902  31.257  58.534  1.00  0.00     0.017 A 
HETATM   13  C   UNL     1       9.881  31.637  59.454  1.00  0.00     0.043 A 
HETATM   14  C   UNL     1       9.524  31.869  60.776  1.00  0.00     0.116 A 
HETATM   15  F   UNL     1      10.462  32.232  61.660  1.00  0.00    -0.206 F 
HETATM   16  C   UNL     1       8.205  31.736  61.191  1.00  0.00     0.043 A 
HETATM   17  C   UNL     1       7.223  31.361  60.270  1.00  0.00     0.017 A 
ENDBRANCH   6  11
ENDBRANCH   2   5
BRANCH   1  18
HETATM   18  C   UNL     1       7.839  26.252  56.012  1.00  0.00     0.165 C 
BRANCH  18  19
HETATM   19  C   UNL     1       6.971  24.968  56.168  1.00  0.00     0.097 C 
HETATM   20  C   UNL     1       5.484  25.362  56.186  1.00  0.00     0.053 C 
BRANCH  19  21
HETATM   21  O   UNL     1       7.227  24.441  57.485  1.00  0.00    -0.384 OA
HETATM   22  H   UNL     1       7.943  23.785  57.403  1.00  0.00     0.211 HD
ENDBRANCH  19  21
BRANCH  19  23
HETATM   23  C   UNL     1       7.329  23.879  55.153  1.00  0.00    -0.023 A 
HETATM   24  C   UNL     1       7.445  24.124  53.773  1.00  0.00     0.013 A 
HETATM   25  C   UNL     1       7.760  23.093  52.884  1.00  0.00     0.043 A 
HETATM   26  C   UNL     1       7.965  21.806  53.362  1.00  0.00     0.116 A 
HETATM   27  F   UNL     1       8.263  20.822  52.505  1.00  0.00    -0.206 F 
HETATM   28  C   UNL     1       7.860  21.530  54.716  1.00  0.00     0.043 A 
HETATM   29  C   UNL     1       7.541  22.558  55.605  1.00  0.00     0.013 A 
ENDBRANCH  19  23
ENDBRANCH  18  19
ENDBRANCH   1  18
TORSDOF 6
ENDMDL
MODEL 7
REMARK VINA RESULT:      -8.9      2.683      3.999
REMARK  6 active torsions:
REMARK  status: ('A' for Active; 'I' for Inactive)
REMARK    1  A    between atoms: C_2  and  O_3 
REMARK    2  A    between atoms: C_2  and  C_4 
REMARK    3  A    between atoms: C_2  and  C_11 
REMARK    4  A    between atoms: C_11  and  N_12 
REMARK       I    between atoms: N_12  and  C_13 
REMARK    5  A    between atoms: C_13  and  C_14 
REMARK    6  A    between atoms: C_15  and  C_16 
ROOT
HETATM    1  N   UNL     1       6.227  27.279  56.181  1.00  0.00    -0.354 N 
HETATM    2  C   UNL     1       6.706  27.109  54.899  1.00  0.00     0.255 C 
HETATM    3  O   UNL     1       7.763  27.603  54.522  1.00  0.00    -0.268 OA
HETATM    4  H   UNL     1       5.310  26.929  56.414  1.00  0.00     0.162 HD
ENDROOT
BRANCH   2   5
HETATM    5  C   UNL     1       5.844  26.320  54.026  1.00  0.00     0.080 A 
HETATM    6  C   UNL     1       5.919  24.923  53.701  1.00  0.00     0.104 A 
HETATM    7  N   UNL     1       4.901  24.564  52.897  1.00  0.00    -0.174 NA
HETATM    8  N   UNL     1       4.205  25.685  52.703  1.00  0.00    -0.288 N 
HETATM    9  H   UNL     1       3.377  25.636  52.117  1.00  0.00     0.188 HD
HETATM   10  C   UNL     1       4.720  26.764  53.348  1.00  0.00     0.128 A 
BRANCH   6  11
HETATM   11  C   UNL     1       6.907  23.914  54.099  1.00  0.00    -0.004 A 
HETATM   12  C   UNL     1       7.073  23.601  55.460  1.00  0.00     0.017 A 
HETATM   13  C   UNL     1       7.992  22.629  55.861  1.00  0.00     0.043 A 
HETATM   14  C   UNL     1       8.745  21.964  54.902  1.00  0.00     0.116 A 
HETATM   15  F   UNL     1       9.627  21.032  55.285  1.00  0.00    -0.206 F 
HETATM   16  C   UNL     1       8.589  22.246  53.551  1.00  0.00     0.043 A 
HETATM   17  C   UNL     1       7.666  23.215  53.148  1.00  0.00     0.017 A 
ENDBRANCH   6  11
ENDBRANCH   2   5
BRANCH   1  18
HETATM   18  C   UNL     1       6.947  28.047  57.184  1.00  0.00     0.165 C 
BRANCH  18  19
HETATM   19  C   UNL     1       6.566  29.556  57.250  1.00  0.00     0.097 C 
HETATM   20  C   UNL     1       5.054  29.684  57.506  1.00  0.00     0.053 C 
BRANCH  19  21
HETATM   21  O   UNL     1       6.762  30.101  55.930  1.00  0.00    -0.384 OA
HETATM   22  H   UNL     1       5.912  30.478  55.640  1.00  0.00     0.211 HD
ENDBRANCH  19  21
BRANCH  19  23
HETATM   23  C   UNL     1       7.445  30.352  58.218  1.00  0.00    -0.023 A 
HETATM   24  C   UNL     1       8.803  30.062  58.437  1.00  0.00     0.013 A 
HETATM   25  C   UNL     1       9.562  30.810  59.343  1.00  0.00     0.043 A 
HETATM   26  C   UNL     1       8.972  31.856  60.038  1.00  0.00     0.116 A 
HETATM   27  F   UNL     1       9.702  32.567  60.907  1.00  0.00    -0.206 F 
HETATM   28  C   UNL     1       7.635  32.169  59.846  1.00  0.00     0.043 A 
HETATM   29  C   UNL     1       6.877  31.420  58.945  1.00  0.00     0.013 A 
ENDBRANCH  19  23
ENDBRANCH  18  19
ENDBRANCH   1  18
TORSDOF 6
ENDMDL
MODEL 8
REMARK VINA RESULT:      -8.8      3.984      6.068
REMARK  6 active torsions:
REMARK  status: ('A' for Active; 'I' for Inactive)
REMARK    1  A    between atoms: C_2  and  O_3 
REMARK    2  A    between atoms: C_2  and  C_4 
REMARK    3  A    between atoms: C_2  and  C_11 
REMARK    4  A    between atoms: C_11  and  N_12 
REMARK       I    between atoms: N_12  and  C_13 
REMARK    5  A    between atoms: C_13  and  C_14 
REMARK    6  A    between atoms: C_15  and  C_16 
ROOT
HETATM    1  N   UNL     1       5.806  26.936  55.418  1.00  0.00    -0.354 N 
HETATM    2  C   UNL     1       5.974  25.567  55.407  1.00  0.00     0.255 C 
HETATM    3  O   UNL     1       5.344  24.835  54.652  1.00  0.00    -0.268 OA
HETATM    4  H   UNL     1       6.280  27.484  56.119  1.00  0.00     0.162 HD
ENDROOT
BRANCH   2   5
HETATM    5  C   UNL     1       6.938  25.064  56.378  1.00  0.00     0.080 A 
HETATM    6  C   UNL     1       7.790  23.910  56.295  1.00  0.00     0.104 A 
HETATM    7  N   UNL     1       8.576  23.817  57.384  1.00  0.00    -0.174 NA
HETATM    8  N   UNL     1       8.238  24.861  58.142  1.00  0.00    -0.288 N 
HETATM    9  H   UNL     1       8.723  24.985  59.025  1.00  0.00     0.188 HD
HETATM   10  C   UNL     1       7.266  25.638  57.597  1.00  0.00     0.128 A 
BRANCH   6  11
HETATM   11  C   UNL     1       7.891  22.886  55.250  1.00  0.00    -0.004 A 
HETATM   12  C   UNL     1       8.182  23.266  53.928  1.00  0.00     0.017 A 
HETATM   13  C   UNL     1       8.304  22.307  52.920  1.00  0.00     0.043 A 
HETATM   14  C   UNL     1       8.140  20.964  53.232  1.00  0.00     0.116 A 
HETATM   15  F   UNL     1       8.256  20.043  52.267  1.00  0.00    -0.206 F 
HETATM   16  C   UNL     1       7.865  20.563  54.533  1.00  0.00     0.043 A 
HETATM   17  C   UNL     1       7.748  21.521  55.543  1.00  0.00     0.017 A 
ENDBRANCH   6  11
ENDBRANCH   2   5
BRANCH   1  18
HETATM   18  C   UNL     1       4.877  27.612  54.527  1.00  0.00     0.165 C 
BRANCH  18  19
HETATM   19  C   UNL     1       5.544  28.358  53.333  1.00  0.00     0.097 C 
HETATM   20  C   UNL     1       7.070  28.373  53.534  1.00  0.00     0.053 C 
BRANCH  19  21
HETATM   21  O   UNL     1       5.148  29.741  53.423  1.00  0.00    -0.384 OA
HETATM   22  H   UNL     1       4.210  29.760  53.684  1.00  0.00     0.211 HD
ENDBRANCH  19  21
BRANCH  19  23
HETATM   23  C   UNL     1       5.087  27.830  51.970  1.00  0.00    -0.023 A 
HETATM   24  C   UNL     1       4.321  28.591  51.070  1.00  0.00     0.013 A 
HETATM   25  C   UNL     1       3.916  28.059  49.841  1.00  0.00     0.043 A 
HETATM   26  C   UNL     1       4.274  26.763  49.499  1.00  0.00     0.116 A 
HETATM   27  F   UNL     1       3.880  26.258  48.323  1.00  0.00    -0.206 F 
HETATM   28  C   UNL     1       5.030  25.986  50.362  1.00  0.00     0.043 A 
HETATM   29  C   UNL     1       5.430  26.515  51.590  1.00  0.00     0.013 A 
ENDBRANCH  19  23
ENDBRANCH  18  19
ENDBRANCH   1  18
TORSDOF 6
ENDMDL
MODEL 9
REMARK VINA RESULT:      -8.6      4.321      7.325
REMARK  6 active torsions:
REMARK  status: ('A' for Active; 'I' for Inactive)
REMARK    1  A    between atoms: C_2  and  O_3 
REMARK    2  A    between atoms: C_2  and  C_4 
REMARK    3  A    between atoms: C_2  and  C_11 
REMARK    4  A    between atoms: C_11  and  N_12 
REMARK       I    between atoms: N_12  and  C_13 
REMARK    5  A    between atoms: C_13  and  C_14 
REMARK    6  A    between atoms: C_15  and  C_16 
ROOT
HETATM    1  N   UNL     1       6.119  26.539  54.336  1.00  0.00    -0.354 N 
HETATM    2  C   UNL     1       6.473  27.847  54.075  1.00  0.00     0.255 C 
HETATM    3  O   UNL     1       7.641  28.202  53.966  1.00  0.00    -0.268 OA
HETATM    4  H   UNL     1       5.151  26.317  54.506  1.00  0.00     0.162 HD
ENDROOT
BRANCH   2   5
HETATM    5  C   UNL     1       5.350  28.771  53.965  1.00  0.00     0.080 A 
HETATM    6  C   UNL     1       4.639  29.198  52.792  1.00  0.00     0.104 A 
HETATM    7  N   UNL     1       3.627  30.022  53.120  1.00  0.00    -0.174 NA
HETATM    8  N   UNL     1       3.689  30.131  54.447  1.00  0.00    -0.288 N 
HETATM    9  H   UNL     1       3.000  30.715  54.910  1.00  0.00     0.188 HD
HETATM   10  C   UNL     1       4.697  29.411  55.007  1.00  0.00     0.128 A 
BRANCH   6  11
HETATM   11  C   UNL     1       4.873  28.878  51.379  1.00  0.00    -0.004 A 
HETATM   12  C   UNL     1       5.400  29.859  50.520  1.00  0.00     0.017 A 
HETATM   13  C   UNL     1       5.650  29.571  49.177  1.00  0.00     0.043 A 
HETATM   14  C   UNL     1       5.377  28.299  48.689  1.00  0.00     0.116 A 
HETATM   15  F   UNL     1       5.615  28.021  47.400  1.00  0.00    -0.206 F 
HETATM   16  C   UNL     1       4.868  27.310  49.520  1.00  0.00     0.043 A 
HETATM   17  C   UNL     1       4.623  27.596  50.867  1.00  0.00     0.017 A 
ENDBRANCH   6  11
ENDBRANCH   2   5
BRANCH   1  18
HETATM   18  C   UNL     1       7.107  25.483  54.490  1.00  0.00     0.165 C 
BRANCH  18  19
HETATM   19  C   UNL     1       7.104  24.417  53.355  1.00  0.00     0.097 C 
HETATM   20  C   UNL     1       7.930  24.940  52.166  1.00  0.00     0.053 C 
BRANCH  19  21
HETATM   21  O   UNL     1       5.754  24.333  52.856  1.00  0.00    -0.384 OA
HETATM   22  H   UNL     1       5.498  23.393  52.865  1.00  0.00     0.211 HD
ENDBRANCH  19  21
BRANCH  19  23
HETATM   23  C   UNL     1       7.508  23.023  53.845  1.00  0.00    -0.023 A 
HETATM   24  C   UNL     1       7.868  21.978  52.975  1.00  0.00     0.013 A 
HETATM   25  C   UNL     1       8.216  20.718  53.471  1.00  0.00     0.043 A 
HETATM   26  C   UNL     1       8.209  20.489  54.840  1.00  0.00     0.116 A 
HETATM   27  F   UNL     1       8.539  19.278  55.308  1.00  0.00    -0.206 F 
HETATM   28  C   UNL     1       7.861  21.497  55.725  1.00  0.00     0.043 A 
HETATM   29  C   UNL     1       7.509  22.754  55.230  1.00  0.00     0.013 A 
ENDBRANCH  19  23
ENDBRANCH  18  19
ENDBRANCH   1  18
TORSDOF 6
ENDMDL
MODEL 10
REMARK VINA RESULT:      -8.4      5.075      7.854
REMARK  6 active torsions:
REMARK  status: ('A' for Active; 'I' for Inactive)
REMARK    1  A    between atoms: C_2  and  O_3 
REMARK    2  A    between atoms: C_2  and  C_4 
REMARK    3  A    between atoms: C_2  and  C_11 
REMARK    4  A    between atoms: C_11  and  N_12 
REMARK       I    between atoms: N_12  and  C_13 
REMARK    5  A    between atoms: C_13  and  C_14 
REMARK    6  A    between atoms: C_15  and  C_16 
ROOT
HETATM    1  N   UNL     1       5.287  28.091  52.439  1.00  0.00    -0.354 N 
HETATM    2  C   UNL     1       4.111  28.772  52.204  1.00  0.00     0.255 C 
HETATM    3  O   UNL     1       3.083  28.542  52.831  1.00  0.00    -0.268 OA
HETATM    4  H   UNL     1       6.078  28.253  51.836  1.00  0.00     0.162 HD
ENDROOT
BRANCH   2   5
HETATM    5  C   UNL     1       4.184  29.764  51.138  1.00  0.00     0.080 A 
HETATM    6  C   UNL     1       3.978  29.593  49.726  1.00  0.00     0.104 A 
HETATM    7  N   UNL     1       4.085  30.770  49.081  1.00  0.00    -0.174 NA
HETATM    8  N   UNL     1       4.361  31.660  50.035  1.00  0.00    -0.288 N 
HETATM    9  H   UNL     1       4.481  32.630  49.762  1.00  0.00     0.188 HD
HETATM   10  C   UNL     1       4.436  31.120  51.280  1.00  0.00     0.128 A 
BRANCH   6  11
HETATM   11  C   UNL     1       3.695  28.378  48.955  1.00  0.00    -0.004 A 
HETATM   12  C   UNL     1       4.759  27.631  48.417  1.00  0.00     0.017 A 
HETATM   13  C   UNL     1       4.515  26.460  47.697  1.00  0.00     0.043 A 
HETATM   14  C   UNL     1       3.207  26.029  47.515  1.00  0.00     0.116 A 
HETATM   15  F   UNL     1       2.972  24.906  46.825  1.00  0.00    -0.206 F 
HETATM   16  C   UNL     1       2.141  26.742  48.048  1.00  0.00     0.043 A 
HETATM   17  C   UNL     1       2.384  27.912  48.774  1.00  0.00     0.017 A 
ENDBRANCH   6  11
ENDBRANCH   2   5
BRANCH   1  18
HETATM   18  C   UNL     1       5.397  27.058  53.456  1.00  0.00     0.165 C 
BRANCH  18  19
HETATM   19  C   UNL     1       5.301  25.599  52.919  1.00  0.00     0.097 C 
HETATM   20  C   UNL     1       5.270  25.628  51.380  1.00  0.00     0.053 C 
BRANCH  19  21
HETATM   21  O   UNL     1       4.008  25.090  53.302  1.00  0.00    -0.384 OA
HETATM   22  H   UNL     1       3.378  25.333  52.600  1.00  0.00     0.211 HD
ENDBRANCH  19  21
BRANCH  19  23
HETATM   23  C   UNL     1       6.362  24.672  53.517  1.00  0.00    -0.023 A 
HETATM   24  C   UNL     1       6.525  24.483  54.901  1.00  0.00     0.013 A 
HETATM   25  C   UNL     1       7.519  23.636  55.399  1.00  0.00     0.043 A 
HETATM   26  C   UNL     1       8.360  22.966  54.521  1.00  0.00     0.116 A 
HETATM   27  F   UNL     1       9.313  22.158  55.004  1.00  0.00    -0.206 F 
HETATM   28  C   UNL     1       8.226  23.128  53.151  1.00  0.00     0.043 A 
HETATM   29  C   UNL     1       7.237  23.978  52.653  1.00  0.00     0.013 A 
ENDBRANCH  19  23
ENDBRANCH  18  19
ENDBRANCH   1  18
TORSDOF 6
ENDMDL
