MODEL 1
REMARK VINA RESULT:      -8.4      0.000      0.000
REMARK  10 active torsions:
REMARK  status: ('A' for Active; 'I' for Inactive)
REMARK    1  A    between atoms: C_2  and  C_3 
REMARK    2  A    between atoms: C_3  and  N_4 
REMARK    3  A    between atoms: C_7  and  C_8 
REMARK       I    between atoms: C_8  and  N_9 
REMARK    4  A    between atoms: N_9  and  C_10 
REMARK    5  A    between atoms: C_10  and  C_11 
REMARK    6  A    between atoms: C_11  and  O_12 
REMARK    7  A    between atoms: C_11  and  C_13 
REMARK    8  A    between atoms: C_13  and  O_14 
REMARK    9  A    between atoms: O_14  and  C_15 
REMARK   10  A    between atoms: C_23  and  C_24 
ROOT
HETATM    1  C   UNL     1       7.148  27.213  54.160  1.00  0.00     0.255 C 
HETATM    2  N   UNL     1       5.797  27.416  54.367  1.00  0.00    -0.354 N 
HETATM    3  O   UNL     1       7.933  28.154  54.190  1.00  0.00    -0.268 OA
HETATM    4  H   UNL     1       5.169  26.625  54.309  1.00  0.00     0.162 HD
ENDROOT
BRANCH   2   5
HETATM    5  C   UNL     1       5.255  28.681  54.849  1.00  0.00     0.156 C 
BRANCH   5   6
HETATM    6  C   UNL     1       4.536  28.630  56.212  1.00  0.00     0.160 C 
BRANCH   6   7
HETATM    7  O   UNL     1       4.422  27.282  56.683  1.00  0.00    -0.392 OA
HETATM    8  H   UNL     1       5.252  27.052  57.155  1.00  0.00     0.210 HD
ENDBRANCH   6   7
BRANCH   6   9
HETATM    9  C   UNL     1       5.206  29.521  57.266  1.00  0.00     0.209 C 
BRANCH   9  10
HETATM   10  O   UNL     1       6.417  28.888  57.695  1.00  0.00    -0.349 OA
BRANCH  10  11
HETATM   11  C   UNL     1       7.463  29.710  58.011  1.00  0.00     0.069 A 
HETATM   12  C   UNL     1       8.685  29.345  57.439  1.00  0.00     0.043 A 
HETATM   13  C   UNL     1       9.843  30.098  57.668  1.00  0.00    -0.059 A 
HETATM   14  C   UNL     1      11.151  29.691  57.060  1.00  0.00     0.048 C 
HETATM   15  C   UNL     1       9.771  31.210  58.514  1.00  0.00     0.007 A 
HETATM   16  C   UNL     1       8.557  31.571  59.098  1.00  0.00     0.003 A 
HETATM   17  C   UNL     1       7.403  30.825  58.846  1.00  0.00     0.037 A 
ENDBRANCH  10  11
ENDBRANCH   9  10
ENDBRANCH   6   9
ENDBRANCH   5   6
ENDBRANCH   2   5
BRANCH   1  18
HETATM   18  C   UNL     1       7.528  25.826  53.933  1.00  0.00     0.075 A 
HETATM   19  C   UNL     1       7.848  25.267  52.669  1.00  0.00     0.158 A 
HETATM   20  N   UNL     1       8.142  23.974  52.718  1.00  0.00    -0.183 NA
HETATM   21  N   UNL     1       7.973  23.655  54.013  1.00  0.00    -0.268 N 
HETATM   22  C   UNL     1       7.640  24.743  54.805  1.00  0.00     0.052 A 
BRANCH  21  23
HETATM   23  C   UNL     1       8.061  22.250  54.417  1.00  0.00     0.106 C 
HETATM   24  C   UNL     1       9.435  21.860  54.978  1.00  0.00     0.034 C 
BRANCH  23  25
HETATM   25  C   UNL     1       7.599  21.305  53.290  1.00  0.00     0.022 C 
HETATM   26  C   UNL     1       8.660  20.336  52.782  1.00  0.00     0.007 C 
ENDBRANCH  23  25
ENDBRANCH  21  23
BRANCH  22  27
HETATM   27  C   UNL     1       7.475  24.646  56.326  1.00  0.00     0.038 A 
HETATM   28  C   UNL     1       8.685  24.584  57.226  1.00  0.00     0.011 A 
HETATM   29  C   UNL     1       7.822  25.802  57.229  1.00  0.00     0.011 A 
ENDBRANCH  22  27
ENDBRANCH   1  18
TORSDOF 10
ENDMDL
MODEL 2
REMARK VINA RESULT:      -8.2      1.053      2.117
REMARK  10 active torsions:
REMARK  status: ('A' for Active; 'I' for Inactive)
REMARK    1  A    between atoms: C_2  and  C_3 
REMARK    2  A    between atoms: C_3  and  N_4 
REMARK    3  A    between atoms: C_7  and  C_8 
REMARK       I    between atoms: C_8  and  N_9 
REMARK    4  A    between atoms: N_9  and  C_10 
REMARK    5  A    between atoms: C_10  and  C_11 
REMARK    6  A    between atoms: C_11  and  O_12 
REMARK    7  A    between atoms: C_11  and  C_13 
REMARK    8  A    between atoms: C_13  and  O_14 
REMARK    9  A    between atoms: O_14  and  C_15 
REMARK   10  A    between atoms: C_23  and  C_24 
ROOT
HETATM    1  C   UNL     1       7.163  26.723  54.889  1.00  0.00     0.255 C 
HETATM    2  N   UNL     1       5.954  27.274  55.269  1.00  0.00    -0.354 N 
HETATM    3  O   UNL     1       8.005  27.402  54.311  1.00  0.00    -0.268 OA
HETATM    4  H   UNL     1       5.268  26.683  55.720  1.00  0.00     0.162 HD
ENDROOT
BRANCH   2   5
HETATM    5  C   UNL     1       5.690  28.707  55.221  1.00  0.00     0.156 C 
BRANCH   5   6
HETATM    6  C   UNL     1       4.625  29.230  56.204  1.00  0.00     0.160 C 
BRANCH   6   7
HETATM    7  O   UNL     1       3.594  28.256  56.409  1.00  0.00    -0.392 OA
HETATM    8  H   UNL     1       3.329  27.902  55.532  1.00  0.00     0.210 HD
ENDBRANCH   6   7
BRANCH   6   9
HETATM    9  C   UNL     1       5.225  29.677  57.544  1.00  0.00     0.209 C 
BRANCH   9  10
HETATM   10  O   UNL     1       6.495  29.039  57.711  1.00  0.00    -0.349 OA
BRANCH  10  11
HETATM   11  C   UNL     1       7.548  29.841  58.051  1.00  0.00     0.069 A 
HETATM   12  C   UNL     1       8.775  29.461  57.499  1.00  0.00     0.043 A 
HETATM   13  C   UNL     1       9.940  30.194  57.755  1.00  0.00    -0.059 A 
HETATM   14  C   UNL     1      11.253  29.770  57.168  1.00  0.00     0.048 C 
HETATM   15  C   UNL     1       9.870  31.300  58.608  1.00  0.00     0.007 A 
HETATM   16  C   UNL     1       8.651  31.677  59.172  1.00  0.00     0.003 A 
HETATM   17  C   UNL     1       7.491  30.951  58.894  1.00  0.00     0.037 A 
ENDBRANCH  10  11
ENDBRANCH   9  10
ENDBRANCH   6   9
ENDBRANCH   5   6
ENDBRANCH   2   5
BRANCH   1  18
HETATM   18  C   UNL     1       7.335  25.323  55.248  1.00  0.00     0.075 A 
HETATM   19  C   UNL     1       7.702  24.853  56.535  1.00  0.00     0.158 A 
HETATM   20  N   UNL     1       7.816  23.533  56.608  1.00  0.00    -0.183 NA
HETATM   21  N   UNL     1       7.568  23.120  55.351  1.00  0.00    -0.268 N 
HETATM   22  C   UNL     1       7.231  24.155  54.494  1.00  0.00     0.052 A 
BRANCH  21  23
HETATM   23  C   UNL     1       7.761  21.708  55.016  1.00  0.00     0.106 C 
HETATM   24  C   UNL     1       7.988  20.813  56.243  1.00  0.00     0.034 C 
BRANCH  23  25
HETATM   25  C   UNL     1       8.853  21.521  53.945  1.00  0.00     0.022 C 
HETATM   26  C   UNL     1       8.512  20.530  52.838  1.00  0.00     0.007 C 
ENDBRANCH  23  25
ENDBRANCH  21  23
BRANCH  22  27
HETATM   27  C   UNL     1       6.827  23.926  53.032  1.00  0.00     0.038 A 
HETATM   28  C   UNL     1       5.997  24.951  52.296  1.00  0.00     0.011 A 
HETATM   29  C   UNL     1       7.426  24.742  51.915  1.00  0.00     0.011 A 
ENDBRANCH  22  27
ENDBRANCH   1  18
TORSDOF 10
ENDMDL
MODEL 3
REMARK VINA RESULT:      -8.1      2.322      4.060
REMARK  10 active torsions:
REMARK  status: ('A' for Active; 'I' for Inactive)
REMARK    1  A    between atoms: C_2  and  C_3 
REMARK    2  A    between atoms: C_3  and  N_4 
REMARK    3  A    between atoms: C_7  and  C_8 
REMARK       I    between atoms: C_8  and  N_9 
REMARK    4  A    between atoms: N_9  and  C_10 
REMARK    5  A    between atoms: C_10  and  C_11 
REMARK    6  A    between atoms: C_11  and  O_12 
REMARK    7  A    between atoms: C_11  and  C_13 
REMARK    8  A    between atoms: C_13  and  O_14 
REMARK    9  A    between atoms: O_14  and  C_15 
REMARK   10  A    between atoms: C_23  and  C_24 
ROOT
HETATM    1  C   UNL     1       7.571  27.057  57.172  1.00  0.00     0.255 C 
HETATM    2  N   UNL     1       8.714  27.833  57.131  1.00  0.00    -0.354 N 
HETATM    3  O   UNL     1       6.488  27.555  57.460  1.00  0.00    -0.268 OA
HETATM    4  H   UNL     1       9.598  27.390  56.919  1.00  0.00     0.162 HD
ENDROOT
BRANCH   2   5
HETATM    5  C   UNL     1       8.681  29.289  57.196  1.00  0.00     0.156 C 
BRANCH   5   6
HETATM    6  C   UNL     1      10.043  29.986  57.383  1.00  0.00     0.160 C 
BRANCH   6   7
HETATM    7  O   UNL     1      10.602  30.367  56.120  1.00  0.00    -0.392 OA
HETATM    8  H   UNL     1      11.180  29.637  55.808  1.00  0.00     0.210 HD
ENDBRANCH   6   7
BRANCH   6   9
HETATM    9  C   UNL     1       9.966  31.190  58.330  1.00  0.00     0.209 C 
BRANCH   9  10
HETATM   10  O   UNL     1       9.523  30.735  59.613  1.00  0.00    -0.349 OA
BRANCH  10  11
HETATM   11  C   UNL     1       8.513  31.443  60.204  1.00  0.00     0.069 A 
HETATM   12  C   UNL     1       8.714  31.727  61.557  1.00  0.00     0.043 A 
HETATM   13  C   UNL     1       7.767  32.452  62.291  1.00  0.00    -0.059 A 
HETATM   14  C   UNL     1       7.986  32.741  63.745  1.00  0.00     0.048 C 
HETATM   15  C   UNL     1       6.588  32.860  61.658  1.00  0.00     0.007 A 
HETATM   16  C   UNL     1       6.377  32.568  60.310  1.00  0.00     0.003 A 
HETATM   17  C   UNL     1       7.338  31.862  59.582  1.00  0.00     0.037 A 
ENDBRANCH  10  11
ENDBRANCH   9  10
ENDBRANCH   6   9
ENDBRANCH   5   6
ENDBRANCH   2   5
BRANCH   1  18
HETATM   18  C   UNL     1       7.773  25.656  56.835  1.00  0.00     0.075 A 
HETATM   19  C   UNL     1       8.856  24.859  57.288  1.00  0.00     0.158 A 
HETATM   20  N   UNL     1       8.832  23.615  56.825  1.00  0.00    -0.183 NA
HETATM   21  N   UNL     1       7.753  23.593  56.022  1.00  0.00    -0.268 N 
HETATM   22  C   UNL     1       7.050  24.787  56.019  1.00  0.00     0.052 A 
BRANCH  21  23
HETATM   23  C   UNL     1       7.500  22.404  55.206  1.00  0.00     0.106 C 
HETATM   24  C   UNL     1       7.735  21.085  55.956  1.00  0.00     0.034 C 
BRANCH  23  25
HETATM   25  C   UNL     1       8.262  22.460  53.867  1.00  0.00     0.022 C 
HETATM   26  C   UNL     1       8.238  21.171  53.054  1.00  0.00     0.007 C 
ENDBRANCH  23  25
ENDBRANCH  21  23
BRANCH  22  27
HETATM   27  C   UNL     1       5.740  24.979  55.244  1.00  0.00     0.038 A 
HETATM   28  C   UNL     1       5.537  26.194  54.372  1.00  0.00     0.011 A 
HETATM   29  C   UNL     1       5.690  24.848  53.744  1.00  0.00     0.011 A 
ENDBRANCH  22  27
ENDBRANCH   1  18
TORSDOF 10
ENDMDL
MODEL 4
REMARK VINA RESULT:      -8.1      1.310      2.155
REMARK  10 active torsions:
REMARK  status: ('A' for Active; 'I' for Inactive)
REMARK    1  A    between atoms: C_2  and  C_3 
REMARK    2  A    between atoms: C_3  and  N_4 
REMARK    3  A    between atoms: C_7  and  C_8 
REMARK       I    between atoms: C_8  and  N_9 
REMARK    4  A    between atoms: N_9  and  C_10 
REMARK    5  A    between atoms: C_10  and  C_11 
REMARK    6  A    between atoms: C_11  and  O_12 
REMARK    7  A    between atoms: C_11  and  C_13 
REMARK    8  A    between atoms: C_13  and  O_14 
REMARK    9  A    between atoms: O_14  and  C_15 
REMARK   10  A    between atoms: C_23  and  C_24 
ROOT
HETATM    1  C   UNL     1       5.622  26.136  55.405  1.00  0.00     0.255 C 
HETATM    2  N   UNL     1       5.840  27.327  54.738  1.00  0.00    -0.354 N 
HETATM    3  O   UNL     1       4.912  26.099  56.403  1.00  0.00    -0.268 OA
HETATM    4  H   UNL     1       6.453  27.332  53.934  1.00  0.00     0.162 HD
ENDROOT
BRANCH   2   5
HETATM    5  C   UNL     1       5.083  28.540  55.025  1.00  0.00     0.156 C 
BRANCH   5   6
HETATM    6  C   UNL     1       5.831  29.629  55.819  1.00  0.00     0.160 C 
BRANCH   6   7
HETATM    7  O   UNL     1       5.337  30.933  55.491  1.00  0.00    -0.392 OA
HETATM    8  H   UNL     1       5.603  31.138  54.568  1.00  0.00     0.210 HD
ENDBRANCH   6   7
BRANCH   6   9
HETATM    9  C   UNL     1       5.784  29.394  57.334  1.00  0.00     0.209 C 
BRANCH   9  10
HETATM   10  O   UNL     1       6.873  28.538  57.697  1.00  0.00    -0.349 OA
BRANCH  10  11
HETATM   11  C   UNL     1       8.124  29.088  57.670  1.00  0.00     0.069 A 
HETATM   12  C   UNL     1       8.311  30.159  58.547  1.00  0.00     0.043 A 
HETATM   13  C   UNL     1       9.545  30.816  58.632  1.00  0.00    -0.059 A 
HETATM   14  C   UNL     1       9.731  31.972  59.568  1.00  0.00     0.048 C 
HETATM   15  C   UNL     1      10.588  30.408  57.794  1.00  0.00     0.007 A 
HETATM   16  C   UNL     1      10.404  29.347  56.907  1.00  0.00     0.003 A 
HETATM   17  C   UNL     1       9.175  28.686  56.845  1.00  0.00     0.037 A 
ENDBRANCH  10  11
ENDBRANCH   9  10
ENDBRANCH   6   9
ENDBRANCH   5   6
ENDBRANCH   2   5
BRANCH   1  18
HETATM   18  C   UNL     1       6.278  24.979  54.814  1.00  0.00     0.075 A 
HETATM   19  C   UNL     1       6.095  24.534  53.479  1.00  0.00     0.158 A 
HETATM   20  N   UNL     1       6.787  23.442  53.181  1.00  0.00    -0.183 NA
HETATM   21  N   UNL     1       7.400  23.126  54.337  1.00  0.00    -0.268 N 
HETATM   22  C   UNL     1       7.162  24.043  55.349  1.00  0.00     0.052 A 
BRANCH  21  23
HETATM   23  C   UNL     1       8.141  21.867  54.427  1.00  0.00     0.106 C 
HETATM   24  C   UNL     1       8.250  21.123  53.088  1.00  0.00     0.034 C 
BRANCH  23  25
HETATM   25  C   UNL     1       7.597  20.967  55.554  1.00  0.00     0.022 C 
HETATM   26  C   UNL     1       8.649  20.425  56.515  1.00  0.00     0.007 C 
ENDBRANCH  23  25
ENDBRANCH  21  23
BRANCH  22  27
HETATM   27  C   UNL     1       7.816  23.942  56.733  1.00  0.00     0.038 A 
HETATM   28  C   UNL     1       9.248  24.374  56.936  1.00  0.00     0.011 A 
HETATM   29  C   UNL     1       8.140  25.174  57.538  1.00  0.00     0.011 A 
ENDBRANCH  22  27
ENDBRANCH   1  18
TORSDOF 10
ENDMDL
MODEL 5
REMARK VINA RESULT:      -7.9      2.050      7.249
REMARK  10 active torsions:
REMARK  status: ('A' for Active; 'I' for Inactive)
REMARK    1  A    between atoms: C_2  and  C_3 
REMARK    2  A    between atoms: C_3  and  N_4 
REMARK    3  A    between atoms: C_7  and  C_8 
REMARK       I    between atoms: C_8  and  N_9 
REMARK    4  A    between atoms: N_9  and  C_10 
REMARK    5  A    between atoms: C_10  and  C_11 
REMARK    6  A    between atoms: C_11  and  O_12 
REMARK    7  A    between atoms: C_11  and  C_13 
REMARK    8  A    between atoms: C_13  and  O_14 
REMARK    9  A    between atoms: O_14  and  C_15 
REMARK   10  A    between atoms: C_23  and  C_24 
ROOT
HETATM    1  C   UNL     1       5.059  27.935  54.567  1.00  0.00     0.255 C 
HETATM    2  N   UNL     1       5.729  27.074  53.718  1.00  0.00    -0.354 N 
HETATM    3  O   UNL     1       3.848  28.098  54.462  1.00  0.00    -0.268 OA
HETATM    4  H   UNL     1       6.732  26.980  53.810  1.00  0.00     0.162 HD
ENDROOT
BRANCH   2   5
HETATM    5  C   UNL     1       5.038  26.154  52.822  1.00  0.00     0.156 C 
BRANCH   5   6
HETATM    6  C   UNL     1       5.934  25.356  51.854  1.00  0.00     0.160 C 
BRANCH   6   7
HETATM    7  O   UNL     1       6.123  26.068  50.625  1.00  0.00    -0.392 OA
HETATM    8  H   UNL     1       5.385  26.707  50.525  1.00  0.00     0.210 HD
ENDBRANCH   6   7
BRANCH   6   9
HETATM    9  C   UNL     1       7.284  24.975  52.476  1.00  0.00     0.209 C 
BRANCH   9  10
HETATM   10  O   UNL     1       7.042  24.335  53.734  1.00  0.00    -0.349 OA
BRANCH  10  11
HETATM   11  C   UNL     1       7.461  23.040  53.857  1.00  0.00     0.069 A 
HETATM   12  C   UNL     1       7.673  22.617  55.173  1.00  0.00     0.043 A 
HETATM   13  C   UNL     1       8.096  21.312  55.452  1.00  0.00    -0.059 A 
HETATM   14  C   UNL     1       8.332  20.872  56.866  1.00  0.00     0.048 C 
HETATM   15  C   UNL     1       8.344  20.438  54.388  1.00  0.00     0.007 A 
HETATM   16  C   UNL     1       8.146  20.858  53.073  1.00  0.00     0.003 A 
HETATM   17  C   UNL     1       7.704  22.156  52.806  1.00  0.00     0.037 A 
ENDBRANCH  10  11
ENDBRANCH   9  10
ENDBRANCH   6   9
ENDBRANCH   5   6
ENDBRANCH   2   5
BRANCH   1  18
HETATM   18  C   UNL     1       5.898  28.582  55.564  1.00  0.00     0.075 A 
HETATM   19  C   UNL     1       5.849  29.960  55.897  1.00  0.00     0.158 A 
HETATM   20  N   UNL     1       6.729  30.316  56.823  1.00  0.00    -0.183 NA
HETATM   21  N   UNL     1       7.403  29.180  57.079  1.00  0.00    -0.268 N 
HETATM   22  C   UNL     1       6.918  28.089  56.377  1.00  0.00     0.052 A 
BRANCH  21  23
HETATM   23  C   UNL     1       8.575  29.231  57.955  1.00  0.00     0.106 C 
HETATM   24  C   UNL     1       8.392  30.153  59.169  1.00  0.00     0.034 C 
BRANCH  23  25
HETATM   25  C   UNL     1       9.861  29.549  57.167  1.00  0.00     0.022 C 
HETATM   26  C   UNL     1      10.613  30.792  57.628  1.00  0.00     0.007 C 
ENDBRANCH  23  25
ENDBRANCH  21  23
BRANCH  22  27
HETATM   27  C   UNL     1       7.469  26.669  56.561  1.00  0.00     0.038 A 
HETATM   28  C   UNL     1       7.523  26.039  57.932  1.00  0.00     0.011 A 
HETATM   29  C   UNL     1       6.565  25.516  56.912  1.00  0.00     0.011 A 
ENDBRANCH  22  27
ENDBRANCH   1  18
TORSDOF 10
ENDMDL
MODEL 6
REMARK VINA RESULT:      -7.9      2.271      7.409
REMARK  10 active torsions:
REMARK  status: ('A' for Active; 'I' for Inactive)
REMARK    1  A    between atoms: C_2  and  C_3 
REMARK    2  A    between atoms: C_3  and  N_4 
REMARK    3  A    between atoms: C_7  and  C_8 
REMARK       I    between atoms: C_8  and  N_9 
REMARK    4  A    between atoms: N_9  and  C_10 
REMARK    5  A    between atoms: C_10  and  C_11 
REMARK    6  A    between atoms: C_11  and  O_12 
REMARK    7  A    between atoms: C_11  and  C_13 
REMARK    8  A    between atoms: C_13  and  O_14 
REMARK    9  A    between atoms: O_14  and  C_15 
REMARK   10  A    between atoms: C_23  and  C_24 
ROOT
HETATM    1  C   UNL     1       5.089  29.709  56.279  1.00  0.00     0.255 C 
HETATM    2  N   UNL     1       5.613  29.563  55.009  1.00  0.00    -0.354 N 
HETATM    3  O   UNL     1       3.960  29.309  56.540  1.00  0.00    -0.268 OA
HETATM    4  H   UNL     1       6.536  29.928  54.815  1.00  0.00     0.162 HD
ENDROOT
BRANCH   2   5
HETATM    5  C   UNL     1       4.976  28.745  53.983  1.00  0.00     0.156 C 
BRANCH   5   6
HETATM    6  C   UNL     1       5.192  27.224  54.104  1.00  0.00     0.160 C 
BRANCH   6   7
HETATM    7  O   UNL     1       4.134  26.502  53.461  1.00  0.00    -0.392 OA
HETATM    8  H   UNL     1       3.456  26.287  54.137  1.00  0.00     0.210 HD
ENDBRANCH   6   7
BRANCH   6   9
HETATM    9  C   UNL     1       6.559  26.777  53.571  1.00  0.00     0.209 C 
BRANCH   9  10
HETATM   10  O   UNL     1       6.448  25.429  53.101  1.00  0.00    -0.349 OA
BRANCH  10  11
HETATM   11  C   UNL     1       7.200  24.487  53.745  1.00  0.00     0.069 A 
HETATM   12  C   UNL     1       7.284  23.257  53.087  1.00  0.00     0.043 A 
HETATM   13  C   UNL     1       8.027  22.199  53.626  1.00  0.00    -0.059 A 
HETATM   14  C   UNL     1       8.100  20.880  52.919  1.00  0.00     0.048 C 
HETATM   15  C   UNL     1       8.661  22.377  54.861  1.00  0.00     0.007 A 
HETATM   16  C   UNL     1       8.570  23.599  55.528  1.00  0.00     0.003 A 
HETATM   17  C   UNL     1       7.843  24.654  54.971  1.00  0.00     0.037 A 
ENDBRANCH  10  11
ENDBRANCH   9  10
ENDBRANCH   6   9
ENDBRANCH   5   6
ENDBRANCH   2   5
BRANCH   1  18
HETATM   18  C   UNL     1       5.985  30.340  57.238  1.00  0.00     0.075 A 
HETATM   19  C   UNL     1       5.909  31.695  57.651  1.00  0.00     0.158 A 
HETATM   20  N   UNL     1       6.851  32.041  58.518  1.00  0.00    -0.183 NA
HETATM   21  N   UNL     1       7.590  30.925  58.652  1.00  0.00    -0.268 N 
HETATM   22  C   UNL     1       7.090  29.851  57.932  1.00  0.00     0.052 A 
BRANCH  21  23
HETATM   23  C   UNL     1       8.830  30.982  59.427  1.00  0.00     0.106 C 
HETATM   24  C   UNL     1       8.662  31.641  60.803  1.00  0.00     0.034 C 
BRANCH  23  25
HETATM   25  C   UNL     1       9.981  31.607  58.615  1.00  0.00     0.022 C 
HETATM   26  C   UNL     1      10.610  30.691  57.571  1.00  0.00     0.007 C 
ENDBRANCH  23  25
ENDBRANCH  21  23
BRANCH  22  27
HETATM   27  C   UNL     1       7.712  28.450  57.988  1.00  0.00     0.038 A 
HETATM   28  C   UNL     1       6.996  27.268  57.381  1.00  0.00     0.011 A 
HETATM   29  C   UNL     1       8.249  27.779  56.750  1.00  0.00     0.011 A 
ENDBRANCH  22  27
ENDBRANCH   1  18
TORSDOF 10
ENDMDL
MODEL 7
REMARK VINA RESULT:      -7.9      1.873      3.200
REMARK  10 active torsions:
REMARK  status: ('A' for Active; 'I' for Inactive)
REMARK    1  A    between atoms: C_2  and  C_3 
REMARK    2  A    between atoms: C_3  and  N_4 
REMARK    3  A    between atoms: C_7  and  C_8 
REMARK       I    between atoms: C_8  and  N_9 
REMARK    4  A    between atoms: N_9  and  C_10 
REMARK    5  A    between atoms: C_10  and  C_11 
REMARK    6  A    between atoms: C_11  and  O_12 
REMARK    7  A    between atoms: C_11  and  C_13 
REMARK    8  A    between atoms: C_13  and  O_14 
REMARK    9  A    between atoms: O_14  and  C_15 
REMARK   10  A    between atoms: C_23  and  C_24 
ROOT
HETATM    1  C   UNL     1       7.236  26.891  54.998  1.00  0.00     0.255 C 
HETATM    2  N   UNL     1       6.243  27.525  55.720  1.00  0.00    -0.354 N 
HETATM    3  O   UNL     1       7.880  27.501  54.152  1.00  0.00    -0.268 OA
HETATM    4  H   UNL     1       5.709  26.989  56.392  1.00  0.00     0.162 HD
ENDROOT
BRANCH   2   5
HETATM    5  C   UNL     1       6.050  28.970  55.695  1.00  0.00     0.156 C 
BRANCH   5   6
HETATM    6  C   UNL     1       5.806  29.641  57.061  1.00  0.00     0.160 C 
BRANCH   6   7
HETATM    7  O   UNL     1       4.818  28.926  57.814  1.00  0.00    -0.392 OA
HETATM    8  H   UNL     1       4.688  28.049  57.392  1.00  0.00     0.210 HD
ENDBRANCH   6   7
BRANCH   6   9
HETATM    9  C   UNL     1       7.094  29.810  57.876  1.00  0.00     0.209 C 
BRANCH   9  10
HETATM   10  O   UNL     1       7.095  31.116  58.462  1.00  0.00    -0.349 OA
BRANCH  10  11
HETATM   11  C   UNL     1       7.683  31.240  59.690  1.00  0.00     0.069 A 
HETATM   12  C   UNL     1       7.092  32.190  60.528  1.00  0.00     0.043 A 
HETATM   13  C   UNL     1       7.584  32.420  61.818  1.00  0.00    -0.059 A 
HETATM   14  C   UNL     1       6.951  33.451  62.704  1.00  0.00     0.048 C 
HETATM   15  C   UNL     1       8.708  31.709  62.251  1.00  0.00     0.007 A 
HETATM   16  C   UNL     1       9.310  30.769  61.415  1.00  0.00     0.003 A 
HETATM   17  C   UNL     1       8.799  30.532  60.137  1.00  0.00     0.037 A 
ENDBRANCH  10  11
ENDBRANCH   9  10
ENDBRANCH   6   9
ENDBRANCH   5   6
ENDBRANCH   2   5
BRANCH   1  18
HETATM   18  C   UNL     1       7.443  25.493  55.345  1.00  0.00     0.075 A 
HETATM   19  C   UNL     1       8.006  25.032  56.563  1.00  0.00     0.158 A 
HETATM   20  N   UNL     1       8.111  23.711  56.636  1.00  0.00    -0.183 NA
HETATM   21  N   UNL     1       7.660  23.287  55.441  1.00  0.00    -0.268 N 
HETATM   22  C   UNL     1       7.204  24.318  54.634  1.00  0.00     0.052 A 
BRANCH  21  23
HETATM   23  C   UNL     1       7.776  21.869  55.100  1.00  0.00     0.106 C 
HETATM   24  C   UNL     1       8.017  20.964  56.317  1.00  0.00     0.034 C 
BRANCH  23  25
HETATM   25  C   UNL     1       8.812  21.635  53.983  1.00  0.00     0.022 C 
HETATM   26  C   UNL     1       8.358  20.706  52.863  1.00  0.00     0.007 C 
ENDBRANCH  23  25
ENDBRANCH  21  23
BRANCH  22  27
HETATM   27  C   UNL     1       6.568  24.078  53.259  1.00  0.00     0.038 A 
HETATM   28  C   UNL     1       5.446  24.961  52.768  1.00  0.00     0.011 A 
HETATM   29  C   UNL     1       6.787  25.035  52.115  1.00  0.00     0.011 A 
ENDBRANCH  22  27
ENDBRANCH   1  18
TORSDOF 10
ENDMDL
MODEL 8
REMARK VINA RESULT:      -7.7      5.080      8.710
REMARK  10 active torsions:
REMARK  status: ('A' for Active; 'I' for Inactive)
REMARK    1  A    between atoms: C_2  and  C_3 
REMARK    2  A    between atoms: C_3  and  N_4 
REMARK    3  A    between atoms: C_7  and  C_8 
REMARK       I    between atoms: C_8  and  N_9 
REMARK    4  A    between atoms: N_9  and  C_10 
REMARK    5  A    between atoms: C_10  and  C_11 
REMARK    6  A    between atoms: C_11  and  O_12 
REMARK    7  A    between atoms: C_11  and  C_13 
REMARK    8  A    between atoms: C_13  and  O_14 
REMARK    9  A    between atoms: O_14  and  C_15 
REMARK   10  A    between atoms: C_23  and  C_24 
ROOT
HETATM    1  C   UNL     1       4.990  26.588  50.996  1.00  0.00     0.255 C 
HETATM    2  N   UNL     1       4.392  26.504  52.239  1.00  0.00    -0.354 N 
HETATM    3  O   UNL     1       5.965  25.896  50.724  1.00  0.00    -0.268 OA
HETATM    4  H   UNL     1       3.607  27.108  52.445  1.00  0.00     0.162 HD
ENDROOT
BRANCH   2   5
HETATM    5  C   UNL     1       4.717  25.459  53.202  1.00  0.00     0.156 C 
BRANCH   5   6
HETATM    6  C   UNL     1       5.647  25.874  54.359  1.00  0.00     0.160 C 
BRANCH   6   7
HETATM    7  O   UNL     1       4.899  26.454  55.435  1.00  0.00    -0.392 OA
HETATM    8  H   UNL     1       3.976  26.588  55.128  1.00  0.00     0.210 HD
ENDBRANCH   6   7
BRANCH   6   9
HETATM    9  C   UNL     1       6.517  24.715  54.863  1.00  0.00     0.209 C 
BRANCH   9  10
HETATM   10  O   UNL     1       7.136  24.085  53.736  1.00  0.00    -0.349 OA
BRANCH  10  11
HETATM   11  C   UNL     1       7.567  22.799  53.908  1.00  0.00     0.069 A 
HETATM   12  C   UNL     1       7.775  22.427  55.239  1.00  0.00     0.043 A 
HETATM   13  C   UNL     1       8.210  21.137  55.568  1.00  0.00    -0.059 A 
HETATM   14  C   UNL     1       8.442  20.751  56.997  1.00  0.00     0.048 C 
HETATM   15  C   UNL     1       8.472  20.228  54.537  1.00  0.00     0.007 A 
HETATM   16  C   UNL     1       8.279  20.598  53.207  1.00  0.00     0.003 A 
HETATM   17  C   UNL     1       7.825  21.881  52.891  1.00  0.00     0.037 A 
ENDBRANCH  10  11
ENDBRANCH   9  10
ENDBRANCH   6   9
ENDBRANCH   5   6
ENDBRANCH   2   5
BRANCH   1  18
HETATM   18  C   UNL     1       4.361  27.526  50.079  1.00  0.00     0.075 A 
HETATM   19  C   UNL     1       4.052  28.877  50.383  1.00  0.00     0.158 A 
HETATM   20  N   UNL     1       3.460  29.525  49.388  1.00  0.00    -0.183 NA
HETATM   21  N   UNL     1       3.329  28.590  48.429  1.00  0.00    -0.268 N 
HETATM   22  C   UNL     1       3.893  27.372  48.774  1.00  0.00     0.052 A 
BRANCH  21  23
HETATM   23  C   UNL     1       2.566  28.912  47.222  1.00  0.00     0.106 C 
HETATM   24  C   UNL     1       3.067  30.169  46.497  1.00  0.00     0.034 C 
BRANCH  23  25
HETATM   25  C   UNL     1       1.051  28.963  47.503  1.00  0.00     0.022 C 
HETATM   26  C   UNL     1       0.177  28.255  46.475  1.00  0.00     0.007 C 
ENDBRANCH  23  25
ENDBRANCH  21  23
BRANCH  22  27
HETATM   27  C   UNL     1       3.942  26.176  47.815  1.00  0.00     0.038 A 
HETATM   28  C   UNL     1       3.222  24.893  48.153  1.00  0.00     0.011 A 
HETATM   29  C   UNL     1       2.727  25.747  47.033  1.00  0.00     0.011 A 
ENDBRANCH  22  27
ENDBRANCH   1  18
TORSDOF 10
ENDMDL
MODEL 9
REMARK VINA RESULT:      -7.6      1.588      2.133
REMARK  10 active torsions:
REMARK  status: ('A' for Active; 'I' for Inactive)
REMARK    1  A    between atoms: C_2  and  C_3 
REMARK    2  A    between atoms: C_3  and  N_4 
REMARK    3  A    between atoms: C_7  and  C_8 
REMARK       I    between atoms: C_8  and  N_9 
REMARK    4  A    between atoms: N_9  and  C_10 
REMARK    5  A    between atoms: C_10  and  C_11 
REMARK    6  A    between atoms: C_11  and  O_12 
REMARK    7  A    between atoms: C_11  and  C_13 
REMARK    8  A    between atoms: C_13  and  O_14 
REMARK    9  A    between atoms: O_14  and  C_15 
REMARK   10  A    between atoms: C_23  and  C_24 
ROOT
HETATM    1  C   UNL     1       7.310  27.315  54.310  1.00  0.00     0.255 C 
HETATM    2  N   UNL     1       6.153  27.502  55.042  1.00  0.00    -0.354 N 
HETATM    3  O   UNL     1       7.988  28.274  53.957  1.00  0.00    -0.268 OA
HETATM    4  H   UNL     1       5.599  26.694  55.295  1.00  0.00     0.162 HD
ENDROOT
BRANCH   2   5
HETATM    5  C   UNL     1       5.789  28.787  55.627  1.00  0.00     0.156 C 
BRANCH   5   6
HETATM    6  C   UNL     1       6.495  29.149  56.949  1.00  0.00     0.160 C 
BRANCH   6   7
HETATM    7  O   UNL     1       7.893  29.378  56.738  1.00  0.00    -0.392 OA
HETATM    8  H   UNL     1       8.013  29.715  55.824  1.00  0.00     0.210 HD
ENDBRANCH   6   7
BRANCH   6   9
HETATM    9  C   UNL     1       5.847  30.348  57.655  1.00  0.00     0.209 C 
BRANCH   9  10
HETATM   10  O   UNL     1       6.873  31.289  57.989  1.00  0.00    -0.349 OA
BRANCH  10  11
HETATM   11  C   UNL     1       7.033  31.583  59.315  1.00  0.00     0.069 A 
HETATM   12  C   UNL     1       8.069  30.889  59.946  1.00  0.00     0.043 A 
HETATM   13  C   UNL     1       8.354  31.094  61.302  1.00  0.00    -0.059 A 
HETATM   14  C   UNL     1       9.459  30.336  61.972  1.00  0.00     0.048 C 
HETATM   15  C   UNL     1       7.558  31.982  62.034  1.00  0.00     0.007 A 
HETATM   16  C   UNL     1       6.514  32.667  61.412  1.00  0.00     0.003 A 
HETATM   17  C   UNL     1       6.252  32.471  60.054  1.00  0.00     0.037 A 
ENDBRANCH  10  11
ENDBRANCH   9  10
ENDBRANCH   6   9
ENDBRANCH   5   6
ENDBRANCH   2   5
BRANCH   1  18
HETATM   18  C   UNL     1       7.637  25.925  54.031  1.00  0.00     0.075 A 
HETATM   19  C   UNL     1       7.873  25.389  52.739  1.00  0.00     0.158 A 
HETATM   20  N   UNL     1       8.131  24.087  52.741  1.00  0.00    -0.183 NA
HETATM   21  N   UNL     1       8.022  23.741  54.037  1.00  0.00    -0.268 N 
HETATM   22  C   UNL     1       7.765  24.818  54.870  1.00  0.00     0.052 A 
BRANCH  21  23
HETATM   23  C   UNL     1       8.092  22.325  54.402  1.00  0.00     0.106 C 
HETATM   24  C   UNL     1       9.478  21.887  54.894  1.00  0.00     0.034 C 
BRANCH  23  25
HETATM   25  C   UNL     1       7.558  21.420  53.275  1.00  0.00     0.022 C 
HETATM   26  C   UNL     1       8.512  20.322  52.818  1.00  0.00     0.007 C 
ENDBRANCH  23  25
ENDBRANCH  21  23
BRANCH  22  27
HETATM   27  C   UNL     1       7.679  24.688  56.396  1.00  0.00     0.038 A 
HETATM   28  C   UNL     1       8.929  24.505  57.221  1.00  0.00     0.011 A 
HETATM   29  C   UNL     1       8.167  25.786  57.305  1.00  0.00     0.011 A 
ENDBRANCH  22  27
ENDBRANCH   1  18
TORSDOF 10
ENDMDL
MODEL 10
REMARK VINA RESULT:      -7.5      2.121      7.812
REMARK  10 active torsions:
REMARK  status: ('A' for Active; 'I' for Inactive)
REMARK    1  A    between atoms: C_2  and  C_3 
REMARK    2  A    between atoms: C_3  and  N_4 
REMARK    3  A    between atoms: C_7  and  C_8 
REMARK       I    between atoms: C_8  and  N_9 
REMARK    4  A    between atoms: N_9  and  C_10 
REMARK    5  A    between atoms: C_10  and  C_11 
REMARK    6  A    between atoms: C_11  and  O_12 
REMARK    7  A    between atoms: C_11  and  C_13 
REMARK    8  A    between atoms: C_13  and  O_14 
REMARK    9  A    between atoms: O_14  and  C_15 
REMARK   10  A    between atoms: C_23  and  C_24 
ROOT
HETATM    1  C   UNL     1       5.947  27.832  56.481  1.00  0.00     0.255 C 
HETATM    2  N   UNL     1       5.835  28.072  55.124  1.00  0.00    -0.354 N 
HETATM    3  O   UNL     1       5.249  26.983  57.025  1.00  0.00    -0.268 OA
HETATM    4  H   UNL     1       6.404  28.797  54.708  1.00  0.00     0.162 HD
ENDROOT
BRANCH   2   5
HETATM    5  C   UNL     1       5.074  27.207  54.231  1.00  0.00     0.156 C 
BRANCH   5   6
HETATM    6  C   UNL     1       5.885  26.127  53.487  1.00  0.00     0.160 C 
BRANCH   6   7
HETATM    7  O   UNL     1       7.209  26.589  53.195  1.00  0.00    -0.392 OA
HETATM    8  H   UNL     1       7.713  26.627  54.037  1.00  0.00     0.210 HD
ENDBRANCH   6   7
BRANCH   6   9
HETATM    9  C   UNL     1       5.929  24.794  54.246  1.00  0.00     0.209 C 
BRANCH   9  10
HETATM   10  O   UNL     1       7.228  24.642  54.827  1.00  0.00    -0.349 OA
BRANCH  10  11
HETATM   11  C   UNL     1       7.655  23.364  55.058  1.00  0.00     0.069 A 
HETATM   12  C   UNL     1       7.753  22.565  53.916  1.00  0.00     0.043 A 
HETATM   13  C   UNL     1       8.184  21.236  53.999  1.00  0.00    -0.059 A 
HETATM   14  C   UNL     1       8.274  20.384  52.769  1.00  0.00     0.048 C 
HETATM   15  C   UNL     1       8.482  20.698  55.256  1.00  0.00     0.007 A 
HETATM   16  C   UNL     1       8.373  21.487  56.401  1.00  0.00     0.003 A 
HETATM   17  C   UNL     1       7.962  22.819  56.304  1.00  0.00     0.037 A 
ENDBRANCH  10  11
ENDBRANCH   9  10
ENDBRANCH   6   9
ENDBRANCH   5   6
ENDBRANCH   2   5
BRANCH   1  18
HETATM   18  C   UNL     1       6.948  28.639  57.162  1.00  0.00     0.075 A 
HETATM   19  C   UNL     1       8.291  28.247  57.390  1.00  0.00     0.158 A 
HETATM   20  N   UNL     1       9.005  29.149  58.052  1.00  0.00    -0.183 NA
HETATM   21  N   UNL     1       8.122  30.131  58.309  1.00  0.00    -0.268 N 
HETATM   22  C   UNL     1       6.871  29.897  57.760  1.00  0.00     0.052 A 
BRANCH  21  23
HETATM   23  C   UNL     1       8.526  31.241  59.174  1.00  0.00     0.106 C 
HETATM   24  C   UNL     1       9.930  31.778  58.866  1.00  0.00     0.034 C 
BRANCH  23  25
HETATM   25  C   UNL     1       8.346  30.894  60.665  1.00  0.00     0.022 C 
HETATM   26  C   UNL     1       9.464  31.377  61.582  1.00  0.00     0.007 C 
ENDBRANCH  23  25
ENDBRANCH  21  23
BRANCH  22  27
HETATM   27  C   UNL     1       5.722  30.909  57.848  1.00  0.00     0.038 A 
HETATM   28  C   UNL     1       5.105  31.479  56.594  1.00  0.00     0.011 A 
HETATM   29  C   UNL     1       4.318  30.538  57.445  1.00  0.00     0.011 A 
ENDBRANCH  22  27
ENDBRANCH   1  18
TORSDOF 10
ENDMDL
