MODEL 1
REMARK VINA RESULT:     -10.1      0.000      0.000
REMARK  5 active torsions:
REMARK  status: ('A' for Active; 'I' for Inactive)
REMARK    1  A    between atoms: C_18  and  C_19 
REMARK       I    between atoms: C_19  and  N_20 
REMARK    2  A    between atoms: N_20  and  C_21 
REMARK    3  A    between atoms: C_21  and  C_22 
REMARK    4  A    between atoms: C_22  and  C_23 
REMARK    5  A    between atoms: C_26  and  O_27 
ROOT
HETATM    1  C   UNL     1       9.251  29.272  54.980  1.00  0.00     0.016 C 
HETATM    2  C   UNL     1       7.948  28.581  55.287  1.00  0.00    -0.028 C 
HETATM    3  C   UNL     1       7.959  26.837  54.854  1.00  0.00     0.058 C 
HETATM    4  C   UNL     1       6.716  25.877  55.908  1.00  0.00     0.095 C 
HETATM    5  N   UNL     1       7.299  25.091  56.977  1.00  0.00    -0.334 N 
HETATM    6  C   UNL     1       8.117  24.023  56.733  1.00  0.00     0.255 C 
HETATM    7  O   UNL     1       8.871  23.576  57.587  1.00  0.00    -0.268 OA
HETATM    8  C   UNL     1       8.015  23.440  55.383  1.00  0.00     0.053 A 
HETATM    9  C   UNL     1       6.989  23.912  54.551  1.00  0.00     0.026 A 
HETATM   10  N   UNL     1       6.083  24.893  55.010  1.00  0.00    -0.265 NA
HETATM   11  C   UNL     1       8.891  22.435  54.969  1.00  0.00     0.019 A 
HETATM   12  C   UNL     1       8.743  21.882  53.700  1.00  0.00     0.001 A 
HETATM   13  C   UNL     1       7.707  22.315  52.871  1.00  0.00     0.002 A 
HETATM   14  C   UNL     1       6.820  23.309  53.302  1.00  0.00     0.024 A 
HETATM   15  C   UNL     1       5.508  26.958  56.573  1.00  0.00     0.030 C 
HETATM   16  C   UNL     1       5.509  28.653  57.045  1.00  0.00     0.009 C 
HETATM   17  C   UNL     1       6.695  29.676  55.959  1.00  0.00     0.010 C 
HETATM   18  C   UNL     1       7.620  27.993  56.535  1.00  0.00     0.086 C 
HETATM   19  C   UNL     1       6.004  27.705  55.493  1.00  0.00     0.023 C 
HETATM   20  H   UNL     1       7.376  25.479  57.908  1.00  0.00     0.164 HD
HETATM   21  H   UNL     1       5.559  25.310  54.247  1.00  0.00     0.130 HD
ENDROOT
BRANCH  18  22
HETATM   22  C   UNL     1       8.226  28.766  57.816  1.00  0.00     0.222 C 
HETATM   23  N   UNL     1       9.465  29.295  57.492  1.00  0.00    -0.360 N 
HETATM   24  H   UNL     1       9.787  29.208  56.537  1.00  0.00     0.162 HD
HETATM   25  O   UNL     1       7.766  28.858  58.943  1.00  0.00    -0.273 OA
BRANCH  23  26
HETATM   26  C   UNL     1      10.281  30.126  58.357  1.00  0.00     0.127 C 
BRANCH  26  27
HETATM   27  C   UNL     1       9.782  31.581  58.396  1.00  0.00     0.058 C 
BRANCH  27  28
HETATM   28  C   UNL     1       9.002  31.920  59.650  1.00  0.00    -0.057 A 
HETATM   29  C   UNL     1       9.610  31.907  60.910  1.00  0.00     0.010 A 
HETATM   30  C   UNL     1       8.843  32.106  62.063  1.00  0.00     0.037 A 
HETATM   31  C   UNL     1       7.468  32.338  61.977  1.00  0.00     0.068 A 
HETATM   32  C   UNL     1       6.861  32.361  60.724  1.00  0.00     0.037 A 
HETATM   33  C   UNL     1       7.623  32.155  59.570  1.00  0.00     0.010 A 
BRANCH  31  34
HETATM   34  O   UNL     1       6.834  32.504  63.178  1.00  0.00    -0.356 OA
HETATM   35  C   UNL     1       7.628  33.001  64.249  1.00  0.00     0.210 C 
ENDBRANCH  31  34
ENDBRANCH  27  28
ENDBRANCH  26  27
ENDBRANCH  23  26
ENDBRANCH  18  22
TORSDOF 5
ENDMDL
MODEL 2
REMARK VINA RESULT:      -9.7      3.519      8.870
REMARK  5 active torsions:
REMARK  status: ('A' for Active; 'I' for Inactive)
REMARK    1  A    between atoms: C_18  and  C_19 
REMARK       I    between atoms: C_19  and  N_20 
REMARK    2  A    between atoms: N_20  and  C_21 
REMARK    3  A    between atoms: C_21  and  C_22 
REMARK    4  A    between atoms: C_22  and  C_23 
REMARK    5  A    between atoms: C_26  and  O_27 
ROOT
HETATM    1  C   UNL     1       9.107  29.397  55.773  1.00  0.00     0.016 C 
HETATM    2  C   UNL     1       7.885  28.792  56.414  1.00  0.00    -0.028 C 
HETATM    3  C   UNL     1       6.621  30.009  56.802  1.00  0.00     0.058 C 
HETATM    4  C   UNL     1       4.910  29.204  56.848  1.00  0.00     0.095 C 
HETATM    5  N   UNL     1       4.081  29.464  55.688  1.00  0.00    -0.334 N 
HETATM    6  C   UNL     1       3.629  30.718  55.382  1.00  0.00     0.255 C 
HETATM    7  O   UNL     1       3.234  31.009  54.261  1.00  0.00    -0.268 OA
HETATM    8  C   UNL     1       3.635  31.684  56.495  1.00  0.00     0.053 A 
HETATM    9  C   UNL     1       3.932  31.194  57.776  1.00  0.00     0.026 A 
HETATM   10  N   UNL     1       4.192  29.821  57.979  1.00  0.00    -0.265 NA
HETATM   11  C   UNL     1       3.325  33.029  56.279  1.00  0.00     0.019 A 
HETATM   12  C   UNL     1       3.306  33.906  57.359  1.00  0.00     0.001 A 
HETATM   13  C   UNL     1       3.565  33.429  58.645  1.00  0.00     0.002 A 
HETATM   14  C   UNL     1       3.854  32.076  58.856  1.00  0.00     0.024 A 
HETATM   15  C   UNL     1       5.048  27.474  57.087  1.00  0.00     0.030 C 
HETATM   16  C   UNL     1       6.262  26.273  56.662  1.00  0.00     0.009 C 
HETATM   17  C   UNL     1       8.014  27.021  56.676  1.00  0.00     0.010 C 
HETATM   18  C   UNL     1       6.778  28.264  55.703  1.00  0.00     0.086 C 
HETATM   19  C   UNL     1       6.289  27.933  57.555  1.00  0.00     0.023 C 
HETATM   20  H   UNL     1       4.068  28.810  54.917  1.00  0.00     0.164 HD
HETATM   21  H   UNL     1       4.620  29.647  58.882  1.00  0.00     0.130 HD
ENDROOT
BRANCH  18  22
HETATM   22  C   UNL     1       7.162  27.549  54.307  1.00  0.00     0.222 C 
HETATM   23  N   UNL     1       6.038  26.939  53.776  1.00  0.00    -0.360 N 
HETATM   24  H   UNL     1       5.154  27.068  54.252  1.00  0.00     0.162 HD
HETATM   25  O   UNL     1       8.255  27.455  53.769  1.00  0.00    -0.273 OA
BRANCH  23  26
HETATM   26  C   UNL     1       5.967  26.267  52.492  1.00  0.00     0.127 C 
BRANCH  26  27
HETATM   27  C   UNL     1       5.618  24.776  52.641  1.00  0.00     0.058 C 
BRANCH  27  28
HETATM   28  C   UNL     1       6.692  23.971  53.344  1.00  0.00    -0.057 A 
HETATM   29  C   UNL     1       7.735  23.370  52.632  1.00  0.00     0.010 A 
HETATM   30  C   UNL     1       8.645  22.535  53.287  1.00  0.00     0.037 A 
HETATM   31  C   UNL     1       8.541  22.300  54.660  1.00  0.00     0.068 A 
HETATM   32  C   UNL     1       7.510  22.903  55.376  1.00  0.00     0.037 A 
HETATM   33  C   UNL     1       6.593  23.733  54.722  1.00  0.00     0.010 A 
BRANCH  31  34
HETATM   34  O   UNL     1       9.486  21.454  55.175  1.00  0.00    -0.356 OA
HETATM   35  C   UNL     1       9.050  20.567  56.198  1.00  0.00     0.210 C 
ENDBRANCH  31  34
ENDBRANCH  27  28
ENDBRANCH  26  27
ENDBRANCH  23  26
ENDBRANCH  18  22
TORSDOF 5
ENDMDL
MODEL 3
REMARK VINA RESULT:      -9.5      5.598      9.840
REMARK  5 active torsions:
REMARK  status: ('A' for Active; 'I' for Inactive)
REMARK    1  A    between atoms: C_18  and  C_19 
REMARK       I    between atoms: C_19  and  N_20 
REMARK    2  A    between atoms: N_20  and  C_21 
REMARK    3  A    between atoms: C_21  and  C_22 
REMARK    4  A    between atoms: C_22  and  C_23 
REMARK    5  A    between atoms: C_26  and  O_27 
ROOT
HETATM    1  C   UNL     1       1.663  28.113  49.283  1.00  0.00     0.016 C 
HETATM    2  C   UNL     1       2.888  28.968  49.482  1.00  0.00    -0.028 C 
HETATM    3  C   UNL     1       2.746  30.080  50.886  1.00  0.00     0.058 C 
HETATM    4  C   UNL     1       4.455  30.524  51.563  1.00  0.00     0.095 C 
HETATM    5  N   UNL     1       4.823  29.844  52.789  1.00  0.00    -0.334 N 
HETATM    6  C   UNL     1       4.157  30.052  53.965  1.00  0.00     0.255 C 
HETATM    7  O   UNL     1       4.223  29.261  54.896  1.00  0.00    -0.268 OA
HETATM    8  C   UNL     1       3.374  31.299  54.039  1.00  0.00     0.053 A 
HETATM    9  C   UNL     1       3.519  32.218  52.988  1.00  0.00     0.026 A 
HETATM   10  N   UNL     1       4.402  31.954  51.918  1.00  0.00    -0.265 NA
HETATM   11  C   UNL     1       2.545  31.561  55.132  1.00  0.00     0.019 A 
HETATM   12  C   UNL     1       1.847  32.763  55.185  1.00  0.00     0.001 A 
HETATM   13  C   UNL     1       2.006  33.704  54.166  1.00  0.00     0.002 A 
HETATM   14  C   UNL     1       2.855  33.442  53.084  1.00  0.00     0.024 A 
HETATM   15  C   UNL     1       5.689  30.245  50.351  1.00  0.00     0.030 C 
HETATM   16  C   UNL     1       5.852  29.122  49.006  1.00  0.00     0.009 C 
HETATM   17  C   UNL     1       4.158  28.702  48.242  1.00  0.00     0.010 C 
HETATM   18  C   UNL     1       4.024  28.588  50.239  1.00  0.00     0.086 C 
HETATM   19  C   UNL     1       4.529  30.341  49.568  1.00  0.00     0.023 C 
HETATM   20  H   UNL     1       5.360  28.988  52.753  1.00  0.00     0.164 HD
HETATM   21  H   UNL     1       4.232  32.569  51.129  1.00  0.00     0.130 HD
ENDROOT
BRANCH  18  22
HETATM   22  C   UNL     1       4.374  27.013  50.171  1.00  0.00     0.222 C 
HETATM   23  N   UNL     1       4.895  26.603  51.387  1.00  0.00    -0.360 N 
HETATM   24  H   UNL     1       4.921  27.272  52.146  1.00  0.00     0.162 HD
HETATM   25  O   UNL     1       4.291  26.251  49.221  1.00  0.00    -0.273 OA
BRANCH  23  26
HETATM   26  C   UNL     1       5.251  25.241  51.738  1.00  0.00     0.127 C 
BRANCH  26  27
HETATM   27  C   UNL     1       6.760  25.089  51.998  1.00  0.00     0.058 C 
BRANCH  27  28
HETATM   28  C   UNL     1       7.087  24.116  53.112  1.00  0.00    -0.057 A 
HETATM   29  C   UNL     1       6.741  24.388  54.441  1.00  0.00     0.010 A 
HETATM   30  C   UNL     1       7.158  23.532  55.465  1.00  0.00     0.037 A 
HETATM   31  C   UNL     1       7.908  22.388  55.182  1.00  0.00     0.068 A 
HETATM   32  C   UNL     1       8.246  22.108  53.861  1.00  0.00     0.037 A 
HETATM   33  C   UNL     1       7.837  22.966  52.834  1.00  0.00     0.010 A 
BRANCH  31  34
HETATM   34  O   UNL     1       8.262  21.644  56.275  1.00  0.00    -0.356 OA
HETATM   35  C   UNL     1       9.009  20.461  56.019  1.00  0.00     0.210 C 
ENDBRANCH  31  34
ENDBRANCH  27  28
ENDBRANCH  26  27
ENDBRANCH  23  26
ENDBRANCH  18  22
TORSDOF 5
ENDMDL
MODEL 4
REMARK VINA RESULT:      -9.3      4.111      7.951
REMARK  5 active torsions:
REMARK  status: ('A' for Active; 'I' for Inactive)
REMARK    1  A    between atoms: C_18  and  C_19 
REMARK       I    between atoms: C_19  and  N_20 
REMARK    2  A    between atoms: N_20  and  C_21 
REMARK    3  A    between atoms: C_21  and  C_22 
REMARK    4  A    between atoms: C_22  and  C_23 
REMARK    5  A    between atoms: C_26  and  O_27 
ROOT
HETATM    1  C   UNL     1       4.391  25.225  57.306  1.00  0.00     0.016 C 
HETATM    2  C   UNL     1       5.878  25.407  57.153  1.00  0.00    -0.028 C 
HETATM    3  C   UNL     1       6.659  24.068  56.244  1.00  0.00     0.058 C 
HETATM    4  C   UNL     1       8.254  24.661  55.419  1.00  0.00     0.095 C 
HETATM    5  N   UNL     1       8.156  24.890  53.991  1.00  0.00    -0.334 N 
HETATM    6  C   UNL     1       7.918  23.876  53.105  1.00  0.00     0.255 C 
HETATM    7  O   UNL     1       7.499  24.087  51.975  1.00  0.00    -0.268 OA
HETATM    8  C   UNL     1       8.216  22.519  53.599  1.00  0.00     0.053 A 
HETATM    9  C   UNL     1       8.864  22.409  54.839  1.00  0.00     0.026 A 
HETATM   10  N   UNL     1       9.229  23.564  55.565  1.00  0.00    -0.265 NA
HETATM   11  C   UNL     1       7.890  21.393  52.840  1.00  0.00     0.019 A 
HETATM   12  C   UNL     1       8.219  20.129  53.321  1.00  0.00     0.001 A 
HETATM   13  C   UNL     1       8.893  20.003  54.536  1.00  0.00     0.002 A 
HETATM   14  C   UNL     1       9.235  21.138  55.281  1.00  0.00     0.024 A 
HETATM   15  C   UNL     1       8.850  26.111  56.200  1.00  0.00     0.030 C 
HETATM   16  C   UNL     1       8.082  27.450  57.047  1.00  0.00     0.009 C 
HETATM   17  C   UNL     1       6.508  26.883  57.957  1.00  0.00     0.010 C 
HETATM   18  C   UNL     1       6.500  26.125  56.101  1.00  0.00     0.086 C 
HETATM   19  C   UNL     1       8.014  25.571  57.189  1.00  0.00     0.023 C 
HETATM   20  H   UNL     1       7.951  25.816  53.638  1.00  0.00     0.164 HD
HETATM   21  H   UNL     1       9.463  23.346  56.528  1.00  0.00     0.130 HD
ENDROOT
BRANCH  18  22
HETATM   22  C   UNL     1       5.665  27.406  55.583  1.00  0.00     0.222 C 
HETATM   23  N   UNL     1       6.091  27.752  54.312  1.00  0.00    -0.360 N 
HETATM   24  H   UNL     1       6.772  27.157  53.858  1.00  0.00     0.162 HD
HETATM   25  O   UNL     1       4.826  28.065  56.178  1.00  0.00    -0.273 OA
BRANCH  23  26
HETATM   26  C   UNL     1       5.521  28.798  53.484  1.00  0.00     0.127 C 
BRANCH  26  27
HETATM   27  C   UNL     1       4.165  28.385  52.886  1.00  0.00     0.058 C 
BRANCH  27  28
HETATM   28  C   UNL     1       4.258  27.894  51.456  1.00  0.00    -0.057 A 
HETATM   29  C   UNL     1       3.590  28.550  50.416  1.00  0.00     0.010 A 
HETATM   30  C   UNL     1       3.595  28.010  49.126  1.00  0.00     0.037 A 
HETATM   31  C   UNL     1       4.276  26.823  48.849  1.00  0.00     0.068 A 
HETATM   32  C   UNL     1       4.951  26.171  49.879  1.00  0.00     0.037 A 
HETATM   33  C   UNL     1       4.942  26.704  51.172  1.00  0.00     0.010 A 
BRANCH  31  34
HETATM   34  O   UNL     1       4.191  26.397  47.552  1.00  0.00    -0.356 OA
HETATM   35  C   UNL     1       2.885  26.115  47.063  1.00  0.00     0.210 C 
ENDBRANCH  31  34
ENDBRANCH  27  28
ENDBRANCH  26  27
ENDBRANCH  23  26
ENDBRANCH  18  22
TORSDOF 5
ENDMDL
MODEL 5
REMARK VINA RESULT:      -9.2      2.036      8.957
REMARK  5 active torsions:
REMARK  status: ('A' for Active; 'I' for Inactive)
REMARK    1  A    between atoms: C_18  and  C_19 
REMARK       I    between atoms: C_19  and  N_20 
REMARK    2  A    between atoms: N_20  and  C_21 
REMARK    3  A    between atoms: C_21  and  C_22 
REMARK    4  A    between atoms: C_22  and  C_23 
REMARK    5  A    between atoms: C_26  and  O_27 
ROOT
HETATM    1  C   UNL     1       7.628  26.318  57.423  1.00  0.00     0.016 C 
HETATM    2  C   UNL     1       6.898  27.633  57.342  1.00  0.00    -0.028 C 
HETATM    3  C   UNL     1       7.390  28.788  58.628  1.00  0.00     0.058 C 
HETATM    4  C   UNL     1       7.094  30.572  58.073  1.00  0.00     0.095 C 
HETATM    5  N   UNL     1       8.287  31.295  57.679  1.00  0.00    -0.334 N 
HETATM    6  C   UNL     1       9.283  31.596  58.566  1.00  0.00     0.255 C 
HETATM    7  O   UNL     1      10.413  31.887  58.198  1.00  0.00    -0.268 OA
HETATM    8  C   UNL     1       8.898  31.562  59.989  1.00  0.00     0.053 A 
HETATM    9  C   UNL     1       7.537  31.398  60.287  1.00  0.00     0.026 A 
HETATM   10  N   UNL     1       6.581  31.294  59.253  1.00  0.00    -0.265 NA
HETATM   11  C   UNL     1       9.855  31.718  60.994  1.00  0.00     0.019 A 
HETATM   12  C   UNL     1       9.451  31.716  62.325  1.00  0.00     0.001 A 
HETATM   13  C   UNL     1       8.097  31.589  62.640  1.00  0.00     0.002 A 
HETATM   14  C   UNL     1       7.142  31.453  61.625  1.00  0.00     0.024 A 
HETATM   15  C   UNL     1       5.924  30.627  56.771  1.00  0.00     0.030 C 
HETATM   16  C   UNL     1       5.477  29.518  55.479  1.00  0.00     0.009 C 
HETATM   17  C   UNL     1       5.687  27.703  56.019  1.00  0.00     0.010 C 
HETATM   18  C   UNL     1       7.314  28.741  56.561  1.00  0.00     0.086 C 
HETATM   19  C   UNL     1       5.655  29.378  57.351  1.00  0.00     0.023 C 
HETATM   20  H   UNL     1       8.563  31.327  56.707  1.00  0.00     0.164 HD
HETATM   21  H   UNL     1       5.692  30.944  59.595  1.00  0.00     0.130 HD
ENDROOT
BRANCH  18  22
HETATM   22  C   UNL     1       8.029  28.345  55.169  1.00  0.00     0.222 C 
HETATM   23  N   UNL     1       7.429  27.211  54.648  1.00  0.00    -0.360 N 
HETATM   24  H   UNL     1       6.620  26.835  55.127  1.00  0.00     0.162 HD
HETATM   25  O   UNL     1       8.993  28.865  54.628  1.00  0.00    -0.273 OA
BRANCH  23  26
HETATM   26  C   UNL     1       7.741  26.600  53.370  1.00  0.00     0.127 C 
BRANCH  26  27
HETATM   27  C   UNL     1       6.792  25.436  53.040  1.00  0.00     0.058 C 
BRANCH  27  28
HETATM   28  C   UNL     1       7.280  24.094  53.548  1.00  0.00    -0.057 A 
HETATM   29  C   UNL     1       7.811  23.136  52.677  1.00  0.00     0.010 A 
HETATM   30  C   UNL     1       8.144  21.863  53.151  1.00  0.00     0.037 A 
HETATM   31  C   UNL     1       7.971  21.532  54.496  1.00  0.00     0.068 A 
HETATM   32  C   UNL     1       7.451  22.485  55.369  1.00  0.00     0.037 A 
HETATM   33  C   UNL     1       7.110  23.757  54.897  1.00  0.00     0.010 A 
BRANCH  31  34
HETATM   34  O   UNL     1       8.323  20.251  54.826  1.00  0.00    -0.356 OA
HETATM   35  C   UNL     1       8.395  19.953  56.215  1.00  0.00     0.210 C 
ENDBRANCH  31  34
ENDBRANCH  27  28
ENDBRANCH  26  27
ENDBRANCH  23  26
ENDBRANCH  18  22
TORSDOF 5
ENDMDL
MODEL 6
REMARK VINA RESULT:      -8.8      5.558      9.716
REMARK  5 active torsions:
REMARK  status: ('A' for Active; 'I' for Inactive)
REMARK    1  A    between atoms: C_18  and  C_19 
REMARK       I    between atoms: C_19  and  N_20 
REMARK    2  A    between atoms: N_20  and  C_21 
REMARK    3  A    between atoms: C_21  and  C_22 
REMARK    4  A    between atoms: C_22  and  C_23 
REMARK    5  A    between atoms: C_26  and  O_27 
ROOT
HETATM    1  C   UNL     1       5.963  37.487  62.810  1.00  0.00     0.016 C 
HETATM    2  C   UNL     1       4.774  36.586  62.600  1.00  0.00    -0.028 C 
HETATM    3  C   UNL     1       4.358  36.366  60.865  1.00  0.00     0.058 C 
HETATM    4  C   UNL     1       3.456  34.726  60.596  1.00  0.00     0.095 C 
HETATM    5  N   UNL     1       4.262  33.674  60.009  1.00  0.00    -0.334 N 
HETATM    6  C   UNL     1       4.760  33.762  58.738  1.00  0.00     0.255 C 
HETATM    7  O   UNL     1       5.696  33.071  58.360  1.00  0.00    -0.268 OA
HETATM    8  C   UNL     1       4.081  34.728  57.855  1.00  0.00     0.053 A 
HETATM    9  C   UNL     1       2.907  35.328  58.335  1.00  0.00     0.026 A 
HETATM   10  N   UNL     1       2.395  34.993  59.608  1.00  0.00    -0.265 NA
HETATM   11  C   UNL     1       4.578  35.006  56.581  1.00  0.00     0.019 A 
HETATM   12  C   UNL     1       3.892  35.897  55.761  1.00  0.00     0.001 A 
HETATM   13  C   UNL     1       2.704  36.477  56.208  1.00  0.00     0.002 A 
HETATM   14  C   UNL     1       2.202  36.177  57.480  1.00  0.00     0.024 A 
HETATM   15  C   UNL     1       2.758  34.153  62.097  1.00  0.00     0.030 C 
HETATM   16  C   UNL     1       3.193  34.324  63.794  1.00  0.00     0.009 C 
HETATM   17  C   UNL     1       4.039  35.998  64.128  1.00  0.00     0.010 C 
HETATM   18  C   UNL     1       4.841  35.174  62.485  1.00  0.00     0.086 C 
HETATM   19  C   UNL     1       2.931  35.520  62.360  1.00  0.00     0.023 C 
HETATM   20  H   UNL     1       4.734  33.005  60.602  1.00  0.00     0.164 HD
HETATM   21  H   UNL     1       1.698  35.661  59.922  1.00  0.00     0.130 HD
ENDROOT
BRANCH  18  22
HETATM   22  C   UNL     1       5.985  34.485  63.391  1.00  0.00     0.222 C 
HETATM   23  N   UNL     1       6.583  33.459  62.678  1.00  0.00    -0.360 N 
HETATM   24  H   UNL     1       6.306  33.322  61.715  1.00  0.00     0.162 HD
HETATM   25  O   UNL     1       6.292  34.722  64.550  1.00  0.00    -0.273 OA
BRANCH  23  26
HETATM   26  C   UNL     1       7.709  32.662  63.127  1.00  0.00     0.127 C 
BRANCH  26  27
HETATM   27  C   UNL     1       7.721  31.267  62.479  1.00  0.00     0.058 C 
BRANCH  27  28
HETATM   28  C   UNL     1       8.527  31.202  61.197  1.00  0.00    -0.057 A 
HETATM   29  C   UNL     1       9.676  31.980  61.020  1.00  0.00     0.010 A 
HETATM   30  C   UNL     1      10.334  31.992  59.786  1.00  0.00     0.037 A 
HETATM   31  C   UNL     1       9.869  31.219  58.719  1.00  0.00     0.068 A 
HETATM   32  C   UNL     1       8.731  30.436  58.893  1.00  0.00     0.037 A 
HETATM   33  C   UNL     1       8.066  30.427  60.124  1.00  0.00     0.010 A 
BRANCH  31  34
HETATM   34  O   UNL     1      10.595  31.331  57.565  1.00  0.00    -0.356 OA
HETATM   35  C   UNL     1      10.608  30.193  56.712  1.00  0.00     0.210 C 
ENDBRANCH  31  34
ENDBRANCH  27  28
ENDBRANCH  26  27
ENDBRANCH  23  26
ENDBRANCH  18  22
TORSDOF 5
ENDMDL
MODEL 7
REMARK VINA RESULT:      -8.7      4.561      6.313
REMARK  5 active torsions:
REMARK  status: ('A' for Active; 'I' for Inactive)
REMARK    1  A    between atoms: C_18  and  C_19 
REMARK       I    between atoms: C_19  and  N_20 
REMARK    2  A    between atoms: N_20  and  C_21 
REMARK    3  A    between atoms: C_21  and  C_22 
REMARK    4  A    between atoms: C_22  and  C_23 
REMARK    5  A    between atoms: C_26  and  O_27 
ROOT
HETATM    1  C   UNL     1       4.589  27.968  55.282  1.00  0.00     0.016 C 
HETATM    2  C   UNL     1       4.705  27.138  54.030  1.00  0.00    -0.028 C 
HETATM    3  C   UNL     1       4.043  27.963  52.577  1.00  0.00     0.058 C 
HETATM    4  C   UNL     1       4.865  27.309  51.004  1.00  0.00     0.095 C 
HETATM    5  N   UNL     1       5.860  28.189  50.423  1.00  0.00    -0.334 N 
HETATM    6  C   UNL     1       5.535  29.412  49.904  1.00  0.00     0.255 C 
HETATM    7  O   UNL     1       6.375  30.285  49.730  1.00  0.00    -0.268 OA
HETATM    8  C   UNL     1       4.116  29.596  49.552  1.00  0.00     0.053 A 
HETATM    9  C   UNL     1       3.281  28.470  49.619  1.00  0.00     0.026 A 
HETATM   10  N   UNL     1       3.800  27.210  49.989  1.00  0.00    -0.265 NA
HETATM   11  C   UNL     1       3.635  30.841  49.141  1.00  0.00     0.019 A 
HETATM   12  C   UNL     1       2.297  30.971  48.783  1.00  0.00     0.001 A 
HETATM   13  C   UNL     1       1.460  29.854  48.811  1.00  0.00     0.002 A 
HETATM   14  C   UNL     1       1.954  28.605  49.205  1.00  0.00     0.024 A 
HETATM   15  C   UNL     1       5.579  25.735  51.291  1.00  0.00     0.030 C 
HETATM   16  C   UNL     1       6.273  24.944  52.701  1.00  0.00     0.009 C 
HETATM   17  C   UNL     1       5.424  25.517  54.307  1.00  0.00     0.010 C 
HETATM   18  C   UNL     1       5.835  27.120  53.175  1.00  0.00     0.086 C 
HETATM   19  C   UNL     1       4.648  25.827  52.337  1.00  0.00     0.023 C 
HETATM   20  H   UNL     1       6.837  28.074  50.655  1.00  0.00     0.164 HD
HETATM   21  H   UNL     1       3.063  26.554  50.228  1.00  0.00     0.130 HD
ENDROOT
BRANCH  18  22
HETATM   22  C   UNL     1       7.249  27.292  53.935  1.00  0.00     0.222 C 
HETATM   23  N   UNL     1       7.306  28.544  54.524  1.00  0.00    -0.360 N 
HETATM   24  H   UNL     1       6.484  29.132  54.479  1.00  0.00     0.162 HD
HETATM   25  O   UNL     1       8.196  26.522  53.974  1.00  0.00    -0.273 OA
BRANCH  23  26
HETATM   26  C   UNL     1       8.383  29.035  55.364  1.00  0.00     0.127 C 
BRANCH  26  27
HETATM   27  C   UNL     1       8.264  28.525  56.810  1.00  0.00     0.058 C 
BRANCH  27  28
HETATM   28  C   UNL     1       7.788  29.580  57.787  1.00  0.00    -0.057 A 
HETATM   29  C   UNL     1       6.581  30.261  57.591  1.00  0.00     0.010 A 
HETATM   30  C   UNL     1       6.221  31.313  58.440  1.00  0.00     0.037 A 
HETATM   31  C   UNL     1       7.045  31.689  59.503  1.00  0.00     0.068 A 
HETATM   32  C   UNL     1       8.243  31.008  59.708  1.00  0.00     0.037 A 
HETATM   33  C   UNL     1       8.610  29.961  58.856  1.00  0.00     0.010 A 
BRANCH  31  34
HETATM   34  O   UNL     1       6.583  32.740  60.248  1.00  0.00    -0.356 OA
HETATM   35  C   UNL     1       7.138  32.884  61.550  1.00  0.00     0.210 C 
ENDBRANCH  31  34
ENDBRANCH  27  28
ENDBRANCH  26  27
ENDBRANCH  23  26
ENDBRANCH  18  22
TORSDOF 5
ENDMDL
MODEL 8
REMARK VINA RESULT:      -8.5      4.751      8.770
REMARK  5 active torsions:
REMARK  status: ('A' for Active; 'I' for Inactive)
REMARK    1  A    between atoms: C_18  and  C_19 
REMARK       I    between atoms: C_19  and  N_20 
REMARK    2  A    between atoms: N_20  and  C_21 
REMARK    3  A    between atoms: C_21  and  C_22 
REMARK    4  A    between atoms: C_22  and  C_23 
REMARK    5  A    between atoms: C_26  and  O_27 
ROOT
HETATM    1  C   UNL     1       4.390  28.083  55.312  1.00  0.00     0.016 C 
HETATM    2  C   UNL     1       4.529  27.290  54.038  1.00  0.00    -0.028 C 
HETATM    3  C   UNL     1       3.922  28.172  52.594  1.00  0.00     0.058 C 
HETATM    4  C   UNL     1       4.779  27.554  51.025  1.00  0.00     0.095 C 
HETATM    5  N   UNL     1       5.803  28.436  50.500  1.00  0.00    -0.334 N 
HETATM    6  C   UNL     1       5.512  29.680  50.012  1.00  0.00     0.255 C 
HETATM    7  O   UNL     1       6.369  30.545  49.890  1.00  0.00    -0.268 OA
HETATM    8  C   UNL     1       4.106  29.898  49.627  1.00  0.00     0.053 A 
HETATM    9  C   UNL     1       3.252  28.785  49.634  1.00  0.00     0.026 A 
HETATM   10  N   UNL     1       3.741  27.505  49.978  1.00  0.00    -0.265 NA
HETATM   11  C   UNL     1       3.657  31.163  49.242  1.00  0.00     0.019 A 
HETATM   12  C   UNL     1       2.331  31.326  48.851  1.00  0.00     0.001 A 
HETATM   13  C   UNL     1       1.477  30.223  48.820  1.00  0.00     0.002 A 
HETATM   14  C   UNL     1       1.940  28.954  49.187  1.00  0.00     0.024 A 
HETATM   15  C   UNL     1       5.460  25.961  51.281  1.00  0.00     0.030 C 
HETATM   16  C   UNL     1       6.101  25.114  52.684  1.00  0.00     0.009 C 
HETATM   17  C   UNL     1       5.215  25.650  54.283  1.00  0.00     0.010 C 
HETATM   18  C   UNL     1       5.683  27.281  53.215  1.00  0.00     0.086 C 
HETATM   19  C   UNL     1       4.501  26.035  52.303  1.00  0.00     0.023 C 
HETATM   20  H   UNL     1       6.771  28.298  50.756  1.00  0.00     0.164 HD
HETATM   21  H   UNL     1       2.988  26.854  50.175  1.00  0.00     0.130 HD
ENDROOT
BRANCH  18  22
HETATM   22  C   UNL     1       7.077  27.406  54.019  1.00  0.00     0.222 C 
HETATM   23  N   UNL     1       6.948  26.809  55.262  1.00  0.00    -0.360 N 
HETATM   24  H   UNL     1       6.082  26.330  55.475  1.00  0.00     0.162 HD
HETATM   25  O   UNL     1       8.103  27.978  53.688  1.00  0.00    -0.273 OA
BRANCH  23  26
HETATM   26  C   UNL     1       8.010  26.648  56.237  1.00  0.00     0.127 C 
BRANCH  26  27
HETATM   27  C   UNL     1       7.797  25.407  57.122  1.00  0.00     0.058 C 
BRANCH  27  28
HETATM   28  C   UNL     1       8.042  24.099  56.398  1.00  0.00    -0.057 A 
HETATM   29  C   UNL     1       8.085  22.883  57.088  1.00  0.00     0.010 A 
HETATM   30  C   UNL     1       8.430  21.705  56.416  1.00  0.00     0.037 A 
HETATM   31  C   UNL     1       8.719  21.718  55.050  1.00  0.00     0.068 A 
HETATM   32  C   UNL     1       8.668  22.925  54.357  1.00  0.00     0.037 A 
HETATM   33  C   UNL     1       8.331  24.106  55.026  1.00  0.00     0.010 A 
BRANCH  31  34
HETATM   34  O   UNL     1       9.054  20.502  54.519  1.00  0.00    -0.356 OA
HETATM   35  C   UNL     1       8.692  20.284  53.161  1.00  0.00     0.210 C 
ENDBRANCH  31  34
ENDBRANCH  27  28
ENDBRANCH  26  27
ENDBRANCH  23  26
ENDBRANCH  18  22
TORSDOF 5
ENDMDL
MODEL 9
REMARK VINA RESULT:      -8.5      4.097      9.507
REMARK  5 active torsions:
REMARK  status: ('A' for Active; 'I' for Inactive)
REMARK    1  A    between atoms: C_18  and  C_19 
REMARK       I    between atoms: C_19  and  N_20 
REMARK    2  A    between atoms: N_20  and  C_21 
REMARK    3  A    between atoms: C_21  and  C_22 
REMARK    4  A    between atoms: C_22  and  C_23 
REMARK    5  A    between atoms: C_26  and  O_27 
ROOT
HETATM    1  C   UNL     1       6.461  35.579  63.257  1.00  0.00     0.016 C 
HETATM    2  C   UNL     1       5.477  34.511  62.854  1.00  0.00    -0.028 C 
HETATM    3  C   UNL     1       4.507  34.960  61.409  1.00  0.00     0.058 C 
HETATM    4  C   UNL     1       3.908  33.414  60.499  1.00  0.00     0.095 C 
HETATM    5  N   UNL     1       4.632  33.101  59.283  1.00  0.00    -0.334 N 
HETATM    6  C   UNL     1       4.603  33.919  58.188  1.00  0.00     0.255 C 
HETATM    7  O   UNL     1       5.452  33.854  57.309  1.00  0.00    -0.268 OA
HETATM    8  C   UNL     1       3.475  34.866  58.131  1.00  0.00     0.053 A 
HETATM    9  C   UNL     1       2.464  34.726  59.095  1.00  0.00     0.026 A 
HETATM   10  N   UNL     1       2.528  33.699  60.062  1.00  0.00    -0.265 NA
HETATM   11  C   UNL     1       3.408  35.842  57.135  1.00  0.00     0.019 A 
HETATM   12  C   UNL     1       2.311  36.696  57.091  1.00  0.00     0.001 A 
HETATM   13  C   UNL     1       1.280  36.550  58.020  1.00  0.00     0.002 A 
HETATM   14  C   UNL     1       1.345  35.556  59.003  1.00  0.00     0.024 A 
HETATM   15  C   UNL     1       3.932  32.024  61.565  1.00  0.00     0.030 C 
HETATM   16  C   UNL     1       4.914  31.559  62.949  1.00  0.00     0.009 C 
HETATM   17  C   UNL     1       5.481  33.083  63.941  1.00  0.00     0.010 C 
HETATM   18  C   UNL     1       5.771  33.428  61.988  1.00  0.00     0.086 C 
HETATM   19  C   UNL     1       3.919  33.089  62.478  1.00  0.00     0.023 C 
HETATM   20  H   UNL     1       5.408  32.453  59.308  1.00  0.00     0.164 HD
HETATM   21  H   UNL     1       1.879  33.859  60.825  1.00  0.00     0.130 HD
ENDROOT
BRANCH  18  22
HETATM   22  C   UNL     1       7.278  32.863  62.114  1.00  0.00     0.222 C 
HETATM   23  N   UNL     1       7.812  32.687  60.848  1.00  0.00    -0.360 N 
HETATM   24  H   UNL     1       7.262  32.984  60.052  1.00  0.00     0.162 HD
HETATM   25  O   UNL     1       7.897  32.550  63.119  1.00  0.00    -0.273 OA
BRANCH  23  26
HETATM   26  C   UNL     1       9.171  32.273  60.554  1.00  0.00     0.127 C 
BRANCH  26  27
HETATM   27  C   UNL     1       9.278  30.753  60.344  1.00  0.00     0.058 C 
BRANCH  27  28
HETATM   28  C   UNL     1       9.138  30.331  58.896  1.00  0.00    -0.057 A 
HETATM   29  C   UNL     1       7.967  29.728  58.423  1.00  0.00     0.010 A 
HETATM   30  C   UNL     1       7.905  29.240  57.114  1.00  0.00     0.037 A 
HETATM   31  C   UNL     1       8.999  29.359  56.253  1.00  0.00     0.068 A 
HETATM   32  C   UNL     1      10.164  29.967  56.716  1.00  0.00     0.037 A 
HETATM   33  C   UNL     1      10.231  30.450  58.027  1.00  0.00     0.010 A 
BRANCH  31  34
HETATM   34  O   UNL     1       8.812  28.830  55.006  1.00  0.00    -0.356 OA
HETATM   35  C   UNL     1       7.524  28.292  54.732  1.00  0.00     0.210 C 
ENDBRANCH  31  34
ENDBRANCH  27  28
ENDBRANCH  26  27
ENDBRANCH  23  26
ENDBRANCH  18  22
TORSDOF 5
ENDMDL
MODEL 10
REMARK VINA RESULT:      -8.3      7.632     11.113
REMARK  5 active torsions:
REMARK  status: ('A' for Active; 'I' for Inactive)
REMARK    1  A    between atoms: C_18  and  C_19 
REMARK       I    between atoms: C_19  and  N_20 
REMARK    2  A    between atoms: N_20  and  C_21 
REMARK    3  A    between atoms: C_21  and  C_22 
REMARK    4  A    between atoms: C_22  and  C_23 
REMARK    5  A    between atoms: C_26  and  O_27 
ROOT
HETATM    1  C   UNL     1       2.708  25.586  47.775  1.00  0.00     0.016 C 
HETATM    2  C   UNL     1       3.404  26.911  47.598  1.00  0.00    -0.028 C 
HETATM    3  C   UNL     1       2.260  28.280  47.380  1.00  0.00     0.058 C 
HETATM    4  C   UNL     1       3.050  29.907  47.932  1.00  0.00     0.095 C 
HETATM    5  N   UNL     1       2.598  30.401  49.217  1.00  0.00    -0.334 N 
HETATM    6  C   UNL     1       1.308  30.802  49.430  1.00  0.00     0.255 C 
HETATM    7  O   UNL     1       0.835  30.891  50.555  1.00  0.00    -0.268 OA
HETATM    8  C   UNL     1       0.539  31.136  48.218  1.00  0.00     0.053 A 
HETATM    9  C   UNL     1       1.235  31.177  47.000  1.00  0.00     0.026 A 
HETATM   10  N   UNL     1       2.624  30.927  46.957  1.00  0.00    -0.265 NA
HETATM   11  C   UNL     1      -0.825  31.428  48.293  1.00  0.00     0.019 A 
HETATM   12  C   UNL     1      -1.512  31.773  47.133  1.00  0.00     0.001 A 
HETATM   13  C   UNL     1      -0.829  31.852  45.919  1.00  0.00     0.002 A 
HETATM   14  C   UNL     1       0.542  31.578  45.856  1.00  0.00     0.024 A 
HETATM   15  C   UNL     1       4.797  29.770  47.944  1.00  0.00     0.030 C 
HETATM   16  C   UNL     1       5.919  28.440  48.207  1.00  0.00     0.009 C 
HETATM   17  C   UNL     1       5.194  26.788  47.597  1.00  0.00     0.010 C 
HETATM   18  C   UNL     1       3.801  27.763  48.659  1.00  0.00     0.086 C 
HETATM   19  C   UNL     1       4.429  28.721  47.088  1.00  0.00     0.023 C 
HETATM   20  H   UNL     1       3.116  30.180  50.057  1.00  0.00     0.164 HD
HETATM   21  H   UNL     1       2.946  30.753  46.010  1.00  0.00     0.130 HD
ENDROOT
BRANCH  18  22
HETATM   22  C   UNL     1       4.278  26.989  49.993  1.00  0.00     0.222 C 
HETATM   23  N   UNL     1       4.285  27.870  51.061  1.00  0.00    -0.360 N 
HETATM   24  H   UNL     1       3.941  28.810  50.907  1.00  0.00     0.162 HD
HETATM   25  O   UNL     1       4.656  25.834  50.114  1.00  0.00    -0.273 OA
BRANCH  23  26
HETATM   26  C   UNL     1       4.578  27.526  52.439  1.00  0.00     0.127 C 
BRANCH  26  27
HETATM   27  C   UNL     1       6.090  27.509  52.721  1.00  0.00     0.058 C 
BRANCH  27  28
HETATM   28  C   UNL     1       6.608  26.156  53.166  1.00  0.00    -0.057 A 
HETATM   29  C   UNL     1       7.416  25.376  52.332  1.00  0.00     0.010 A 
HETATM   30  C   UNL     1       7.782  24.083  52.718  1.00  0.00     0.037 A 
HETATM   31  C   UNL     1       7.366  23.555  53.942  1.00  0.00     0.068 A 
HETATM   32  C   UNL     1       6.569  24.332  54.780  1.00  0.00     0.037 A 
HETATM   33  C   UNL     1       6.194  25.623  54.394  1.00  0.00     0.010 A 
BRANCH  31  34
HETATM   34  O   UNL     1       7.782  22.276  54.192  1.00  0.00    -0.356 OA
HETATM   35  C   UNL     1       7.915  21.422  53.062  1.00  0.00     0.210 C 
ENDBRANCH  31  34
ENDBRANCH  27  28
ENDBRANCH  26  27
ENDBRANCH  23  26
ENDBRANCH  18  22
TORSDOF 5
ENDMDL
