MODEL 1
REMARK VINA RESULT:      -9.9      0.000      0.000
REMARK  8 active torsions:
REMARK  status: ('A' for Active; 'I' for Inactive)
REMARK    1  A    between atoms: C_2  and  C_3 
REMARK    2  A    between atoms: C_3  and  N_4 
REMARK       I    between atoms: N_4  and  C_5 
REMARK    3  A    between atoms: C_5  and  C_6 
REMARK    4  A    between atoms: C_7  and  N_8 
REMARK    5  A    between atoms: N_11  and  C_12 
REMARK    6  A    between atoms: C_13  and  O_14 
REMARK    7  A    between atoms: C_24  and  N_25 
REMARK       I    between atoms: N_25  and  C_26 
REMARK       I    between atoms: C_26  and  N_27 
REMARK    8  A    between atoms: N_27  and  C_28 
ROOT
HETATM    1  C   UNL     1       6.750  29.778  58.089  1.00  0.00     0.060 A 
HETATM    2  C   UNL     1       5.421  30.056  57.704  1.00  0.00     0.046 A 
HETATM    3  C   UNL     1       4.773  29.053  56.959  1.00  0.00     0.032 A 
HETATM    4  C   UNL     1       5.418  27.871  56.563  1.00  0.00     0.032 A 
HETATM    5  C   UNL     1       6.750  27.654  56.890  1.00  0.00     0.037 A 
HETATM    6  C   UNL     1       7.408  28.604  57.667  1.00  0.00     0.049 A 
ENDROOT
BRANCH   2   7
HETATM    7  N   UNL     1       4.787  31.262  57.976  1.00  0.00    -0.378 N 
HETATM    8  C   UNL     1       3.594  31.267  58.848  1.00  0.00     0.138 C 
HETATM    9  C   UNL     1       3.448  32.651  59.528  1.00  0.00     0.115 C 
HETATM   10  N   UNL     1       3.388  33.736  58.516  1.00  0.00    -0.278 NA
HETATM   11  C   UNL     1       4.578  33.714  57.622  1.00  0.00     0.115 C 
HETATM   12  C   UNL     1       4.745  32.328  56.953  1.00  0.00     0.138 C 
BRANCH  10  13
HETATM   13  C   UNL     1       3.113  35.049  58.973  1.00  0.00     0.044 A 
HETATM   14  C   UNL     1       1.959  35.745  58.517  1.00  0.00     0.089 A 
HETATM   15  C   UNL     1       1.710  37.057  58.947  1.00  0.00     0.038 A 
HETATM   16  C   UNL     1       2.584  37.694  59.827  1.00  0.00     0.003 A 
HETATM   17  C   UNL     1       3.709  37.027  60.289  1.00  0.00     0.002 A 
HETATM   18  C   UNL     1       3.967  35.718  59.869  1.00  0.00     0.026 A 
BRANCH  14  19
HETATM   19  O   UNL     1       1.121  35.050  57.672  1.00  0.00    -0.354 OA
HETATM   20  C   UNL     1       0.984  35.525  56.342  1.00  0.00     0.210 C 
ENDBRANCH  14  19
ENDBRANCH  10  13
ENDBRANCH   2   7
BRANCH   1  21
HETATM   21  C   UNL     1       7.595  30.727  58.866  1.00  0.00     0.254 C 
HETATM   22  N   UNL     1       7.014  31.134  60.053  1.00  0.00    -0.353 N 
HETATM   23  H   UNL     1       6.044  30.881  60.203  1.00  0.00     0.163 HD
HETATM   24  O   UNL     1       8.713  31.044  58.489  1.00  0.00    -0.268 OA
BRANCH  22  25
HETATM   25  C   UNL     1       7.645  31.950  61.084  1.00  0.00     0.080 C 
HETATM   26  C   UNL     1       6.782  33.130  61.530  1.00  0.00     0.032 C 
BRANCH  25  27
HETATM   27  C   UNL     1       8.242  31.132  62.241  1.00  0.00     0.020 C 
HETATM   28  C   UNL     1       9.487  30.323  61.924  1.00  0.00     0.007 C 
ENDBRANCH  25  27
ENDBRANCH  22  25
ENDBRANCH   1  21
BRANCH   5  29
HETATM   29  N   UNL     1       7.507  26.568  56.412  1.00  0.00    -0.309 N 
HETATM   30  C   UNL     1       7.042  25.320  56.031  1.00  0.00     0.325 C 
HETATM   31  N   UNL     1       8.009  24.674  55.279  1.00  0.00    -0.307 N 
HETATM   32  O   UNL     1       5.941  24.867  56.310  1.00  0.00    -0.247 OA
HETATM   33  H   UNL     1       8.660  25.282  54.800  1.00  0.00     0.170 HD
HETATM   34  H   UNL     1       8.511  26.658  56.449  1.00  0.00     0.170 HD
BRANCH  31  35
HETATM   35  C   UNL     1       7.982  23.342  54.809  1.00  0.00     0.053 A 
HETATM   36  C   UNL     1       7.895  23.111  53.423  1.00  0.00     0.037 A 
HETATM   37 BR   UNL     1       7.771  24.552  52.185  1.00  0.00    -0.049 Br
HETATM   38  C   UNL     1       7.880  21.811  52.912  1.00  0.00     0.021 A 
HETATM   39  C   UNL     1       7.967  20.724  53.779  1.00  0.00     0.002 A 
HETATM   40  C   UNL     1       8.069  20.940  55.151  1.00  0.00     0.002 A 
HETATM   41  C   UNL     1       8.076  22.241  55.664  1.00  0.00     0.031 A 
ENDBRANCH  31  35
ENDBRANCH   5  29
TORSDOF 8
ENDMDL
MODEL 2
REMARK VINA RESULT:      -9.7      3.465     10.855
REMARK  8 active torsions:
REMARK  status: ('A' for Active; 'I' for Inactive)
REMARK    1  A    between atoms: C_2  and  C_3 
REMARK    2  A    between atoms: C_3  and  N_4 
REMARK       I    between atoms: N_4  and  C_5 
REMARK    3  A    between atoms: C_5  and  C_6 
REMARK    4  A    between atoms: C_7  and  N_8 
REMARK    5  A    between atoms: N_11  and  C_12 
REMARK    6  A    between atoms: C_13  and  O_14 
REMARK    7  A    between atoms: C_24  and  N_25 
REMARK       I    between atoms: N_25  and  C_26 
REMARK       I    between atoms: C_26  and  N_27 
REMARK    8  A    between atoms: N_27  and  C_28 
ROOT
HETATM    1  C   UNL     1       6.278  29.812  57.647  1.00  0.00     0.060 A 
HETATM    2  C   UNL     1       5.404  29.024  56.868  1.00  0.00     0.046 A 
HETATM    3  C   UNL     1       4.109  29.542  56.678  1.00  0.00     0.032 A 
HETATM    4  C   UNL     1       3.681  30.740  57.272  1.00  0.00     0.032 A 
HETATM    5  C   UNL     1       4.536  31.460  58.096  1.00  0.00     0.037 A 
HETATM    6  C   UNL     1       5.839  31.000  58.268  1.00  0.00     0.049 A 
ENDROOT
BRANCH   2   7
HETATM    7  N   UNL     1       5.752  27.778  56.360  1.00  0.00    -0.378 N 
HETATM    8  C   UNL     1       6.340  27.692  55.007  1.00  0.00     0.138 C 
HETATM    9  C   UNL     1       7.216  26.419  54.897  1.00  0.00     0.115 C 
HETATM   10  N   UNL     1       6.429  25.203  55.227  1.00  0.00    -0.278 NA
HETATM   11  C   UNL     1       5.816  25.302  56.580  1.00  0.00     0.115 C 
HETATM   12  C   UNL     1       4.956  26.582  56.708  1.00  0.00     0.138 C 
BRANCH  10  13
HETATM   13  C   UNL     1       7.051  23.944  55.036  1.00  0.00     0.044 A 
HETATM   14  C   UNL     1       7.142  23.376  53.734  1.00  0.00     0.089 A 
HETATM   15  C   UNL     1       7.729  22.113  53.555  1.00  0.00     0.038 A 
HETATM   16  C   UNL     1       8.231  21.402  54.644  1.00  0.00     0.003 A 
HETATM   17  C   UNL     1       8.159  21.947  55.918  1.00  0.00     0.002 A 
HETATM   18  C   UNL     1       7.579  23.204  56.110  1.00  0.00     0.026 A 
BRANCH  14  19
HETATM   19  O   UNL     1       6.653  24.140  52.698  1.00  0.00    -0.354 OA
HETATM   20  C   UNL     1       7.594  24.776  51.846  1.00  0.00     0.210 C 
ENDBRANCH  14  19
ENDBRANCH  10  13
ENDBRANCH   2   7
BRANCH   1  21
HETATM   21  C   UNL     1       7.677  29.415  57.965  1.00  0.00     0.254 C 
HETATM   22  N   UNL     1       8.581  30.456  57.856  1.00  0.00    -0.353 N 
HETATM   23  H   UNL     1       8.247  31.316  57.437  1.00  0.00     0.163 HD
HETATM   24  O   UNL     1       7.951  28.286  58.342  1.00  0.00    -0.268 OA
BRANCH  22  25
HETATM   25  C   UNL     1       9.991  30.413  58.227  1.00  0.00     0.080 C 
HETATM   26  C   UNL     1      10.906  30.015  57.069  1.00  0.00     0.032 C 
BRANCH  25  27
HETATM   27  C   UNL     1      10.463  31.651  59.007  1.00  0.00     0.020 C 
HETATM   28  C   UNL     1       9.573  32.109  60.149  1.00  0.00     0.007 C 
ENDBRANCH  25  27
ENDBRANCH  22  25
ENDBRANCH   1  21
BRANCH   5  29
HETATM   29  N   UNL     1       4.141  32.587  58.841  1.00  0.00    -0.309 N 
HETATM   30  C   UNL     1       4.541  32.932  60.122  1.00  0.00     0.325 C 
HETATM   31  N   UNL     1       4.247  34.265  60.356  1.00  0.00    -0.307 N 
HETATM   32  O   UNL     1       5.080  32.175  60.916  1.00  0.00    -0.247 OA
HETATM   33  H   UNL     1       4.191  34.846  59.530  1.00  0.00     0.170 HD
HETATM   34  H   UNL     1       3.403  33.156  58.454  1.00  0.00     0.170 HD
BRANCH  31  35
HETATM   35  C   UNL     1       4.376  34.971  61.573  1.00  0.00     0.053 A 
HETATM   36  C   UNL     1       3.218  35.247  62.325  1.00  0.00     0.037 A 
HETATM   37 BR   UNL     1       1.492  34.726  61.713  1.00  0.00    -0.049 Br
HETATM   38  C   UNL     1       3.298  35.929  63.542  1.00  0.00     0.021 A 
HETATM   39  C   UNL     1       4.539  36.332  64.029  1.00  0.00     0.002 A 
HETATM   40  C   UNL     1       5.693  36.052  63.302  1.00  0.00     0.002 A 
HETATM   41  C   UNL     1       5.613  35.375  62.080  1.00  0.00     0.031 A 
ENDBRANCH  31  35
ENDBRANCH   5  29
TORSDOF 8
ENDMDL
MODEL 3
REMARK VINA RESULT:      -9.6      4.120     10.520
REMARK  8 active torsions:
REMARK  status: ('A' for Active; 'I' for Inactive)
REMARK    1  A    between atoms: C_2  and  C_3 
REMARK    2  A    between atoms: C_3  and  N_4 
REMARK       I    between atoms: N_4  and  C_5 
REMARK    3  A    between atoms: C_5  and  C_6 
REMARK    4  A    between atoms: C_7  and  N_8 
REMARK    5  A    between atoms: N_11  and  C_12 
REMARK    6  A    between atoms: C_13  and  O_14 
REMARK    7  A    between atoms: C_24  and  N_25 
REMARK       I    between atoms: N_25  and  C_26 
REMARK       I    between atoms: C_26  and  N_27 
REMARK    8  A    between atoms: N_27  and  C_28 
ROOT
HETATM    1  C   UNL     1       6.139  31.399  58.525  1.00  0.00     0.060 A 
HETATM    2  C   UNL     1       5.014  30.940  57.808  1.00  0.00     0.046 A 
HETATM    3  C   UNL     1       3.791  31.568  58.109  1.00  0.00     0.032 A 
HETATM    4  C   UNL     1       3.673  32.550  59.106  1.00  0.00     0.032 A 
HETATM    5  C   UNL     1       4.781  32.932  59.851  1.00  0.00     0.037 A 
HETATM    6  C   UNL     1       6.015  32.365  59.546  1.00  0.00     0.049 A 
ENDROOT
BRANCH   2   7
HETATM    7  N   UNL     1       5.069  29.891  56.898  1.00  0.00    -0.378 N 
HETATM    8  C   UNL     1       5.344  30.186  55.476  1.00  0.00     0.138 C 
HETATM    9  C   UNL     1       5.987  28.949  54.800  1.00  0.00     0.115 C 
HETATM   10  N   UNL     1       5.123  27.751  54.952  1.00  0.00    -0.278 NA
HETATM   11  C   UNL     1       4.826  27.470  56.383  1.00  0.00     0.115 C 
HETATM   12  C   UNL     1       4.202  28.707  57.074  1.00  0.00     0.138 C 
BRANCH  10  13
HETATM   13  C   UNL     1       5.507  26.572  54.266  1.00  0.00     0.044 A 
HETATM   14  C   UNL     1       5.132  26.374  52.907  1.00  0.00     0.089 A 
HETATM   15  C   UNL     1       5.486  25.189  52.243  1.00  0.00     0.038 A 
HETATM   16  C   UNL     1       6.208  24.194  52.901  1.00  0.00     0.003 A 
HETATM   17  C   UNL     1       6.590  24.376  54.223  1.00  0.00     0.002 A 
HETATM   18  C   UNL     1       6.245  25.553  54.894  1.00  0.00     0.026 A 
BRANCH  14  19
HETATM   19  O   UNL     1       4.444  27.405  52.307  1.00  0.00    -0.354 OA
HETATM   20  C   UNL     1       4.719  27.673  50.940  1.00  0.00     0.210 C 
ENDBRANCH  14  19
ENDBRANCH  10  13
ENDBRANCH   2   7
BRANCH   1  21
HETATM   21  C   UNL     1       7.508  30.842  58.350  1.00  0.00     0.254 C 
HETATM   22  N   UNL     1       7.515  29.520  57.944  1.00  0.00    -0.353 N 
HETATM   23  H   UNL     1       6.628  29.030  57.954  1.00  0.00     0.163 HD
HETATM   24  O   UNL     1       8.504  31.533  58.499  1.00  0.00    -0.268 OA
BRANCH  22  25
HETATM   25  C   UNL     1       8.689  28.742  57.565  1.00  0.00     0.080 C 
HETATM   26  C   UNL     1       8.376  27.271  57.295  1.00  0.00     0.032 C 
BRANCH  25  27
HETATM   27  C   UNL     1       9.551  29.413  56.483  1.00  0.00     0.020 C 
HETATM   28  C   UNL     1      11.002  29.679  56.844  1.00  0.00     0.007 C 
ENDBRANCH  25  27
ENDBRANCH  22  25
ENDBRANCH   1  21
BRANCH   5  29
HETATM   29  N   UNL     1       4.719  33.798  60.958  1.00  0.00    -0.309 N 
HETATM   30  C   UNL     1       4.534  33.456  62.288  1.00  0.00     0.325 C 
HETATM   31  N   UNL     1       4.905  34.516  63.096  1.00  0.00    -0.307 N 
HETATM   32  O   UNL     1       4.118  32.375  62.682  1.00  0.00    -0.247 OA
HETATM   33  H   UNL     1       5.581  35.151  62.693  1.00  0.00     0.170 HD
HETATM   34  H   UNL     1       4.696  34.788  60.764  1.00  0.00     0.170 HD
BRANCH  31  35
HETATM   35  C   UNL     1       4.751  34.622  64.497  1.00  0.00     0.053 A 
HETATM   36  C   UNL     1       5.786  34.159  65.332  1.00  0.00     0.037 A 
HETATM   37 BR   UNL     1       7.357  33.362  64.611  1.00  0.00    -0.049 Br
HETATM   38  C   UNL     1       5.685  34.256  66.722  1.00  0.00     0.021 A 
HETATM   39  C   UNL     1       4.553  34.830  67.295  1.00  0.00     0.002 A 
HETATM   40  C   UNL     1       3.529  35.305  66.480  1.00  0.00     0.002 A 
HETATM   41  C   UNL     1       3.626  35.202  65.088  1.00  0.00     0.031 A 
ENDBRANCH  31  35
ENDBRANCH   5  29
TORSDOF 8
ENDMDL
MODEL 4
REMARK VINA RESULT:      -9.3      4.941     10.132
REMARK  8 active torsions:
REMARK  status: ('A' for Active; 'I' for Inactive)
REMARK    1  A    between atoms: C_2  and  C_3 
REMARK    2  A    between atoms: C_3  and  N_4 
REMARK       I    between atoms: N_4  and  C_5 
REMARK    3  A    between atoms: C_5  and  C_6 
REMARK    4  A    between atoms: C_7  and  N_8 
REMARK    5  A    between atoms: N_11  and  C_12 
REMARK    6  A    between atoms: C_13  and  O_14 
REMARK    7  A    between atoms: C_24  and  N_25 
REMARK       I    between atoms: N_25  and  C_26 
REMARK       I    between atoms: C_26  and  N_27 
REMARK    8  A    between atoms: N_27  and  C_28 
ROOT
HETATM    1  C   UNL     1       6.667  29.029  55.557  1.00  0.00     0.060 A 
HETATM    2  C   UNL     1       5.527  29.637  54.988  1.00  0.00     0.046 A 
HETATM    3  C   UNL     1       4.894  30.617  55.774  1.00  0.00     0.032 A 
HETATM    4  C   UNL     1       5.323  30.938  57.072  1.00  0.00     0.032 A 
HETATM    5  C   UNL     1       6.401  30.272  57.640  1.00  0.00     0.037 A 
HETATM    6  C   UNL     1       7.081  29.329  56.872  1.00  0.00     0.049 A 
ENDROOT
BRANCH   2   7
HETATM    7  N   UNL     1       5.003  29.265  53.756  1.00  0.00    -0.378 N 
HETATM    8  C   UNL     1       4.464  30.308  52.860  1.00  0.00     0.138 C 
HETATM    9  C   UNL     1       4.546  29.829  51.389  1.00  0.00     0.115 C 
HETATM   10  N   UNL     1       3.836  28.537  51.211  1.00  0.00    -0.278 NA
HETATM   11  C   UNL     1       4.362  27.493  52.133  1.00  0.00     0.115 C 
HETATM   12  C   UNL     1       4.304  27.971  53.604  1.00  0.00     0.138 C 
BRANCH  10  13
HETATM   13  C   UNL     1       3.700  28.036  49.892  1.00  0.00     0.044 A 
HETATM   14  C   UNL     1       2.479  28.203  49.180  1.00  0.00     0.089 A 
HETATM   15  C   UNL     1       2.339  27.676  47.887  1.00  0.00     0.038 A 
HETATM   16  C   UNL     1       3.390  26.986  47.283  1.00  0.00     0.003 A 
HETATM   17  C   UNL     1       4.589  26.823  47.960  1.00  0.00     0.002 A 
HETATM   18  C   UNL     1       4.742  27.345  49.248  1.00  0.00     0.026 A 
BRANCH  14  19
HETATM   19  O   UNL     1       1.491  28.918  49.820  1.00  0.00    -0.354 OA
HETATM   20  C   UNL     1       1.193  30.216  49.330  1.00  0.00     0.210 C 
ENDBRANCH  14  19
ENDBRANCH  10  13
ENDBRANCH   2   7
BRANCH   1  21
HETATM   21  C   UNL     1       7.453  27.962  54.879  1.00  0.00     0.254 C 
HETATM   22  N   UNL     1       7.114  26.686  55.289  1.00  0.00    -0.353 N 
HETATM   23  H   UNL     1       6.499  26.606  56.090  1.00  0.00     0.163 HD
HETATM   24  O   UNL     1       8.267  28.224  54.006  1.00  0.00    -0.268 OA
BRANCH  22  25
HETATM   25  C   UNL     1       7.611  25.438  54.718  1.00  0.00     0.080 C 
HETATM   26  C   UNL     1       7.648  24.289  55.724  1.00  0.00     0.032 C 
BRANCH  25  27
HETATM   27  C   UNL     1       6.967  25.077  53.370  1.00  0.00     0.020 C 
HETATM   28  C   UNL     1       7.809  24.240  52.422  1.00  0.00     0.007 C 
ENDBRANCH  25  27
ENDBRANCH  22  25
ENDBRANCH   1  21
BRANCH   5  29
HETATM   29  N   UNL     1       6.803  30.431  58.979  1.00  0.00    -0.309 N 
HETATM   30  C   UNL     1       6.660  31.557  59.774  1.00  0.00     0.325 C 
HETATM   31  N   UNL     1       6.823  31.209  61.104  1.00  0.00    -0.307 N 
HETATM   32  O   UNL     1       6.418  32.681  59.359  1.00  0.00    -0.247 OA
HETATM   33  H   UNL     1       6.614  30.245  61.327  1.00  0.00     0.170 HD
HETATM   34  H   UNL     1       7.353  29.688  59.383  1.00  0.00     0.170 HD
BRANCH  31  35
HETATM   35  C   UNL     1       6.880  32.079  62.217  1.00  0.00     0.053 A 
HETATM   36  C   UNL     1       5.682  32.617  62.722  1.00  0.00     0.037 A 
HETATM   37 BR   UNL     1       4.003  32.230  61.912  1.00  0.00    -0.049 Br
HETATM   38  C   UNL     1       5.689  33.469  63.829  1.00  0.00     0.021 A 
HETATM   39  C   UNL     1       6.893  33.783  64.454  1.00  0.00     0.002 A 
HETATM   40  C   UNL     1       8.084  33.245  63.973  1.00  0.00     0.002 A 
HETATM   41  C   UNL     1       8.079  32.397  62.860  1.00  0.00     0.031 A 
ENDBRANCH  31  35
ENDBRANCH   5  29
TORSDOF 8
ENDMDL
MODEL 5
REMARK VINA RESULT:      -9.2      3.117     10.963
REMARK  8 active torsions:
REMARK  status: ('A' for Active; 'I' for Inactive)
REMARK    1  A    between atoms: C_2  and  C_3 
REMARK    2  A    between atoms: C_3  and  N_4 
REMARK       I    between atoms: N_4  and  C_5 
REMARK    3  A    between atoms: C_5  and  C_6 
REMARK    4  A    between atoms: C_7  and  N_8 
REMARK    5  A    between atoms: N_11  and  C_12 
REMARK    6  A    between atoms: C_13  and  O_14 
REMARK    7  A    between atoms: C_24  and  N_25 
REMARK       I    between atoms: N_25  and  C_26 
REMARK       I    between atoms: C_26  and  N_27 
REMARK    8  A    between atoms: N_27  and  C_28 
ROOT
HETATM    1  C   UNL     1       6.013  30.283  57.797  1.00  0.00     0.060 A 
HETATM    2  C   UNL     1       5.217  29.574  56.872  1.00  0.00     0.046 A 
HETATM    3  C   UNL     1       3.917  30.073  56.667  1.00  0.00     0.032 A 
HETATM    4  C   UNL     1       3.409  31.171  57.379  1.00  0.00     0.032 A 
HETATM    5  C   UNL     1       4.185  31.806  58.340  1.00  0.00     0.037 A 
HETATM    6  C   UNL     1       5.493  31.368  58.534  1.00  0.00     0.049 A 
ENDROOT
BRANCH   2   7
HETATM    7  N   UNL     1       5.643  28.415  56.234  1.00  0.00    -0.378 N 
HETATM    8  C   UNL     1       6.155  28.503  54.851  1.00  0.00     0.138 C 
HETATM    9  C   UNL     1       7.131  27.329  54.580  1.00  0.00     0.115 C 
HETATM   10  N   UNL     1       6.474  26.023  54.836  1.00  0.00    -0.278 NA
HETATM   11  C   UNL     1       5.935  25.946  56.222  1.00  0.00     0.115 C 
HETATM   12  C   UNL     1       4.975  27.125  56.510  1.00  0.00     0.138 C 
BRANCH  10  13
HETATM   13  C   UNL     1       7.191  24.848  54.498  1.00  0.00     0.044 A 
HETATM   14  C   UNL     1       7.075  24.281  53.198  1.00  0.00     0.089 A 
HETATM   15  C   UNL     1       7.760  23.099  52.879  1.00  0.00     0.038 A 
HETATM   16  C   UNL     1       8.564  22.467  53.827  1.00  0.00     0.003 A 
HETATM   17  C   UNL     1       8.696  23.011  55.096  1.00  0.00     0.002 A 
HETATM   18  C   UNL     1       8.020  24.190  55.425  1.00  0.00     0.026 A 
BRANCH  14  19
HETATM   19  O   UNL     1       6.288  24.969  52.301  1.00  0.00    -0.354 OA
HETATM   20  C   UNL     1       4.895  24.697  52.300  1.00  0.00     0.210 C 
ENDBRANCH  14  19
ENDBRANCH  10  13
ENDBRANCH   2   7
BRANCH   1  21
HETATM   21  C   UNL     1       7.404  29.892  58.152  1.00  0.00     0.254 C 
HETATM   22  N   UNL     1       8.248  30.972  58.339  1.00  0.00    -0.353 N 
HETATM   23  H   UNL     1       7.894  31.884  58.076  1.00  0.00     0.163 HD
HETATM   24  O   UNL     1       7.718  28.722  58.314  1.00  0.00    -0.268 OA
BRANCH  22  25
HETATM   25  C   UNL     1       9.625  30.916  58.817  1.00  0.00     0.080 C 
HETATM   26  C   UNL     1      10.649  30.796  57.689  1.00  0.00     0.032 C 
BRANCH  25  27
HETATM   27  C   UNL     1       9.960  31.991  59.863  1.00  0.00     0.020 C 
HETATM   28  C   UNL     1       9.458  31.740  61.274  1.00  0.00     0.007 C 
ENDBRANCH  25  27
ENDBRANCH  22  25
ENDBRANCH   1  21
BRANCH   5  29
HETATM   29  N   UNL     1       3.704  32.815  59.194  1.00  0.00    -0.309 N 
HETATM   30  C   UNL     1       3.820  34.186  59.027  1.00  0.00     0.325 C 
HETATM   31  N   UNL     1       2.915  34.832  59.851  1.00  0.00    -0.307 N 
HETATM   32  O   UNL     1       4.597  34.735  58.258  1.00  0.00    -0.247 OA
HETATM   33  H   UNL     1       2.099  34.290  60.105  1.00  0.00     0.170 HD
HETATM   34  H   UNL     1       3.328  32.522  60.083  1.00  0.00     0.170 HD
BRANCH  31  35
HETATM   35  C   UNL     1       2.800  36.222  60.076  1.00  0.00     0.053 A 
HETATM   36  C   UNL     1       3.477  36.793  61.170  1.00  0.00     0.037 A 
HETATM   37 BR   UNL     1       4.504  35.725  62.365  1.00  0.00    -0.049 Br
HETATM   38  C   UNL     1       3.405  38.165  61.423  1.00  0.00     0.021 A 
HETATM   39  C   UNL     1       2.665  38.987  60.577  1.00  0.00     0.002 A 
HETATM   40  C   UNL     1       2.001  38.436  59.483  1.00  0.00     0.002 A 
HETATM   41  C   UNL     1       2.068  37.062  59.233  1.00  0.00     0.031 A 
ENDBRANCH  31  35
ENDBRANCH   5  29
TORSDOF 8
ENDMDL
MODEL 6
REMARK VINA RESULT:      -9.0      6.578      9.056
REMARK  8 active torsions:
REMARK  status: ('A' for Active; 'I' for Inactive)
REMARK    1  A    between atoms: C_2  and  C_3 
REMARK    2  A    between atoms: C_3  and  N_4 
REMARK       I    between atoms: N_4  and  C_5 
REMARK    3  A    between atoms: C_5  and  C_6 
REMARK    4  A    between atoms: C_7  and  N_8 
REMARK    5  A    between atoms: N_11  and  C_12 
REMARK    6  A    between atoms: C_13  and  O_14 
REMARK    7  A    between atoms: C_24  and  N_25 
REMARK       I    between atoms: N_25  and  C_26 
REMARK       I    between atoms: C_26  and  N_27 
REMARK    8  A    between atoms: N_27  and  C_28 
ROOT
HETATM    1  C   UNL     1       5.041  27.788  50.916  1.00  0.00     0.060 A 
HETATM    2  C   UNL     1       4.405  28.815  51.645  1.00  0.00     0.046 A 
HETATM    3  C   UNL     1       4.841  28.991  52.972  1.00  0.00     0.032 A 
HETATM    4  C   UNL     1       5.805  28.161  53.566  1.00  0.00     0.032 A 
HETATM    5  C   UNL     1       6.362  27.108  52.851  1.00  0.00     0.037 A 
HETATM    6  C   UNL     1       5.989  26.936  51.521  1.00  0.00     0.049 A 
ENDROOT
BRANCH   2   7
HETATM    7  N   UNL     1       3.366  29.581  51.131  1.00  0.00    -0.378 N 
HETATM    8  C   UNL     1       3.385  31.045  51.331  1.00  0.00     0.138 C 
HETATM    9  C   UNL     1       2.579  31.738  50.203  1.00  0.00     0.115 C 
HETATM   10  N   UNL     1       1.191  31.213  50.143  1.00  0.00    -0.278 NA
HETATM   11  C   UNL     1       1.174  29.735  49.968  1.00  0.00     0.115 C 
HETATM   12  C   UNL     1       1.993  29.034  51.078  1.00  0.00     0.138 C 
BRANCH  10  13
HETATM   13  C   UNL     1       0.286  31.846  49.255  1.00  0.00     0.044 A 
HETATM   14  C   UNL     1      -0.961  32.342  49.729  1.00  0.00     0.089 A 
HETATM   15  C   UNL     1      -1.868  32.938  48.840  1.00  0.00     0.038 A 
HETATM   16  C   UNL     1      -1.561  33.055  47.485  1.00  0.00     0.003 A 
HETATM   17  C   UNL     1      -0.346  32.585  47.008  1.00  0.00     0.002 A 
HETATM   18  C   UNL     1       0.567  31.991  47.884  1.00  0.00     0.026 A 
BRANCH  14  19
HETATM   19  O   UNL     1      -1.191  32.222  51.082  1.00  0.00    -0.354 OA
HETATM   20  C   UNL     1      -2.432  31.669  51.494  1.00  0.00     0.210 C 
ENDBRANCH  14  19
ENDBRANCH  10  13
ENDBRANCH   2   7
BRANCH   1  21
HETATM   21  C   UNL     1       4.700  27.449  49.507  1.00  0.00     0.254 C 
HETATM   22  N   UNL     1       3.759  26.441  49.398  1.00  0.00    -0.353 N 
HETATM   23  H   UNL     1       3.516  25.943  50.246  1.00  0.00     0.163 HD
HETATM   24  O   UNL     1       5.178  28.065  48.567  1.00  0.00    -0.268 OA
BRANCH  22  25
HETATM   25  C   UNL     1       3.129  25.982  48.165  1.00  0.00     0.080 C 
HETATM   26  C   UNL     1       3.019  24.461  48.076  1.00  0.00     0.032 C 
BRANCH  25  27
HETATM   27  C   UNL     1       1.833  26.730  47.817  1.00  0.00     0.020 C 
HETATM   28  C   UNL     1       1.978  27.960  46.937  1.00  0.00     0.007 C 
ENDBRANCH  25  27
ENDBRANCH  22  25
ENDBRANCH   1  21
BRANCH   5  29
HETATM   29  N   UNL     1       7.223  26.148  53.414  1.00  0.00    -0.309 N 
HETATM   30  C   UNL     1       6.898  24.867  53.831  1.00  0.00     0.325 C 
HETATM   31  N   UNL     1       8.054  24.117  53.968  1.00  0.00    -0.307 N 
HETATM   32  O   UNL     1       5.762  24.463  54.035  1.00  0.00    -0.247 OA
HETATM   33  H   UNL     1       8.836  24.422  53.403  1.00  0.00     0.170 HD
HETATM   34  H   UNL     1       8.157  26.451  53.646  1.00  0.00     0.170 HD
BRANCH  31  35
HETATM   35  C   UNL     1       8.171  22.809  54.491  1.00  0.00     0.053 A 
HETATM   36  C   UNL     1       8.462  22.648  55.859  1.00  0.00     0.037 A 
HETATM   37 BR   UNL     1       8.737  24.149  56.996  1.00  0.00    -0.049 Br
HETATM   38  C   UNL     1       8.572  21.375  56.424  1.00  0.00     0.021 A 
HETATM   39  C   UNL     1       8.381  20.246  55.630  1.00  0.00     0.002 A 
HETATM   40  C   UNL     1       8.079  20.393  54.279  1.00  0.00     0.002 A 
HETATM   41  C   UNL     1       7.975  21.667  53.711  1.00  0.00     0.031 A 
ENDBRANCH  31  35
ENDBRANCH   5  29
TORSDOF 8
ENDMDL
MODEL 7
REMARK VINA RESULT:      -9.0      6.136     11.527
REMARK  8 active torsions:
REMARK  status: ('A' for Active; 'I' for Inactive)
REMARK    1  A    between atoms: C_2  and  C_3 
REMARK    2  A    between atoms: C_3  and  N_4 
REMARK       I    between atoms: N_4  and  C_5 
REMARK    3  A    between atoms: C_5  and  C_6 
REMARK    4  A    between atoms: C_7  and  N_8 
REMARK    5  A    between atoms: N_11  and  C_12 
REMARK    6  A    between atoms: C_13  and  O_14 
REMARK    7  A    between atoms: C_24  and  N_25 
REMARK       I    between atoms: N_25  and  C_26 
REMARK       I    between atoms: C_26  and  N_27 
REMARK    8  A    between atoms: N_27  and  C_28 
ROOT
HETATM    1  C   UNL     1       6.034  28.257  52.644  1.00  0.00     0.060 A 
HETATM    2  C   UNL     1       6.084  26.980  52.045  1.00  0.00     0.046 A 
HETATM    3  C   UNL     1       5.708  26.918  50.691  1.00  0.00     0.032 A 
HETATM    4  C   UNL     1       5.249  28.040  49.983  1.00  0.00     0.032 A 
HETATM    5  C   UNL     1       5.136  29.272  50.615  1.00  0.00     0.037 A 
HETATM    6  C   UNL     1       5.545  29.379  51.942  1.00  0.00     0.049 A 
ENDROOT
BRANCH   2   7
HETATM    7  N   UNL     1       6.421  25.826  52.743  1.00  0.00    -0.378 N 
HETATM    8  C   UNL     1       7.323  24.841  52.111  1.00  0.00     0.138 C 
HETATM    9  C   UNL     1       8.062  24.030  53.205  1.00  0.00     0.115 C 
HETATM   10  N   UNL     1       7.096  23.375  54.123  1.00  0.00    -0.278 NA
HETATM   11  C   UNL     1       6.171  24.365  54.740  1.00  0.00     0.115 C 
HETATM   12  C   UNL     1       5.443  25.195  53.655  1.00  0.00     0.138 C 
BRANCH  10  13
HETATM   13  C   UNL     1       7.613  22.482  55.094  1.00  0.00     0.044 A 
HETATM   14  C   UNL     1       7.807  21.107  54.779  1.00  0.00     0.089 A 
HETATM   15  C   UNL     1       8.288  20.220  55.755  1.00  0.00     0.038 A 
HETATM   16  C   UNL     1       8.584  20.671  57.040  1.00  0.00     0.003 A 
HETATM   17  C   UNL     1       8.410  22.010  57.361  1.00  0.00     0.002 A 
HETATM   18  C   UNL     1       7.934  22.903  56.397  1.00  0.00     0.026 A 
BRANCH  14  19
HETATM   19  O   UNL     1       7.522  20.732  53.485  1.00  0.00    -0.354 OA
HETATM   20  C   UNL     1       8.600  20.284  52.676  1.00  0.00     0.210 C 
ENDBRANCH  14  19
ENDBRANCH  10  13
ENDBRANCH   2   7
BRANCH   1  21
HETATM   21  C   UNL     1       6.381  28.510  54.069  1.00  0.00     0.254 C 
HETATM   22  N   UNL     1       7.743  28.523  54.309  1.00  0.00    -0.353 N 
HETATM   23  H   UNL     1       8.347  28.218  53.555  1.00  0.00     0.163 HD
HETATM   24  O   UNL     1       5.520  28.739  54.905  1.00  0.00    -0.268 OA
BRANCH  22  25
HETATM   25  C   UNL     1       8.391  28.871  55.569  1.00  0.00     0.080 C 
HETATM   26  C   UNL     1       8.272  27.778  56.629  1.00  0.00     0.032 C 
BRANCH  25  27
HETATM   27  C   UNL     1       9.812  29.433  55.398  1.00  0.00     0.020 C 
HETATM   28  C   UNL     1      10.603  29.668  56.672  1.00  0.00     0.007 C 
ENDBRANCH  25  27
ENDBRANCH  22  25
ENDBRANCH   1  21
BRANCH   5  29
HETATM   29  N   UNL     1       4.552  30.406  50.021  1.00  0.00    -0.309 N 
HETATM   30  C   UNL     1       5.204  31.477  49.430  1.00  0.00     0.325 C 
HETATM   31  N   UNL     1       4.311  32.186  48.645  1.00  0.00    -0.307 N 
HETATM   32  O   UNL     1       6.389  31.743  49.575  1.00  0.00    -0.247 OA
HETATM   33  H   UNL     1       3.522  31.655  48.301  1.00  0.00     0.170 HD
HETATM   34  H   UNL     1       3.555  30.517  50.129  1.00  0.00     0.170 HD
BRANCH  31  35
HETATM   35  C   UNL     1       4.541  33.411  47.978  1.00  0.00     0.053 A 
HETATM   36  C   UNL     1       4.779  33.396  46.591  1.00  0.00     0.037 A 
HETATM   37 BR   UNL     1       4.837  31.763  45.614  1.00  0.00    -0.049 Br
HETATM   38  C   UNL     1       4.996  34.583  45.887  1.00  0.00     0.021 A 
HETATM   39  C   UNL     1       4.965  35.802  46.559  1.00  0.00     0.002 A 
HETATM   40  C   UNL     1       4.716  35.831  47.929  1.00  0.00     0.002 A 
HETATM   41  C   UNL     1       4.505  34.643  48.635  1.00  0.00     0.031 A 
ENDBRANCH  31  35
ENDBRANCH   5  29
TORSDOF 8
ENDMDL
MODEL 8
REMARK VINA RESULT:      -8.8      1.999      3.887
REMARK  8 active torsions:
REMARK  status: ('A' for Active; 'I' for Inactive)
REMARK    1  A    between atoms: C_2  and  C_3 
REMARK    2  A    between atoms: C_3  and  N_4 
REMARK       I    between atoms: N_4  and  C_5 
REMARK    3  A    between atoms: C_5  and  C_6 
REMARK    4  A    between atoms: C_7  and  N_8 
REMARK    5  A    between atoms: N_11  and  C_12 
REMARK    6  A    between atoms: C_13  and  O_14 
REMARK    7  A    between atoms: C_24  and  N_25 
REMARK       I    between atoms: N_25  and  C_26 
REMARK       I    between atoms: C_26  and  N_27 
REMARK    8  A    between atoms: N_27  and  C_28 
ROOT
HETATM    1  C   UNL     1       5.798  29.113  56.209  1.00  0.00     0.060 A 
HETATM    2  C   UNL     1       6.050  29.964  57.306  1.00  0.00     0.046 A 
HETATM    3  C   UNL     1       7.143  29.613  58.120  1.00  0.00     0.032 A 
HETATM    4  C   UNL     1       7.907  28.455  57.901  1.00  0.00     0.032 A 
HETATM    5  C   UNL     1       7.592  27.593  56.859  1.00  0.00     0.037 A 
HETATM    6  C   UNL     1       6.546  27.935  56.005  1.00  0.00     0.049 A 
ENDROOT
BRANCH   2   7
HETATM    7  N   UNL     1       5.247  31.052  57.625  1.00  0.00    -0.378 N 
HETATM    8  C   UNL     1       3.979  30.824  58.348  1.00  0.00     0.138 C 
HETATM    9  C   UNL     1       3.594  32.096  59.144  1.00  0.00     0.115 C 
HETATM   10  N   UNL     1       3.505  33.276  58.248  1.00  0.00    -0.278 NA
HETATM   11  C   UNL     1       4.774  33.490  57.500  1.00  0.00     0.115 C 
HETATM   12  C   UNL     1       5.179  32.218  56.717  1.00  0.00     0.138 C 
BRANCH  10  13
HETATM   13  C   UNL     1       3.025  34.489  58.802  1.00  0.00     0.044 A 
HETATM   14  C   UNL     1       1.978  35.210  58.162  1.00  0.00     0.089 A 
HETATM   15  C   UNL     1       1.529  36.427  58.697  1.00  0.00     0.038 A 
HETATM   16  C   UNL     1       2.098  36.945  59.860  1.00  0.00     0.003 A 
HETATM   17  C   UNL     1       3.113  36.250  60.502  1.00  0.00     0.002 A 
HETATM   18  C   UNL     1       3.567  35.035  59.980  1.00  0.00     0.026 A 
BRANCH  14  19
HETATM   19  O   UNL     1       1.440  34.631  57.034  1.00  0.00    -0.354 OA
HETATM   20  C   UNL     1       0.635  35.445  56.194  1.00  0.00     0.210 C 
ENDBRANCH  14  19
ENDBRANCH  10  13
ENDBRANCH   2   7
BRANCH   1  21
HETATM   21  C   UNL     1       4.676  29.319  55.252  1.00  0.00     0.254 C 
HETATM   22  N   UNL     1       5.076  29.875  54.049  1.00  0.00    -0.353 N 
HETATM   23  H   UNL     1       6.026  30.218  53.993  1.00  0.00     0.163 HD
HETATM   24  O   UNL     1       3.538  28.962  55.514  1.00  0.00    -0.268 OA
BRANCH  22  25
HETATM   25  C   UNL     1       4.236  30.074  52.873  1.00  0.00     0.080 C 
HETATM   26  C   UNL     1       3.745  31.512  52.720  1.00  0.00     0.032 C 
BRANCH  25  27
HETATM   27  C   UNL     1       4.820  29.466  51.588  1.00  0.00     0.020 C 
HETATM   28  C   UNL     1       5.492  28.111  51.726  1.00  0.00     0.007 C 
ENDBRANCH  25  27
ENDBRANCH  22  25
ENDBRANCH   1  21
BRANCH   5  29
HETATM   29  N   UNL     1       8.213  26.346  56.659  1.00  0.00    -0.309 N 
HETATM   30  C   UNL     1       7.599  25.130  56.407  1.00  0.00     0.325 C 
HETATM   31  N   UNL     1       8.529  24.237  55.902  1.00  0.00    -0.307 N 
HETATM   32  O   UNL     1       6.414  24.891  56.593  1.00  0.00    -0.247 OA
HETATM   33  H   UNL     1       9.321  24.657  55.434  1.00  0.00     0.170 HD
HETATM   34  H   UNL     1       9.208  26.299  56.822  1.00  0.00     0.170 HD
BRANCH  31  35
HETATM   35  C   UNL     1       8.341  22.862  55.637  1.00  0.00     0.053 A 
HETATM   36  C   UNL     1       8.058  22.455  54.319  1.00  0.00     0.037 A 
HETATM   37 BR   UNL     1       7.884  23.721  52.909  1.00  0.00    -0.049 Br
HETATM   38  C   UNL     1       7.880  21.105  54.008  1.00  0.00     0.021 A 
HETATM   39  C   UNL     1       7.995  20.142  55.007  1.00  0.00     0.002 A 
HETATM   40  C   UNL     1       8.289  20.531  56.312  1.00  0.00     0.002 A 
HETATM   41  C   UNL     1       8.462  21.882  56.626  1.00  0.00     0.031 A 
ENDBRANCH  31  35
ENDBRANCH   5  29
TORSDOF 8
ENDMDL
MODEL 9
REMARK VINA RESULT:      -8.8      3.674     11.308
REMARK  8 active torsions:
REMARK  status: ('A' for Active; 'I' for Inactive)
REMARK    1  A    between atoms: C_2  and  C_3 
REMARK    2  A    between atoms: C_3  and  N_4 
REMARK       I    between atoms: N_4  and  C_5 
REMARK    3  A    between atoms: C_5  and  C_6 
REMARK    4  A    between atoms: C_7  and  N_8 
REMARK    5  A    between atoms: N_11  and  C_12 
REMARK    6  A    between atoms: C_13  and  O_14 
REMARK    7  A    between atoms: C_24  and  N_25 
REMARK       I    between atoms: N_25  and  C_26 
REMARK       I    between atoms: C_26  and  N_27 
REMARK    8  A    between atoms: N_27  and  C_28 
ROOT
HETATM    1  C   UNL     1       5.940  30.506  57.793  1.00  0.00     0.060 A 
HETATM    2  C   UNL     1       7.052  29.643  57.880  1.00  0.00     0.046 A 
HETATM    3  C   UNL     1       7.962  29.912  58.919  1.00  0.00     0.032 A 
HETATM    4  C   UNL     1       7.816  31.006  59.786  1.00  0.00     0.032 A 
HETATM    5  C   UNL     1       6.753  31.887  59.633  1.00  0.00     0.037 A 
HETATM    6  C   UNL     1       5.808  31.623  58.644  1.00  0.00     0.049 A 
ENDROOT
BRANCH   2   7
HETATM    7  N   UNL     1       7.293  28.620  56.971  1.00  0.00    -0.378 N 
HETATM    8  C   UNL     1       7.497  27.245  57.472  1.00  0.00     0.138 C 
HETATM    9  C   UNL     1       7.105  26.224  56.375  1.00  0.00     0.115 C 
HETATM   10  N   UNL     1       7.869  26.467  55.126  1.00  0.00    -0.278 NA
HETATM   11  C   UNL     1       7.684  27.861  54.635  1.00  0.00     0.115 C 
HETATM   12  C   UNL     1       8.053  28.889  55.731  1.00  0.00     0.138 C 
BRANCH  10  13
HETATM   13  C   UNL     1       7.727  25.529  54.073  1.00  0.00     0.044 A 
HETATM   14  C   UNL     1       8.160  24.184  54.243  1.00  0.00     0.089 A 
HETATM   15  C   UNL     1       8.047  23.267  53.186  1.00  0.00     0.038 A 
HETATM   16  C   UNL     1       7.508  23.659  51.960  1.00  0.00     0.003 A 
HETATM   17  C   UNL     1       7.073  24.964  51.782  1.00  0.00     0.002 A 
HETATM   18  C   UNL     1       7.178  25.886  52.828  1.00  0.00     0.026 A 
BRANCH  14  19
HETATM   19  O   UNL     1       8.655  23.854  55.485  1.00  0.00    -0.354 OA
HETATM   20  C   UNL     1       8.304  22.587  56.020  1.00  0.00     0.210 C 
ENDBRANCH  14  19
ENDBRANCH  10  13
ENDBRANCH   2   7
BRANCH   1  21
HETATM   21  C   UNL     1       4.885  30.384  56.749  1.00  0.00     0.254 C 
HETATM   22  N   UNL     1       5.112  31.182  55.643  1.00  0.00    -0.353 N 
HETATM   23  H   UNL     1       5.860  31.862  55.710  1.00  0.00     0.163 HD
HETATM   24  O   UNL     1       3.957  29.598  56.868  1.00  0.00    -0.268 OA
BRANCH  22  25
HETATM   25  C   UNL     1       4.334  31.184  54.409  1.00  0.00     0.080 C 
HETATM   26  C   UNL     1       4.404  29.860  53.651  1.00  0.00     0.032 C 
BRANCH  25  27
HETATM   27  C   UNL     1       2.910  31.739  54.579  1.00  0.00     0.020 C 
HETATM   28  C   UNL     1       2.765  32.969  55.458  1.00  0.00     0.007 C 
ENDBRANCH  25  27
ENDBRANCH  22  25
ENDBRANCH   1  21
BRANCH   5  29
HETATM   29  N   UNL     1       6.614  33.082  60.363  1.00  0.00    -0.309 N 
HETATM   30  C   UNL     1       5.758  33.326  61.424  1.00  0.00     0.325 C 
HETATM   31  N   UNL     1       6.173  34.458  62.104  1.00  0.00    -0.307 N 
HETATM   32  O   UNL     1       4.790  32.637  61.717  1.00  0.00    -0.247 OA
HETATM   33  H   UNL     1       7.157  34.676  62.020  1.00  0.00     0.170 HD
HETATM   34  H   UNL     1       7.109  33.890  60.016  1.00  0.00     0.170 HD
BRANCH  31  35
HETATM   35  C   UNL     1       5.505  35.116  63.162  1.00  0.00     0.053 A 
HETATM   36  C   UNL     1       5.850  34.794  64.488  1.00  0.00     0.037 A 
HETATM   37 BR   UNL     1       7.158  33.467  64.877  1.00  0.00    -0.049 Br
HETATM   38  C   UNL     1       5.227  35.429  65.566  1.00  0.00     0.021 A 
HETATM   39  C   UNL     1       4.262  36.405  65.331  1.00  0.00     0.002 A 
HETATM   40  C   UNL     1       3.923  36.743  64.023  1.00  0.00     0.002 A 
HETATM   41  C   UNL     1       4.541  36.103  62.944  1.00  0.00     0.031 A 
ENDBRANCH  31  35
ENDBRANCH   5  29
TORSDOF 8
ENDMDL
MODEL 10
REMARK VINA RESULT:      -8.8      1.074      1.945
REMARK  8 active torsions:
REMARK  status: ('A' for Active; 'I' for Inactive)
REMARK    1  A    between atoms: C_2  and  C_3 
REMARK    2  A    between atoms: C_3  and  N_4 
REMARK       I    between atoms: N_4  and  C_5 
REMARK    3  A    between atoms: C_5  and  C_6 
REMARK    4  A    between atoms: C_7  and  N_8 
REMARK    5  A    between atoms: N_11  and  C_12 
REMARK    6  A    between atoms: C_13  and  O_14 
REMARK    7  A    between atoms: C_24  and  N_25 
REMARK       I    between atoms: N_25  and  C_26 
REMARK       I    between atoms: C_26  and  N_27 
REMARK    8  A    between atoms: N_27  and  C_28 
ROOT
HETATM    1  C   UNL     1       7.142  29.580  58.229  1.00  0.00     0.060 A 
HETATM    2  C   UNL     1       5.839  29.952  57.835  1.00  0.00     0.046 A 
HETATM    3  C   UNL     1       5.135  29.010  57.062  1.00  0.00     0.032 A 
HETATM    4  C   UNL     1       5.706  27.796  56.648  1.00  0.00     0.032 A 
HETATM    5  C   UNL     1       7.017  27.485  56.985  1.00  0.00     0.037 A 
HETATM    6  C   UNL     1       7.726  28.373  57.790  1.00  0.00     0.049 A 
ENDROOT
BRANCH   2   7
HETATM    7  N   UNL     1       5.282  31.192  58.125  1.00  0.00    -0.378 N 
HETATM    8  C   UNL     1       5.917  32.410  57.582  1.00  0.00     0.138 C 
HETATM    9  C   UNL     1       4.862  33.538  57.453  1.00  0.00     0.115 C 
HETATM   10  N   UNL     1       4.204  33.801  58.758  1.00  0.00    -0.278 NA
HETATM   11  C   UNL     1       3.587  32.567  59.316  1.00  0.00     0.115 C 
HETATM   12  C   UNL     1       4.628  31.427  59.430  1.00  0.00     0.138 C 
BRANCH  10  13
HETATM   13  C   UNL     1       3.315  34.901  58.836  1.00  0.00     0.044 A 
HETATM   14  C   UNL     1       3.409  35.830  59.910  1.00  0.00     0.089 A 
HETATM   15  C   UNL     1       2.504  36.899  60.001  1.00  0.00     0.038 A 
HETATM   16  C   UNL     1       1.505  37.067  59.043  1.00  0.00     0.003 A 
HETATM   17  C   UNL     1       1.405  36.176  57.985  1.00  0.00     0.002 A 
HETATM   18  C   UNL     1       2.302  35.109  57.882  1.00  0.00     0.026 A 
BRANCH  14  19
HETATM   19  O   UNL     1       4.434  35.624  60.807  1.00  0.00    -0.354 OA
HETATM   20  C   UNL     1       4.841  36.723  61.608  1.00  0.00     0.210 C 
ENDBRANCH  14  19
ENDBRANCH  10  13
ENDBRANCH   2   7
BRANCH   1  21
HETATM   21  C   UNL     1       8.037  30.455  59.035  1.00  0.00     0.254 C 
HETATM   22  N   UNL     1       7.718  30.475  60.381  1.00  0.00    -0.353 N 
HETATM   23  H   UNL     1       6.849  30.035  60.656  1.00  0.00     0.163 HD
HETATM   24  O   UNL     1       8.987  31.034  58.531  1.00  0.00    -0.268 OA
BRANCH  22  25
HETATM   25  C   UNL     1       8.485  31.129  61.436  1.00  0.00     0.080 C 
HETATM   26  C   UNL     1       9.434  32.205  60.912  1.00  0.00     0.032 C 
BRANCH  25  27
HETATM   27  C   UNL     1       7.631  31.570  62.636  1.00  0.00     0.020 C 
HETATM   28  C   UNL     1       8.162  32.737  63.450  1.00  0.00     0.007 C 
ENDBRANCH  25  27
ENDBRANCH  22  25
ENDBRANCH   1  21
BRANCH   5  29
HETATM   29  N   UNL     1       7.706  26.361  56.493  1.00  0.00    -0.309 N 
HETATM   30  C   UNL     1       7.171  25.137  56.128  1.00  0.00     0.325 C 
HETATM   31  N   UNL     1       8.085  24.442  55.355  1.00  0.00    -0.307 N 
HETATM   32  O   UNL     1       6.055  24.740  56.436  1.00  0.00    -0.247 OA
HETATM   33  H   UNL     1       8.754  25.015  54.859  1.00  0.00     0.170 HD
HETATM   34  H   UNL     1       8.715  26.402  56.506  1.00  0.00     0.170 HD
BRANCH  31  35
HETATM   35  C   UNL     1       7.981  23.111  54.892  1.00  0.00     0.053 A 
HETATM   36  C   UNL     1       7.906  22.878  53.505  1.00  0.00     0.037 A 
HETATM   37 BR   UNL     1       7.902  24.316  52.258  1.00  0.00    -0.049 Br
HETATM   38  C   UNL     1       7.817  21.578  53.000  1.00  0.00     0.021 A 
HETATM   39  C   UNL     1       7.815  20.494  53.874  1.00  0.00     0.002 A 
HETATM   40  C   UNL     1       7.903  20.711  55.247  1.00  0.00     0.002 A 
HETATM   41  C   UNL     1       7.985  22.012  55.754  1.00  0.00     0.031 A 
ENDBRANCH  31  35
ENDBRANCH   5  29
TORSDOF 8
ENDMDL
