MODEL 1
REMARK VINA RESULT:      -9.4      0.000      0.000
REMARK  6 active torsions:
REMARK  status: ('A' for Active; 'I' for Inactive)
REMARK    1  A    between atoms: C_10  and  C_11 
REMARK       I    between atoms: C_11  and  N_12 
REMARK    2  A    between atoms: N_12  and  C_13 
REMARK    3  A    between atoms: C_13  and  C_14 
REMARK    4  A    between atoms: C_14  and  N_15 
REMARK    5  A    between atoms: C_14  and  C_19 
REMARK    6  A    between atoms: C_20  and  O_21 
ROOT
HETATM    1  C   UNL     1       8.554  29.290  57.967  1.00  0.00     0.276 C 
HETATM    2  N   UNL     1       7.752  28.159  57.884  1.00  0.00    -0.353 N 
HETATM    3  O   UNL     1       9.557  29.398  57.267  1.00  0.00    -0.265 OA
HETATM    4  H   UNL     1       7.107  28.033  58.661  1.00  0.00     0.162 HD
ENDROOT
BRANCH   2   5
HETATM    5  C   UNL     1       8.217  27.008  57.114  1.00  0.00     0.161 C 
BRANCH   5   6
HETATM    6  C   UNL     1       7.127  26.491  56.121  1.00  0.00     0.240 C 
BRANCH   6   7
HETATM    7  N   UNL     1       5.750  26.579  56.821  1.00  0.00    -0.069 N 
HETATM    8  H   UNL     1       5.981  26.967  57.746  1.00  0.00     0.279 HD
HETATM    9  C   UNL     1       4.843  27.582  56.165  1.00  0.00     0.270 C 
HETATM   10  C   UNL     1       5.048  25.276  57.045  1.00  0.00     0.270 C 
ENDBRANCH   6   7
BRANCH   6  11
HETATM   11  C   UNL     1       7.433  25.154  55.470  1.00  0.00     0.007 A 
HETATM   12  C   UNL     1       6.904  24.858  54.194  1.00  0.00     0.076 A 
HETATM   13  C   UNL     1       7.169  23.628  53.585  1.00  0.00     0.037 A 
HETATM   14  C   UNL     1       7.979  22.692  54.222  1.00  0.00     0.003 A 
HETATM   15  C   UNL     1       8.519  22.974  55.472  1.00  0.00     0.001 A 
HETATM   16  C   UNL     1       8.247  24.193  56.095  1.00  0.00     0.012 A 
BRANCH  12  17
HETATM   17  O   UNL     1       6.088  25.807  53.633  1.00  0.00    -0.355 OA
HETATM   18  C   UNL     1       4.836  25.331  53.136  1.00  0.00     0.210 C 
ENDBRANCH  12  17
ENDBRANCH   6  11
ENDBRANCH   5   6
ENDBRANCH   2   5
BRANCH   1  19
HETATM   19  C   UNL     1       8.091  30.289  58.899  1.00  0.00     0.150 A 
HETATM   20  O   UNL     1       8.736  30.400  60.104  1.00  0.00    -0.304 OA
HETATM   21  C   UNL     1       8.062  31.331  60.834  1.00  0.00     0.087 A 
HETATM   22  C   UNL     1       8.366  31.705  62.140  1.00  0.00     0.045 A 
HETATM   23  C   UNL     1       7.012  31.855  60.098  1.00  0.00     0.007 A 
HETATM   24  C   UNL     1       7.546  32.681  62.740  1.00  0.00    -0.053 A 
HETATM   25  C   UNL     1       6.461  33.238  62.027  1.00  0.00    -0.055 A 
HETATM   26  C   UNL     1       7.826  33.077  64.166  1.00  0.00     0.049 C 
HETATM   27  C   UNL     1       5.577  34.291  62.642  1.00  0.00     0.049 C 
HETATM   28  C   UNL     1       6.203  32.836  60.699  1.00  0.00     0.022 A 
HETATM   29  C   UNL     1       7.037  31.189  58.834  1.00  0.00    -0.009 A 
HETATM   30  C   UNL     1       6.109  31.405  57.694  1.00  0.00     0.052 C 
ENDBRANCH   1  19
TORSDOF 6
ENDMDL
MODEL 2
REMARK VINA RESULT:      -9.4      5.912      9.541
REMARK  6 active torsions:
REMARK  status: ('A' for Active; 'I' for Inactive)
REMARK    1  A    between atoms: C_10  and  C_11 
REMARK       I    between atoms: C_11  and  N_12 
REMARK    2  A    between atoms: N_12  and  C_13 
REMARK    3  A    between atoms: C_13  and  C_14 
REMARK    4  A    between atoms: C_14  and  N_15 
REMARK    5  A    between atoms: C_14  and  C_19 
REMARK    6  A    between atoms: C_20  and  O_21 
ROOT
HETATM    1  C   UNL     1       5.428  26.847  53.591  1.00  0.00     0.276 C 
HETATM    2  N   UNL     1       4.506  26.722  52.559  1.00  0.00    -0.353 N 
HETATM    3  O   UNL     1       5.617  27.933  54.133  1.00  0.00    -0.265 OA
HETATM    4  H   UNL     1       4.597  25.873  52.004  1.00  0.00     0.162 HD
ENDROOT
BRANCH   2   5
HETATM    5  C   UNL     1       3.914  27.925  51.981  1.00  0.00     0.161 C 
BRANCH   5   6
HETATM    6  C   UNL     1       4.474  28.224  50.553  1.00  0.00     0.240 C 
BRANCH   6   7
HETATM    7  N   UNL     1       4.600  29.758  50.391  1.00  0.00    -0.069 N 
HETATM    8  H   UNL     1       3.739  30.012  49.888  1.00  0.00     0.279 HD
HETATM    9  C   UNL     1       4.537  30.475  51.710  1.00  0.00     0.270 C 
HETATM   10  C   UNL     1       5.756  30.233  49.568  1.00  0.00     0.270 C 
ENDBRANCH   6   7
BRANCH   6  11
HETATM   11  C   UNL     1       3.756  27.515  49.420  1.00  0.00     0.007 A 
HETATM   12  C   UNL     1       2.503  27.993  48.976  1.00  0.00     0.076 A 
HETATM   13  C   UNL     1       1.824  27.346  47.939  1.00  0.00     0.037 A 
HETATM   14  C   UNL     1       2.392  26.237  47.316  1.00  0.00     0.003 A 
HETATM   15  C   UNL     1       3.631  25.763  47.732  1.00  0.00     0.001 A 
HETATM   16  C   UNL     1       4.309  26.393  48.776  1.00  0.00     0.012 A 
BRANCH  12  17
HETATM   17  O   UNL     1       1.982  29.068  49.650  1.00  0.00    -0.355 OA
HETATM   18  C   UNL     1       1.303  30.033  48.846  1.00  0.00     0.210 C 
ENDBRANCH  12  17
ENDBRANCH   6  11
ENDBRANCH   5   6
ENDBRANCH   2   5
BRANCH   1  19
HETATM   19  C   UNL     1       6.090  25.618  53.960  1.00  0.00     0.150 A 
HETATM   20  O   UNL     1       6.631  24.849  52.963  1.00  0.00    -0.304 OA
HETATM   21  C   UNL     1       7.104  23.713  53.546  1.00  0.00     0.087 A 
HETATM   22  C   UNL     1       7.689  22.645  52.873  1.00  0.00     0.045 A 
HETATM   23  C   UNL     1       6.912  23.759  54.918  1.00  0.00     0.007 A 
HETATM   24  C   UNL     1       8.109  21.545  53.646  1.00  0.00    -0.053 A 
HETATM   25  C   UNL     1       7.929  21.548  55.047  1.00  0.00    -0.055 A 
HETATM   26  C   UNL     1       8.710  20.357  52.940  1.00  0.00     0.049 C 
HETATM   27  C   UNL     1       8.380  20.389  55.898  1.00  0.00     0.049 C 
HETATM   28  C   UNL     1       7.343  22.662  55.685  1.00  0.00     0.022 A 
HETATM   29  C   UNL     1       6.266  25.003  55.191  1.00  0.00    -0.009 A 
HETATM   30  C   UNL     1       5.849  25.518  56.520  1.00  0.00     0.052 C 
ENDBRANCH   1  19
TORSDOF 6
ENDMDL
MODEL 3
REMARK VINA RESULT:      -9.4      2.350      9.026
REMARK  6 active torsions:
REMARK  status: ('A' for Active; 'I' for Inactive)
REMARK    1  A    between atoms: C_10  and  C_11 
REMARK       I    between atoms: C_11  and  N_12 
REMARK    2  A    between atoms: N_12  and  C_13 
REMARK    3  A    between atoms: C_13  and  C_14 
REMARK    4  A    between atoms: C_14  and  N_15 
REMARK    5  A    between atoms: C_14  and  C_19 
REMARK    6  A    between atoms: C_20  and  O_21 
ROOT
HETATM    1  C   UNL     1       6.074  27.031  54.226  1.00  0.00     0.276 C 
HETATM    2  N   UNL     1       6.386  27.619  55.445  1.00  0.00    -0.353 N 
HETATM    3  O   UNL     1       5.502  27.673  53.350  1.00  0.00    -0.265 OA
HETATM    4  H   UNL     1       6.616  26.964  56.190  1.00  0.00     0.162 HD
ENDROOT
BRANCH   2   5
HETATM    5  C   UNL     1       5.849  28.940  55.759  1.00  0.00     0.161 C 
BRANCH   5   6
HETATM    6  C   UNL     1       6.441  29.510  57.088  1.00  0.00     0.240 C 
BRANCH   6   7
HETATM    7  N   UNL     1       5.608  30.747  57.501  1.00  0.00    -0.069 N 
HETATM    8  H   UNL     1       6.198  31.200  58.214  1.00  0.00     0.279 HD
HETATM    9  C   UNL     1       5.475  31.741  56.382  1.00  0.00     0.270 C 
HETATM   10  C   UNL     1       4.283  30.459  58.133  1.00  0.00     0.270 C 
ENDBRANCH   6   7
BRANCH   6  11
HETATM   11  C   UNL     1       7.944  29.720  57.084  1.00  0.00     0.007 A 
HETATM   12  C   UNL     1       8.585  30.226  58.236  1.00  0.00     0.076 A 
HETATM   13  C   UNL     1       9.967  30.433  58.245  1.00  0.00     0.037 A 
HETATM   14  C   UNL     1      10.730  30.118  57.123  1.00  0.00     0.003 A 
HETATM   15  C   UNL     1      10.116  29.606  55.986  1.00  0.00     0.001 A 
HETATM   16  C   UNL     1       8.734  29.410  55.962  1.00  0.00     0.012 A 
BRANCH  12  17
HETATM   17  O   UNL     1       7.777  30.547  59.297  1.00  0.00    -0.355 OA
HETATM   18  C   UNL     1       8.446  30.782  60.537  1.00  0.00     0.210 C 
ENDBRANCH  12  17
ENDBRANCH   6  11
ENDBRANCH   5   6
ENDBRANCH   2   5
BRANCH   1  19
HETATM   19  C   UNL     1       6.497  25.657  54.093  1.00  0.00     0.150 A 
HETATM   20  O   UNL     1       6.590  24.895  55.229  1.00  0.00    -0.304 OA
HETATM   21  C   UNL     1       7.096  23.687  54.860  1.00  0.00     0.087 A 
HETATM   22  C   UNL     1       7.391  22.638  55.726  1.00  0.00     0.045 A 
HETATM   23  C   UNL     1       7.290  23.643  53.488  1.00  0.00     0.007 A 
HETATM   24  C   UNL     1       7.920  21.461  55.160  1.00  0.00    -0.053 A 
HETATM   25  C   UNL     1       8.139  21.375  53.766  1.00  0.00    -0.055 A 
HETATM   26  C   UNL     1       8.286  20.323  56.077  1.00  0.00     0.049 C 
HETATM   27  C   UNL     1       8.693  20.125  53.135  1.00  0.00     0.049 C 
HETATM   28  C   UNL     1       7.810  22.462  52.928  1.00  0.00     0.022 A 
HETATM   29  C   UNL     1       6.889  24.918  52.986  1.00  0.00    -0.009 A 
HETATM   30  C   UNL     1       6.908  25.365  51.570  1.00  0.00     0.052 C 
ENDBRANCH   1  19
TORSDOF 6
ENDMDL
MODEL 4
REMARK VINA RESULT:      -9.3      6.031      9.937
REMARK  6 active torsions:
REMARK  status: ('A' for Active; 'I' for Inactive)
REMARK    1  A    between atoms: C_10  and  C_11 
REMARK       I    between atoms: C_11  and  N_12 
REMARK    2  A    between atoms: N_12  and  C_13 
REMARK    3  A    between atoms: C_13  and  C_14 
REMARK    4  A    between atoms: C_14  and  N_15 
REMARK    5  A    between atoms: C_14  and  C_19 
REMARK    6  A    between atoms: C_20  and  O_21 
ROOT
HETATM    1  C   UNL     1       5.876  26.854  52.714  1.00  0.00     0.276 C 
HETATM    2  N   UNL     1       4.845  26.640  51.809  1.00  0.00    -0.353 N 
HETATM    3  O   UNL     1       6.259  27.993  52.968  1.00  0.00    -0.265 OA
HETATM    4  H   UNL     1       4.767  25.685  51.466  1.00  0.00     0.162 HD
ENDROOT
BRANCH   2   5
HETATM    5  C   UNL     1       4.356  27.758  51.005  1.00  0.00     0.161 C 
BRANCH   5   6
HETATM    6  C   UNL     1       4.452  27.462  49.474  1.00  0.00     0.240 C 
BRANCH   6   7
HETATM    7  N   UNL     1       5.649  28.256  48.899  1.00  0.00    -0.069 N 
HETATM    8  H   UNL     1       6.462  27.686  49.173  1.00  0.00     0.279 HD
HETATM    9  C   UNL     1       5.646  28.277  47.396  1.00  0.00     0.270 C 
HETATM   10  C   UNL     1       5.853  29.627  49.463  1.00  0.00     0.270 C 
ENDBRANCH   6   7
BRANCH   6  11
HETATM   11  C   UNL     1       3.151  27.616  48.707  1.00  0.00     0.007 A 
HETATM   12  C   UNL     1       2.700  26.569  47.874  1.00  0.00     0.076 A 
HETATM   13  C   UNL     1       1.509  26.698  47.154  1.00  0.00     0.037 A 
HETATM   14  C   UNL     1       0.742  27.855  47.273  1.00  0.00     0.003 A 
HETATM   15  C   UNL     1       1.165  28.889  48.099  1.00  0.00     0.001 A 
HETATM   16  C   UNL     1       2.361  28.775  48.810  1.00  0.00     0.012 A 
BRANCH  12  17
HETATM   17  O   UNL     1       3.515  25.470  47.774  1.00  0.00    -0.355 OA
HETATM   18  C   UNL     1       2.885  24.209  48.008  1.00  0.00     0.210 C 
ENDBRANCH  12  17
ENDBRANCH   6  11
ENDBRANCH   5   6
ENDBRANCH   2   5
BRANCH   1  19
HETATM   19  C   UNL     1       6.408  25.655  53.316  1.00  0.00     0.150 A 
HETATM   20  O   UNL     1       6.985  24.720  52.496  1.00  0.00    -0.304 OA
HETATM   21  C   UNL     1       7.316  23.654  53.276  1.00  0.00     0.087 A 
HETATM   22  C   UNL     1       7.883  22.467  52.821  1.00  0.00     0.045 A 
HETATM   23  C   UNL     1       6.996  23.907  54.601  1.00  0.00     0.007 A 
HETATM   24  C   UNL     1       8.146  21.467  53.778  1.00  0.00    -0.053 A 
HETATM   25  C   UNL     1       7.832  21.682  55.139  1.00  0.00    -0.055 A 
HETATM   26  C   UNL     1       8.724  20.157  53.310  1.00  0.00     0.049 C 
HETATM   27  C   UNL     1       8.114  20.634  56.184  1.00  0.00     0.049 C 
HETATM   28  C   UNL     1       7.270  22.909  55.553  1.00  0.00     0.022 A 
HETATM   29  C   UNL     1       6.419  25.213  54.631  1.00  0.00    -0.009 A 
HETATM   30  C   UNL     1       5.915  25.937  55.826  1.00  0.00     0.052 C 
ENDBRANCH   1  19
TORSDOF 6
ENDMDL
MODEL 5
REMARK VINA RESULT:      -9.1      5.618      9.194
REMARK  6 active torsions:
REMARK  status: ('A' for Active; 'I' for Inactive)
REMARK    1  A    between atoms: C_10  and  C_11 
REMARK       I    between atoms: C_11  and  N_12 
REMARK    2  A    between atoms: N_12  and  C_13 
REMARK    3  A    between atoms: C_13  and  C_14 
REMARK    4  A    between atoms: C_14  and  N_15 
REMARK    5  A    between atoms: C_14  and  C_19 
REMARK    6  A    between atoms: C_20  and  O_21 
ROOT
HETATM    1  C   UNL     1       5.305  26.837  54.237  1.00  0.00     0.276 C 
HETATM    2  N   UNL     1       4.248  26.767  53.339  1.00  0.00    -0.353 N 
HETATM    3  O   UNL     1       5.576  27.893  54.803  1.00  0.00    -0.265 OA
HETATM    4  H   UNL     1       4.255  25.949  52.733  1.00  0.00     0.162 HD
ENDROOT
BRANCH   2   5
HETATM    5  C   UNL     1       3.589  27.999  52.913  1.00  0.00     0.161 C 
BRANCH   5   6
HETATM    6  C   UNL     1       4.527  28.890  52.036  1.00  0.00     0.240 C 
BRANCH   6   7
HETATM    7  N   UNL     1       4.110  30.369  52.225  1.00  0.00    -0.069 N 
HETATM    8  H   UNL     1       4.868  30.888  51.760  1.00  0.00     0.279 HD
HETATM    9  C   UNL     1       2.855  30.704  51.470  1.00  0.00     0.270 C 
HETATM   10  C   UNL     1       4.039  30.850  53.640  1.00  0.00     0.270 C 
ENDBRANCH   6   7
BRANCH   6  11
HETATM   11  C   UNL     1       4.673  28.443  50.594  1.00  0.00     0.007 A 
HETATM   12  C   UNL     1       5.538  29.146  49.726  1.00  0.00     0.076 A 
HETATM   13  C   UNL     1       5.677  28.753  48.392  1.00  0.00     0.037 A 
HETATM   14  C   UNL     1       4.982  27.645  47.912  1.00  0.00     0.003 A 
HETATM   15  C   UNL     1       4.137  26.934  48.758  1.00  0.00     0.001 A 
HETATM   16  C   UNL     1       3.980  27.329  50.087  1.00  0.00     0.012 A 
BRANCH  12  17
HETATM   17  O   UNL     1       6.170  30.246  50.248  1.00  0.00    -0.355 OA
HETATM   18  C   UNL     1       6.061  31.445  49.479  1.00  0.00     0.210 C 
ENDBRANCH  12  17
ENDBRANCH   6  11
ENDBRANCH   5   6
ENDBRANCH   2   5
BRANCH   1  19
HETATM   19  C   UNL     1       6.003  25.591  54.444  1.00  0.00     0.150 A 
HETATM   20  O   UNL     1       6.461  24.913  53.344  1.00  0.00    -0.304 OA
HETATM   21  C   UNL     1       6.988  23.740  53.788  1.00  0.00     0.087 A 
HETATM   22  C   UNL     1       7.519  22.738  52.981  1.00  0.00     0.045 A 
HETATM   23  C   UNL     1       6.915  23.670  55.171  1.00  0.00     0.007 A 
HETATM   24  C   UNL     1       8.011  21.584  53.622  1.00  0.00    -0.053 A 
HETATM   25  C   UNL     1       7.952  21.468  55.029  1.00  0.00    -0.055 A 
HETATM   26  C   UNL     1       8.555  20.466  52.771  1.00  0.00     0.049 C 
HETATM   27  C   UNL     1       8.481  20.250  55.738  1.00  0.00     0.049 C 
HETATM   28  C   UNL     1       7.417  22.519  55.805  1.00  0.00     0.022 A 
HETATM   29  C   UNL     1       6.288  24.878  55.600  1.00  0.00    -0.009 A 
HETATM   30  C   UNL     1       5.985  25.277  56.999  1.00  0.00     0.052 C 
ENDBRANCH   1  19
TORSDOF 6
ENDMDL
MODEL 6
REMARK VINA RESULT:      -9.1      2.018      9.096
REMARK  6 active torsions:
REMARK  status: ('A' for Active; 'I' for Inactive)
REMARK    1  A    between atoms: C_10  and  C_11 
REMARK       I    between atoms: C_11  and  N_12 
REMARK    2  A    between atoms: N_12  and  C_13 
REMARK    3  A    between atoms: C_13  and  C_14 
REMARK    4  A    between atoms: C_14  and  N_15 
REMARK    5  A    between atoms: C_14  and  C_19 
REMARK    6  A    between atoms: C_20  and  O_21 
ROOT
HETATM    1  C   UNL     1       7.087  27.388  55.112  1.00  0.00     0.276 C 
HETATM    2  N   UNL     1       7.936  28.193  55.862  1.00  0.00    -0.353 N 
HETATM    3  O   UNL     1       6.154  27.880  54.483  1.00  0.00    -0.265 OA
HETATM    4  H   UNL     1       8.506  27.695  56.543  1.00  0.00     0.162 HD
ENDROOT
BRANCH   2   5
HETATM    5  C   UNL     1       7.594  29.598  56.066  1.00  0.00     0.161 C 
BRANCH   5   6
HETATM    6  C   UNL     1       6.882  29.831  57.438  1.00  0.00     0.240 C 
BRANCH   6   7
HETATM    7  N   UNL     1       5.424  30.272  57.161  1.00  0.00    -0.069 N 
HETATM    8  H   UNL     1       5.219  30.909  57.943  1.00  0.00     0.279 HD
HETATM    9  C   UNL     1       5.310  31.099  55.912  1.00  0.00     0.270 C 
HETATM   10  C   UNL     1       4.398  29.183  57.189  1.00  0.00     0.270 C 
ENDBRANCH   6   7
BRANCH   6  11
HETATM   11  C   UNL     1       7.643  30.707  58.416  1.00  0.00     0.007 A 
HETATM   12  C   UNL     1       9.048  30.594  58.511  1.00  0.00     0.076 A 
HETATM   13  C   UNL     1       9.763  31.387  59.413  1.00  0.00     0.037 A 
HETATM   14  C   UNL     1       9.097  32.316  60.209  1.00  0.00     0.003 A 
HETATM   15  C   UNL     1       7.716  32.449  60.118  1.00  0.00     0.001 A 
HETATM   16  C   UNL     1       6.992  31.650  59.231  1.00  0.00     0.012 A 
BRANCH  12  17
HETATM   17  O   UNL     1       9.642  29.640  57.724  1.00  0.00    -0.355 OA
HETATM   18  C   UNL     1      10.958  29.950  57.263  1.00  0.00     0.210 C 
ENDBRANCH  12  17
ENDBRANCH   6  11
ENDBRANCH   5   6
ENDBRANCH   2   5
BRANCH   1  19
HETATM   19  C   UNL     1       7.417  25.984  55.129  1.00  0.00     0.150 A 
HETATM   20  O   UNL     1       7.550  25.334  53.929  1.00  0.00    -0.304 OA
HETATM   21  C   UNL     1       7.762  24.019  54.206  1.00  0.00     0.087 A 
HETATM   22  C   UNL     1       7.900  23.007  53.261  1.00  0.00     0.045 A 
HETATM   23  C   UNL     1       7.811  23.816  55.577  1.00  0.00     0.007 A 
HETATM   24  C   UNL     1       8.104  21.698  53.739  1.00  0.00    -0.053 A 
HETATM   25  C   UNL     1       8.156  21.446  55.128  1.00  0.00    -0.055 A 
HETATM   26  C   UNL     1       8.217  20.577  52.739  1.00  0.00     0.049 C 
HETATM   27  C   UNL     1       8.384  20.057  55.665  1.00  0.00     0.049 C 
HETATM   28  C   UNL     1       8.025  22.509  56.048  1.00  0.00     0.022 A 
HETATM   29  C   UNL     1       7.602  25.095  56.178  1.00  0.00    -0.009 A 
HETATM   30  C   UNL     1       7.568  25.401  57.631  1.00  0.00     0.052 C 
ENDBRANCH   1  19
TORSDOF 6
ENDMDL
MODEL 7
REMARK VINA RESULT:      -9.0      2.193      4.016
REMARK  6 active torsions:
REMARK  status: ('A' for Active; 'I' for Inactive)
REMARK    1  A    between atoms: C_10  and  C_11 
REMARK       I    between atoms: C_11  and  N_12 
REMARK    2  A    between atoms: N_12  and  C_13 
REMARK    3  A    between atoms: C_13  and  C_14 
REMARK    4  A    between atoms: C_14  and  N_15 
REMARK    5  A    between atoms: C_14  and  C_19 
REMARK    6  A    between atoms: C_20  and  O_21 
ROOT
HETATM    1  C   UNL     1       6.651  31.851  59.215  1.00  0.00     0.276 C 
HETATM    2  N   UNL     1       6.852  30.503  58.949  1.00  0.00    -0.353 N 
HETATM    3  O   UNL     1       6.485  32.651  58.299  1.00  0.00    -0.265 OA
HETATM    4  H   UNL     1       7.233  29.965  59.725  1.00  0.00     0.162 HD
ENDROOT
BRANCH   2   5
HETATM    5  C   UNL     1       7.071  30.071  57.571  1.00  0.00     0.161 C 
BRANCH   5   6
HETATM    6  C   UNL     1       7.779  28.679  57.500  1.00  0.00     0.240 C 
BRANCH   6   7
HETATM    7  N   UNL     1       9.235  28.897  57.025  1.00  0.00    -0.069 N 
HETATM    8  H   UNL     1       9.656  27.963  57.125  1.00  0.00     0.279 HD
HETATM    9  C   UNL     1       9.311  29.232  55.563  1.00  0.00     0.270 C 
HETATM   10  C   UNL     1      10.052  29.846  57.844  1.00  0.00     0.270 C 
ENDBRANCH   6   7
BRANCH   6  11
HETATM   11  C   UNL     1       7.011  27.606  56.749  1.00  0.00     0.007 A 
HETATM   12  C   UNL     1       7.363  26.248  56.913  1.00  0.00     0.076 A 
HETATM   13  C   UNL     1       6.673  25.249  56.222  1.00  0.00     0.037 A 
HETATM   14  C   UNL     1       5.612  25.583  55.383  1.00  0.00     0.003 A 
HETATM   15  C   UNL     1       5.244  26.914  55.222  1.00  0.00     0.001 A 
HETATM   16  C   UNL     1       5.938  27.920  55.896  1.00  0.00     0.012 A 
BRANCH  12  17
HETATM   17  O   UNL     1       8.436  25.986  57.727  1.00  0.00    -0.355 OA
HETATM   18  C   UNL     1       8.953  24.656  57.661  1.00  0.00     0.210 C 
ENDBRANCH  12  17
ENDBRANCH   6  11
ENDBRANCH   5   6
ENDBRANCH   2   5
BRANCH   1  19
HETATM   19  C   UNL     1       6.633  32.192  60.617  1.00  0.00     0.150 A 
HETATM   20  O   UNL     1       5.425  32.475  61.200  1.00  0.00    -0.304 OA
HETATM   21  C   UNL     1       5.679  32.858  62.481  1.00  0.00     0.087 A 
HETATM   22  C   UNL     1       4.723  33.277  63.402  1.00  0.00     0.045 A 
HETATM   23  C   UNL     1       7.037  32.784  62.747  1.00  0.00     0.007 A 
HETATM   24  C   UNL     1       5.177  33.646  64.683  1.00  0.00    -0.053 A 
HETATM   25  C   UNL     1       6.554  33.591  64.996  1.00  0.00    -0.055 A 
HETATM   26  C   UNL     1       4.170  34.141  65.689  1.00  0.00     0.049 C 
HETATM   27  C   UNL     1       7.064  33.970  66.362  1.00  0.00     0.049 C 
HETATM   28  C   UNL     1       7.483  33.145  64.031  1.00  0.00     0.022 A 
HETATM   29  C   UNL     1       7.658  32.338  61.541  1.00  0.00    -0.009 A 
HETATM   30  C   UNL     1       9.108  32.101  61.320  1.00  0.00     0.052 C 
ENDBRANCH   1  19
TORSDOF 6
ENDMDL
MODEL 8
REMARK VINA RESULT:      -8.9      6.076      9.338
REMARK  6 active torsions:
REMARK  status: ('A' for Active; 'I' for Inactive)
REMARK    1  A    between atoms: C_10  and  C_11 
REMARK       I    between atoms: C_11  and  N_12 
REMARK    2  A    between atoms: N_12  and  C_13 
REMARK    3  A    between atoms: C_13  and  C_14 
REMARK    4  A    between atoms: C_14  and  N_15 
REMARK    5  A    between atoms: C_14  and  C_19 
REMARK    6  A    between atoms: C_20  and  O_21 
ROOT
HETATM    1  C   UNL     1       5.313  26.911  53.976  1.00  0.00     0.276 C 
HETATM    2  N   UNL     1       4.139  27.022  53.242  1.00  0.00    -0.353 N 
HETATM    3  O   UNL     1       5.734  27.863  54.628  1.00  0.00    -0.265 OA
HETATM    4  H   UNL     1       4.002  26.295  52.541  1.00  0.00     0.162 HD
ENDROOT
BRANCH   2   5
HETATM    5  C   UNL     1       3.517  28.333  53.081  1.00  0.00     0.161 C 
BRANCH   5   6
HETATM    6  C   UNL     1       4.144  29.135  51.895  1.00  0.00     0.240 C 
BRANCH   6   7
HETATM    7  N   UNL     1       3.744  30.622  52.047  1.00  0.00    -0.069 N 
HETATM    8  H   UNL     1       2.806  30.657  51.623  1.00  0.00     0.279 HD
HETATM    9  C   UNL     1       3.563  31.016  53.485  1.00  0.00     0.270 C 
HETATM   10  C   UNL     1       4.602  31.606  51.317  1.00  0.00     0.270 C 
ENDBRANCH   6   7
BRANCH   6  11
HETATM   11  C   UNL     1       3.903  28.542  50.519  1.00  0.00     0.007 A 
HETATM   12  C   UNL     1       2.646  28.705  49.896  1.00  0.00     0.076 A 
HETATM   13  C   UNL     1       2.404  28.157  48.633  1.00  0.00     0.037 A 
HETATM   14  C   UNL     1       3.413  27.466  47.966  1.00  0.00     0.003 A 
HETATM   15  C   UNL     1       4.660  27.308  48.560  1.00  0.00     0.001 A 
HETATM   16  C   UNL     1       4.905  27.838  49.827  1.00  0.00     0.012 A 
BRANCH  12  17
HETATM   17  O   UNL     1       1.685  29.367  50.617  1.00  0.00    -0.355 OA
HETATM   18  C   UNL     1       0.968  30.380  49.910  1.00  0.00     0.210 C 
ENDBRANCH  12  17
ENDBRANCH   6  11
ENDBRANCH   5   6
ENDBRANCH   2   5
BRANCH   1  19
HETATM   19  C   UNL     1       5.941  25.614  53.916  1.00  0.00     0.150 A 
HETATM   20  O   UNL     1       6.116  24.924  55.088  1.00  0.00    -0.304 OA
HETATM   21  C   UNL     1       6.809  23.791  54.786  1.00  0.00     0.087 A 
HETATM   22  C   UNL     1       7.234  22.837  55.705  1.00  0.00     0.045 A 
HETATM   23  C   UNL     1       7.046  23.720  53.422  1.00  0.00     0.007 A 
HETATM   24  C   UNL     1       7.951  21.732  55.206  1.00  0.00    -0.053 A 
HETATM   25  C   UNL     1       8.219  21.621  53.823  1.00  0.00    -0.055 A 
HETATM   26  C   UNL     1       8.458  20.702  56.182  1.00  0.00     0.049 C 
HETATM   27  C   UNL     1       8.973  20.444  53.262  1.00  0.00     0.049 C 
HETATM   28  C   UNL     1       7.754  22.609  52.928  1.00  0.00     0.022 A 
HETATM   29  C   UNL     1       6.471  24.897  52.853  1.00  0.00    -0.009 A 
HETATM   30  C   UNL     1       6.463  25.280  51.418  1.00  0.00     0.052 C 
ENDBRANCH   1  19
TORSDOF 6
ENDMDL
MODEL 9
REMARK VINA RESULT:      -8.9      2.493      9.339
REMARK  6 active torsions:
REMARK  status: ('A' for Active; 'I' for Inactive)
REMARK    1  A    between atoms: C_10  and  C_11 
REMARK       I    between atoms: C_11  and  N_12 
REMARK    2  A    between atoms: N_12  and  C_13 
REMARK    3  A    between atoms: C_13  and  C_14 
REMARK    4  A    between atoms: C_14  and  N_15 
REMARK    5  A    between atoms: C_14  and  C_19 
REMARK    6  A    between atoms: C_20  and  O_21 
ROOT
HETATM    1  C   UNL     1       7.380  30.855  58.673  1.00  0.00     0.276 C 
HETATM    2  N   UNL     1       6.347  31.177  59.544  1.00  0.00    -0.353 N 
HETATM    3  O   UNL     1       8.364  31.582  58.575  1.00  0.00    -0.265 OA
HETATM    4  H   UNL     1       5.475  30.677  59.378  1.00  0.00     0.162 HD
ENDROOT
BRANCH   2   5
HETATM    5  C   UNL     1       6.338  32.487  60.190  1.00  0.00     0.161 C 
BRANCH   5   6
HETATM    6  C   UNL     1       5.332  32.543  61.384  1.00  0.00     0.240 C 
BRANCH   6   7
HETATM    7  N   UNL     1       4.132  33.427  60.967  1.00  0.00    -0.069 N 
HETATM    8  H   UNL     1       3.624  33.565  61.852  1.00  0.00     0.279 HD
HETATM    9  C   UNL     1       4.563  34.795  60.520  1.00  0.00     0.270 C 
HETATM   10  C   UNL     1       3.176  32.812  59.994  1.00  0.00     0.270 C 
ENDBRANCH   6   7
BRANCH   6  11
HETATM   11  C   UNL     1       5.947  32.887  62.727  1.00  0.00     0.007 A 
HETATM   12  C   UNL     1       5.111  33.184  63.827  1.00  0.00     0.076 A 
HETATM   13  C   UNL     1       5.662  33.511  65.069  1.00  0.00     0.037 A 
HETATM   14  C   UNL     1       7.045  33.523  65.240  1.00  0.00     0.003 A 
HETATM   15  C   UNL     1       7.881  33.220  64.171  1.00  0.00     0.001 A 
HETATM   16  C   UNL     1       7.340  32.907  62.923  1.00  0.00     0.012 A 
BRANCH  12  17
HETATM   17  O   UNL     1       3.760  33.187  63.587  1.00  0.00    -0.355 OA
HETATM   18  C   UNL     1       3.048  34.325  64.073  1.00  0.00     0.210 C 
ENDBRANCH  12  17
ENDBRANCH   6  11
ENDBRANCH   5   6
ENDBRANCH   2   5
BRANCH   1  19
HETATM   19  C   UNL     1       7.195  29.620  57.950  1.00  0.00     0.150 A 
HETATM   20  O   UNL     1       7.884  28.512  58.371  1.00  0.00    -0.304 OA
HETATM   21  C   UNL     1       7.622  27.516  57.481  1.00  0.00     0.087 A 
HETATM   22  C   UNL     1       8.167  26.236  57.520  1.00  0.00     0.045 A 
HETATM   23  C   UNL     1       6.734  27.955  56.512  1.00  0.00     0.007 A 
HETATM   24  C   UNL     1       7.785  25.338  56.504  1.00  0.00    -0.053 A 
HETATM   25  C   UNL     1       6.886  25.746  55.493  1.00  0.00    -0.055 A 
HETATM   26  C   UNL     1       8.390  23.959  56.498  1.00  0.00     0.049 C 
HETATM   27  C   UNL     1       6.453  24.802  54.402  1.00  0.00     0.049 C 
HETATM   28  C   UNL     1       6.349  27.051  55.505  1.00  0.00     0.022 A 
HETATM   29  C   UNL     1       6.445  29.319  56.822  1.00  0.00    -0.009 A 
HETATM   30  C   UNL     1       5.541  30.230  56.075  1.00  0.00     0.052 C 
ENDBRANCH   1  19
TORSDOF 6
ENDMDL
MODEL 10
REMARK VINA RESULT:      -8.6      5.633      9.598
REMARK  6 active torsions:
REMARK  status: ('A' for Active; 'I' for Inactive)
REMARK    1  A    between atoms: C_10  and  C_11 
REMARK       I    between atoms: C_11  and  N_12 
REMARK    2  A    between atoms: N_12  and  C_13 
REMARK    3  A    between atoms: C_13  and  C_14 
REMARK    4  A    between atoms: C_14  and  N_15 
REMARK    5  A    between atoms: C_14  and  C_19 
REMARK    6  A    between atoms: C_20  and  O_21 
ROOT
HETATM    1  C   UNL     1       5.653  27.038  54.487  1.00  0.00     0.276 C 
HETATM    2  N   UNL     1       4.494  27.056  53.722  1.00  0.00    -0.353 N 
HETATM    3  O   UNL     1       6.081  28.070  54.997  1.00  0.00    -0.265 OA
HETATM    4  H   UNL     1       4.356  26.235  53.135  1.00  0.00     0.162 HD
ENDROOT
BRANCH   2   5
HETATM    5  C   UNL     1       3.899  28.338  53.355  1.00  0.00     0.161 C 
BRANCH   5   6
HETATM    6  C   UNL     1       3.597  28.425  51.824  1.00  0.00     0.240 C 
BRANCH   6   7
HETATM    7  N   UNL     1       4.910  28.146  51.053  1.00  0.00    -0.069 N 
HETATM    8  H   UNL     1       5.581  27.931  51.803  1.00  0.00     0.279 HD
HETATM    9  C   UNL     1       4.820  26.907  50.208  1.00  0.00     0.270 C 
HETATM   10  C   UNL     1       5.464  29.297  50.273  1.00  0.00     0.270 C 
ENDBRANCH   6   7
BRANCH   6  11
HETATM   11  C   UNL     1       2.847  29.669  51.387  1.00  0.00     0.007 A 
HETATM   12  C   UNL     1       1.909  29.588  50.334  1.00  0.00     0.076 A 
HETATM   13  C   UNL     1       1.216  30.727  49.913  1.00  0.00     0.037 A 
HETATM   14  C   UNL     1       1.427  31.949  50.547  1.00  0.00     0.003 A 
HETATM   15  C   UNL     1       2.336  32.042  51.594  1.00  0.00     0.001 A 
HETATM   16  C   UNL     1       3.045  30.914  52.011  1.00  0.00     0.012 A 
BRANCH  12  17
HETATM   17  O   UNL     1       1.769  28.365  49.728  1.00  0.00    -0.355 OA
HETATM   18  C   UNL     1       1.711  28.384  48.301  1.00  0.00     0.210 C 
ENDBRANCH  12  17
ENDBRANCH   6  11
ENDBRANCH   5   6
ENDBRANCH   2   5
BRANCH   1  19
HETATM   19  C   UNL     1       6.260  25.737  54.633  1.00  0.00     0.150 A 
HETATM   20  O   UNL     1       6.668  25.081  53.501  1.00  0.00    -0.304 OA
HETATM   21  C   UNL     1       7.109  23.853  53.887  1.00  0.00     0.087 A 
HETATM   22  C   UNL     1       7.567  22.854  53.032  1.00  0.00     0.045 A 
HETATM   23  C   UNL     1       7.031  23.723  55.265  1.00  0.00     0.007 A 
HETATM   24  C   UNL     1       7.974  21.639  53.616  1.00  0.00    -0.053 A 
HETATM   25  C   UNL     1       7.907  21.462  55.016  1.00  0.00    -0.055 A 
HETATM   26  C   UNL     1       8.437  20.526  52.712  1.00  0.00     0.049 C 
HETATM   27  C   UNL     1       8.347  20.176  55.666  1.00  0.00     0.049 C 
HETATM   28  C   UNL     1       7.449  22.510  55.843  1.00  0.00     0.022 A 
HETATM   29  C   UNL     1       6.492  24.952  55.753  1.00  0.00    -0.009 A 
HETATM   30  C   UNL     1       6.218  25.304  57.170  1.00  0.00     0.052 C 
ENDBRANCH   1  19
TORSDOF 6
ENDMDL
