MODEL 1
REMARK VINA RESULT:      -9.9      0.000      0.000
REMARK  6 active torsions:
REMARK  status: ('A' for Active; 'I' for Inactive)
REMARK    1  A    between atoms: C_3  and  C_4 
REMARK    2  A    between atoms: C_4  and  N_5 
REMARK    3  A    between atoms: C_4  and  C_9 
REMARK       I    between atoms: N_5  and  C_6 
REMARK       I    between atoms: C_6  and  N_7 
REMARK    4  A    between atoms: C_9  and  C_10 
REMARK       I    between atoms: C_10  and  N_11 
REMARK    5  A    between atoms: N_11  and  C_12 
REMARK    6  A    between atoms: C_14  and  C_15 
ROOT
HETATM    1  C   UNL     1       6.312  25.146  56.680  1.00  0.00     0.133 C 
ENDROOT
BRANCH   1   2
HETATM    2  C   UNL     1       6.523  25.173  55.164  1.00  0.00     0.128 C 
BRANCH   2   3
HETATM    3  C   UNL     1       7.157  23.918  54.557  1.00  0.00    -0.029 A 
HETATM    4  C   UNL     1       7.697  23.822  53.254  1.00  0.00    -0.054 A 
HETATM    5  C   UNL     1       7.670  24.938  52.246  1.00  0.00     0.049 C 
HETATM    6  C   UNL     1       8.277  22.606  52.837  1.00  0.00     0.007 A 
HETATM    7  C   UNL     1       8.359  21.508  53.692  1.00  0.00     0.001 A 
HETATM    8  C   UNL     1       7.847  21.600  54.977  1.00  0.00     0.001 A 
HETATM    9  C   UNL     1       7.253  22.787  55.402  1.00  0.00     0.010 A 
ENDBRANCH   2   3
BRANCH   2  10
HETATM   10  N   UNL     1       5.377  25.590  54.354  1.00  0.00    -0.339 N 
HETATM   11  C   UNL     1       4.984  26.864  54.097  1.00  0.00     0.292 C 
HETATM   12  N   UNL     1       3.867  26.908  53.327  1.00  0.00    -0.254 NA
HETATM   13  O   UNL     1       5.527  27.889  54.479  1.00  0.00    -0.254 OA
HETATM   14  H   UNL     1       3.791  26.214  52.599  1.00  0.00     0.128 HD
HETATM   15  H   UNL     1       3.629  27.848  53.034  1.00  0.00     0.128 HD
HETATM   16  H   UNL     1       4.665  24.889  54.217  1.00  0.00     0.164 HD
ENDBRANCH   2  10
ENDBRANCH   1   2
BRANCH   1  17
HETATM   17  C   UNL     1       7.309  26.044  57.383  1.00  0.00     0.224 C 
HETATM   18  N   UNL     1       7.131  27.385  57.099  1.00  0.00    -0.327 N 
HETATM   19  H   UNL     1       6.256  27.645  56.662  1.00  0.00     0.169 HD
HETATM   20  O   UNL     1       8.164  25.563  58.122  1.00  0.00    -0.273 OA
BRANCH  18  21
HETATM   21  C   UNL     1       8.014  28.444  57.397  1.00  0.00     0.035 A 
HETATM   22  C   UNL     1       7.891  29.262  58.525  1.00  0.00     0.042 A 
HETATM   23  C   UNL     1       8.835  30.267  58.800  1.00  0.00    -0.021 A 
HETATM   24  C   UNL     1       9.909  30.445  57.920  1.00  0.00     0.012 A 
HETATM   25  C   UNL     1      10.038  29.635  56.790  1.00  0.00     0.003 A 
HETATM   26  C   UNL     1       9.098  28.638  56.534  1.00  0.00     0.029 A 
BRANCH  23  27
HETATM   27  C   UNL     1       8.723  31.096  59.990  1.00  0.00     0.010 A 
HETATM   28  C   UNL     1       9.240  30.920  61.297  1.00  0.00     0.152 A 
HETATM   29  N   UNL     1       8.920  31.920  62.122  1.00  0.00    -0.187 NA
HETATM   30  N   UNL     1       8.190  32.740  61.349  1.00  0.00    -0.289 N 
HETATM   31  H   UNL     1       7.821  33.589  61.763  1.00  0.00     0.188 HD
HETATM   32  C   UNL     1       8.048  32.297  60.067  1.00  0.00     0.123 A 
ENDBRANCH  23  27
ENDBRANCH  18  21
ENDBRANCH   1  17
TORSDOF 6
ENDMDL
MODEL 2
REMARK VINA RESULT:      -9.7      2.788      8.900
REMARK  6 active torsions:
REMARK  status: ('A' for Active; 'I' for Inactive)
REMARK    1  A    between atoms: C_3  and  C_4 
REMARK    2  A    between atoms: C_4  and  N_5 
REMARK    3  A    between atoms: C_4  and  C_9 
REMARK       I    between atoms: N_5  and  C_6 
REMARK       I    between atoms: C_6  and  N_7 
REMARK    4  A    between atoms: C_9  and  C_10 
REMARK       I    between atoms: C_10  and  N_11 
REMARK    5  A    between atoms: N_11  and  C_12 
REMARK    6  A    between atoms: C_14  and  C_15 
ROOT
HETATM    1  C   UNL     1       7.671  28.084  57.699  1.00  0.00     0.133 C 
ENDROOT
BRANCH   1   2
HETATM    2  C   UNL     1       8.343  29.459  57.676  1.00  0.00     0.128 C 
BRANCH   2   3
HETATM    3  C   UNL     1       7.771  30.495  58.648  1.00  0.00    -0.029 A 
HETATM    4  C   UNL     1       6.594  31.251  58.441  1.00  0.00    -0.054 A 
HETATM    5  C   UNL     1       5.758  31.184  57.192  1.00  0.00     0.049 C 
HETATM    6  C   UNL     1       6.170  32.152  59.440  1.00  0.00     0.007 A 
HETATM    7  C   UNL     1       6.867  32.291  60.638  1.00  0.00     0.001 A 
HETATM    8  C   UNL     1       8.013  31.542  60.856  1.00  0.00     0.001 A 
HETATM    9  C   UNL     1       8.459  30.659  59.874  1.00  0.00     0.010 A 
ENDBRANCH   2   3
BRANCH   2  10
HETATM   10  N   UNL     1       9.805  29.472  57.741  1.00  0.00    -0.339 N 
HETATM   11  C   UNL     1      10.660  29.811  56.743  1.00  0.00     0.292 C 
HETATM   12  N   UNL     1      11.958  29.697  57.122  1.00  0.00    -0.254 NA
HETATM   13  O   UNL     1      10.362  30.185  55.619  1.00  0.00    -0.254 OA
HETATM   14  H   UNL     1      12.178  29.963  58.070  1.00  0.00     0.128 HD
HETATM   15  H   UNL     1      12.603  30.054  56.428  1.00  0.00     0.128 HD
HETATM   16  H   UNL     1      10.210  28.916  58.479  1.00  0.00     0.164 HD
ENDBRANCH   2  10
ENDBRANCH   1   2
BRANCH   1  17
HETATM   17  C   UNL     1       7.619  27.482  56.310  1.00  0.00     0.224 C 
HETATM   18  N   UNL     1       7.084  26.208  56.286  1.00  0.00    -0.327 N 
HETATM   19  H   UNL     1       6.589  25.906  57.116  1.00  0.00     0.169 HD
HETATM   20  O   UNL     1       8.025  28.120  55.342  1.00  0.00    -0.273 OA
BRANCH  18  21
HETATM   21  C   UNL     1       7.107  25.293  55.212  1.00  0.00     0.035 A 
HETATM   22  C   UNL     1       7.661  24.011  55.297  1.00  0.00     0.042 A 
HETATM   23  C   UNL     1       7.604  23.122  54.210  1.00  0.00    -0.021 A 
HETATM   24  C   UNL     1       6.985  23.540  53.026  1.00  0.00     0.012 A 
HETATM   25  C   UNL     1       6.432  24.819  52.931  1.00  0.00     0.003 A 
HETATM   26  C   UNL     1       6.490  25.688  54.020  1.00  0.00     0.029 A 
BRANCH  23  27
HETATM   27  C   UNL     1       8.152  21.778  54.309  1.00  0.00     0.010 A 
HETATM   28  C   UNL     1       8.337  20.776  53.327  1.00  0.00     0.152 A 
HETATM   29  N   UNL     1       8.884  19.661  53.818  1.00  0.00    -0.187 NA
HETATM   30  N   UNL     1       9.047  19.942  55.121  1.00  0.00    -0.289 N 
HETATM   31  H   UNL     1       9.452  19.230  55.719  1.00  0.00     0.188 HD
HETATM   32  C   UNL     1       8.631  21.194  55.463  1.00  0.00     0.123 A 
ENDBRANCH  23  27
ENDBRANCH  18  21
ENDBRANCH   1  17
TORSDOF 6
ENDMDL
MODEL 3
REMARK VINA RESULT:      -9.2      1.515      1.939
REMARK  6 active torsions:
REMARK  status: ('A' for Active; 'I' for Inactive)
REMARK    1  A    between atoms: C_3  and  C_4 
REMARK    2  A    between atoms: C_4  and  N_5 
REMARK    3  A    between atoms: C_4  and  C_9 
REMARK       I    between atoms: N_5  and  C_6 
REMARK       I    between atoms: C_6  and  N_7 
REMARK    4  A    between atoms: C_9  and  C_10 
REMARK       I    between atoms: C_10  and  N_11 
REMARK    5  A    between atoms: N_11  and  C_12 
REMARK    6  A    between atoms: C_14  and  C_15 
ROOT
HETATM    1  C   UNL     1       6.967  24.625  56.732  1.00  0.00     0.133 C 
ENDROOT
BRANCH   1   2
HETATM    2  C   UNL     1       6.943  24.484  55.208  1.00  0.00     0.128 C 
BRANCH   2   3
HETATM    3  C   UNL     1       7.421  23.138  54.656  1.00  0.00    -0.029 A 
HETATM    4  C   UNL     1       7.867  22.907  53.334  1.00  0.00    -0.054 A 
HETATM    5  C   UNL     1       7.880  23.954  52.254  1.00  0.00     0.049 C 
HETATM    6  C   UNL     1       8.307  21.617  52.972  1.00  0.00     0.007 A 
HETATM    7  C   UNL     1       8.341  20.574  53.895  1.00  0.00     0.001 A 
HETATM    8  C   UNL     1       7.920  20.797  55.197  1.00  0.00     0.001 A 
HETATM    9  C   UNL     1       7.465  22.060  55.571  1.00  0.00     0.010 A 
ENDBRANCH   2   3
BRANCH   2  10
HETATM   10  N   UNL     1       5.705  24.885  54.535  1.00  0.00    -0.339 N 
HETATM   11  C   UNL     1       5.433  26.097  53.988  1.00  0.00     0.292 C 
HETATM   12  N   UNL     1       4.184  26.149  53.460  1.00  0.00    -0.254 NA
HETATM   13  O   UNL     1       6.177  27.063  53.941  1.00  0.00    -0.254 OA
HETATM   14  H   UNL     1       3.852  25.315  52.999  1.00  0.00     0.128 HD
HETATM   15  H   UNL     1       4.008  27.005  52.949  1.00  0.00     0.128 HD
HETATM   16  H   UNL     1       4.895  24.321  54.748  1.00  0.00     0.164 HD
ENDBRANCH   2  10
ENDBRANCH   1   2
BRANCH   1  17
HETATM   17  C   UNL     1       7.311  26.043  57.140  1.00  0.00     0.224 C 
HETATM   18  N   UNL     1       6.205  26.865  57.246  1.00  0.00    -0.327 N 
HETATM   19  H   UNL     1       5.300  26.410  57.271  1.00  0.00     0.169 HD
HETATM   20  O   UNL     1       8.479  26.363  57.346  1.00  0.00    -0.273 OA
BRANCH  18  21
HETATM   21  C   UNL     1       6.195  28.269  57.376  1.00  0.00     0.035 A 
HETATM   22  C   UNL     1       7.209  28.997  58.010  1.00  0.00     0.042 A 
HETATM   23  C   UNL     1       7.173  30.401  58.058  1.00  0.00    -0.021 A 
HETATM   24  C   UNL     1       6.097  31.072  57.464  1.00  0.00     0.012 A 
HETATM   25  C   UNL     1       5.080  30.354  56.833  1.00  0.00     0.003 A 
HETATM   26  C   UNL     1       5.132  28.961  56.786  1.00  0.00     0.029 A 
BRANCH  23  27
HETATM   27  C   UNL     1       8.244  31.158  58.689  1.00  0.00     0.010 A 
HETATM   28  C   UNL     1       9.611  31.295  58.346  1.00  0.00     0.152 A 
HETATM   29  N   UNL     1      10.279  32.094  59.182  1.00  0.00    -0.187 NA
HETATM   30  N   UNL     1       9.344  32.467  60.070  1.00  0.00    -0.289 N 
HETATM   31  H   UNL     1       9.618  33.088  60.824  1.00  0.00     0.188 HD
HETATM   32  C   UNL     1       8.112  31.941  59.817  1.00  0.00     0.123 A 
ENDBRANCH  23  27
ENDBRANCH  18  21
ENDBRANCH   1  17
TORSDOF 6
ENDMDL
MODEL 4
REMARK VINA RESULT:      -9.0      4.588      9.068
REMARK  6 active torsions:
REMARK  status: ('A' for Active; 'I' for Inactive)
REMARK    1  A    between atoms: C_3  and  C_4 
REMARK    2  A    between atoms: C_4  and  N_5 
REMARK    3  A    between atoms: C_4  and  C_9 
REMARK       I    between atoms: N_5  and  C_6 
REMARK       I    between atoms: C_6  and  N_7 
REMARK    4  A    between atoms: C_9  and  C_10 
REMARK       I    between atoms: C_10  and  N_11 
REMARK    5  A    between atoms: N_11  and  C_12 
REMARK    6  A    between atoms: C_14  and  C_15 
ROOT
HETATM    1  C   UNL     1       5.387  24.801  52.839  1.00  0.00     0.133 C 
ENDROOT
BRANCH   1   2
HETATM    2  C   UNL     1       6.451  25.180  53.872  1.00  0.00     0.128 C 
BRANCH   2   3
HETATM    3  C   UNL     1       7.414  24.061  54.277  1.00  0.00    -0.029 A 
HETATM    4  C   UNL     1       7.793  23.747  55.603  1.00  0.00    -0.054 A 
HETATM    5  C   UNL     1       7.343  24.517  56.813  1.00  0.00     0.049 C 
HETATM    6  C   UNL     1       8.671  22.667  55.830  1.00  0.00     0.007 A 
HETATM    7  C   UNL     1       9.148  21.883  54.781  1.00  0.00     0.001 A 
HETATM    8  C   UNL     1       8.767  22.174  53.480  1.00  0.00     0.001 A 
HETATM    9  C   UNL     1       7.915  23.249  53.232  1.00  0.00     0.010 A 
ENDBRANCH   2   3
BRANCH   2  10
HETATM   10  N   UNL     1       7.201  26.411  53.613  1.00  0.00    -0.339 N 
HETATM   11  C   UNL     1       7.302  27.488  54.432  1.00  0.00     0.292 C 
HETATM   12  N   UNL     1       8.057  28.475  53.886  1.00  0.00    -0.254 NA
HETATM   13  O   UNL     1       6.803  27.617  55.538  1.00  0.00    -0.254 OA
HETATM   14  H   UNL     1       8.863  28.186  53.351  1.00  0.00     0.128 HD
HETATM   15  H   UNL     1       8.236  29.236  54.530  1.00  0.00     0.128 HD
HETATM   16  H   UNL     1       7.418  26.589  52.643  1.00  0.00     0.164 HD
ENDBRANCH   2  10
ENDBRANCH   1   2
BRANCH   1  17
HETATM   17  C   UNL     1       4.817  26.033  52.168  1.00  0.00     0.224 C 
HETATM   18  N   UNL     1       4.815  25.953  50.788  1.00  0.00    -0.327 N 
HETATM   19  H   UNL     1       4.967  25.037  50.385  1.00  0.00     0.169 HD
HETATM   20  O   UNL     1       4.410  26.976  52.843  1.00  0.00    -0.273 OA
BRANCH  18  21
HETATM   21  C   UNL     1       4.576  27.000  49.874  1.00  0.00     0.035 A 
HETATM   22  C   UNL     1       3.476  27.038  49.009  1.00  0.00     0.042 A 
HETATM   23  C   UNL     1       3.259  28.136  48.159  1.00  0.00    -0.021 A 
HETATM   24  C   UNL     1       4.168  29.200  48.182  1.00  0.00     0.012 A 
HETATM   25  C   UNL     1       5.270  29.170  49.039  1.00  0.00     0.003 A 
HETATM   26  C   UNL     1       5.469  28.077  49.882  1.00  0.00     0.029 A 
BRANCH  23  27
HETATM   27  C   UNL     1       2.098  28.189  47.283  1.00  0.00     0.010 A 
HETATM   28  C   UNL     1       1.179  27.183  46.899  1.00  0.00     0.152 A 
HETATM   29  N   UNL     1       0.231  27.633  46.072  1.00  0.00    -0.187 NA
HETATM   30  N   UNL     1       0.543  28.930  45.918  1.00  0.00    -0.289 N 
HETATM   31  H   UNL     1      -0.044  29.497  45.315  1.00  0.00     0.188 HD
HETATM   32  C   UNL     1       1.645  29.312  46.624  1.00  0.00     0.123 A 
ENDBRANCH  23  27
ENDBRANCH  18  21
ENDBRANCH   1  17
TORSDOF 6
ENDMDL
MODEL 5
REMARK VINA RESULT:      -8.9      4.184      8.561
REMARK  6 active torsions:
REMARK  status: ('A' for Active; 'I' for Inactive)
REMARK    1  A    between atoms: C_3  and  C_4 
REMARK    2  A    between atoms: C_4  and  N_5 
REMARK    3  A    between atoms: C_4  and  C_9 
REMARK       I    between atoms: N_5  and  C_6 
REMARK       I    between atoms: C_6  and  N_7 
REMARK    4  A    between atoms: C_9  and  C_10 
REMARK       I    between atoms: C_10  and  N_11 
REMARK    5  A    between atoms: N_11  and  C_12 
REMARK    6  A    between atoms: C_14  and  C_15 
ROOT
HETATM    1  C   UNL     1       7.698  24.982  53.812  1.00  0.00     0.133 C 
ENDROOT
BRANCH   1   2
HETATM    2  C   UNL     1       7.462  23.968  54.934  1.00  0.00     0.128 C 
BRANCH   2   3
HETATM    3  C   UNL     1       7.921  22.536  54.645  1.00  0.00    -0.029 A 
HETATM    4  C   UNL     1       8.227  21.562  55.623  1.00  0.00    -0.054 A 
HETATM    5  C   UNL     1       8.202  21.818  57.105  1.00  0.00     0.049 C 
HETATM    6  C   UNL     1       8.612  20.270  55.210  1.00  0.00     0.007 A 
HETATM    7  C   UNL     1       8.666  19.922  53.861  1.00  0.00     0.001 A 
HETATM    8  C   UNL     1       8.351  20.867  52.897  1.00  0.00     0.001 A 
HETATM    9  C   UNL     1       7.986  22.156  53.284  1.00  0.00     0.010 A 
ENDBRANCH   2   3
BRANCH   2  10
HETATM   10  N   UNL     1       7.894  24.367  56.275  1.00  0.00    -0.339 N 
HETATM   11  C   UNL     1       7.251  25.215  57.118  1.00  0.00     0.292 C 
HETATM   12  N   UNL     1       7.930  25.391  58.280  1.00  0.00    -0.254 NA
HETATM   13  O   UNL     1       6.188  25.780  56.917  1.00  0.00    -0.254 OA
HETATM   14  H   UNL     1       8.397  24.581  58.658  1.00  0.00     0.128 HD
HETATM   15  H   UNL     1       7.408  25.928  58.962  1.00  0.00     0.128 HD
HETATM   16  H   UNL     1       8.875  24.233  56.470  1.00  0.00     0.164 HD
ENDBRANCH   2  10
ENDBRANCH   1   2
BRANCH   1  17
HETATM   17  C   UNL     1       6.392  25.382  53.157  1.00  0.00     0.224 C 
HETATM   18  N   UNL     1       6.562  26.139  52.014  1.00  0.00    -0.327 N 
HETATM   19  H   UNL     1       7.492  26.154  51.613  1.00  0.00     0.169 HD
HETATM   20  O   UNL     1       5.320  25.031  53.645  1.00  0.00    -0.273 OA
BRANCH  18  21
HETATM   21  C   UNL     1       5.572  26.856  51.310  1.00  0.00     0.035 A 
HETATM   22  C   UNL     1       4.966  26.393  50.137  1.00  0.00     0.042 A 
HETATM   23  C   UNL     1       3.943  27.126  49.511  1.00  0.00    -0.021 A 
HETATM   24  C   UNL     1       3.537  28.340  50.076  1.00  0.00     0.012 A 
HETATM   25  C   UNL     1       4.139  28.812  51.244  1.00  0.00     0.003 A 
HETATM   26  C   UNL     1       5.147  28.071  51.859  1.00  0.00     0.029 A 
BRANCH  23  27
HETATM   27  C   UNL     1       3.291  26.628  48.309  1.00  0.00     0.010 A 
HETATM   28  C   UNL     1       3.421  25.394  47.625  1.00  0.00     0.152 A 
HETATM   29  N   UNL     1       2.637  25.312  46.547  1.00  0.00    -0.187 NA
HETATM   30  N   UNL     1       2.004  26.496  46.532  1.00  0.00    -0.289 N 
HETATM   31  H   UNL     1       1.341  26.677  45.786  1.00  0.00     0.188 HD
HETATM   32  C   UNL     1       2.355  27.314  47.565  1.00  0.00     0.123 A 
ENDBRANCH  23  27
ENDBRANCH  18  21
ENDBRANCH   1  17
TORSDOF 6
ENDMDL
MODEL 6
REMARK VINA RESULT:      -8.9      3.116      7.784
REMARK  6 active torsions:
REMARK  status: ('A' for Active; 'I' for Inactive)
REMARK    1  A    between atoms: C_3  and  C_4 
REMARK    2  A    between atoms: C_4  and  N_5 
REMARK    3  A    between atoms: C_4  and  C_9 
REMARK       I    between atoms: N_5  and  C_6 
REMARK       I    between atoms: C_6  and  N_7 
REMARK    4  A    between atoms: C_9  and  C_10 
REMARK       I    between atoms: C_10  and  N_11 
REMARK    5  A    between atoms: N_11  and  C_12 
REMARK    6  A    between atoms: C_14  and  C_15 
ROOT
HETATM    1  C   UNL     1       5.521  26.309  56.099  1.00  0.00     0.133 C 
ENDROOT
BRANCH   1   2
HETATM    2  C   UNL     1       7.014  25.982  56.003  1.00  0.00     0.128 C 
BRANCH   2   3
HETATM    3  C   UNL     1       7.420  25.052  54.857  1.00  0.00    -0.029 A 
HETATM    4  C   UNL     1       7.658  23.663  54.974  1.00  0.00    -0.054 A 
HETATM    5  C   UNL     1       7.604  22.905  56.272  1.00  0.00     0.049 C 
HETATM    6  C   UNL     1       7.999  22.923  53.822  1.00  0.00     0.007 A 
HETATM    7  C   UNL     1       8.075  23.524  52.567  1.00  0.00     0.001 A 
HETATM    8  C   UNL     1       7.826  24.882  52.441  1.00  0.00     0.001 A 
HETATM    9  C   UNL     1       7.506  25.635  53.570  1.00  0.00     0.010 A 
ENDBRANCH   2   3
BRANCH   2  10
HETATM   10  N   UNL     1       7.936  27.117  56.071  1.00  0.00    -0.339 N 
HETATM   11  C   UNL     1       8.279  27.820  57.181  1.00  0.00     0.292 C 
HETATM   12  N   UNL     1       9.143  28.828  56.898  1.00  0.00    -0.254 NA
HETATM   13  O   UNL     1       7.895  27.620  58.322  1.00  0.00    -0.254 OA
HETATM   14  H   UNL     1       9.844  28.641  56.198  1.00  0.00     0.128 HD
HETATM   15  H   UNL     1       9.495  29.288  57.729  1.00  0.00     0.128 HD
HETATM   16  H   UNL     1       8.103  27.591  55.196  1.00  0.00     0.164 HD
ENDBRANCH   2  10
ENDBRANCH   1   2
BRANCH   1  17
HETATM   17  C   UNL     1       5.146  27.417  55.136  1.00  0.00     0.224 C 
HETATM   18  N   UNL     1       4.441  26.969  54.035  1.00  0.00    -0.327 N 
HETATM   19  H   UNL     1       4.059  26.033  54.089  1.00  0.00     0.169 HD
HETATM   20  O   UNL     1       5.465  28.579  55.374  1.00  0.00    -0.273 OA
BRANCH  18  21
HETATM   21  C   UNL     1       4.150  27.690  52.858  1.00  0.00     0.035 A 
HETATM   22  C   UNL     1       4.650  27.350  51.596  1.00  0.00     0.042 A 
HETATM   23  C   UNL     1       4.278  28.073  50.449  1.00  0.00    -0.021 A 
HETATM   24  C   UNL     1       3.397  29.152  50.585  1.00  0.00     0.012 A 
HETATM   25  C   UNL     1       2.895  29.500  51.841  1.00  0.00     0.003 A 
HETATM   26  C   UNL     1       3.267  28.769  52.969  1.00  0.00     0.029 A 
BRANCH  23  27
HETATM   27  C   UNL     1       4.774  27.699  49.134  1.00  0.00     0.010 A 
HETATM   28  C   UNL     1       4.545  26.542  48.349  1.00  0.00     0.152 A 
HETATM   29  N   UNL     1       5.184  26.574  47.177  1.00  0.00    -0.187 NA
HETATM   30  N   UNL     1       5.832  27.749  47.207  1.00  0.00    -0.289 N 
HETATM   31  H   UNL     1       6.405  28.004  46.410  1.00  0.00     0.188 HD
HETATM   32  C   UNL     1       5.616  28.461  48.351  1.00  0.00     0.123 A 
ENDBRANCH  23  27
ENDBRANCH  18  21
ENDBRANCH   1  17
TORSDOF 6
ENDMDL
MODEL 7
REMARK VINA RESULT:      -8.8      2.468      3.094
REMARK  6 active torsions:
REMARK  status: ('A' for Active; 'I' for Inactive)
REMARK    1  A    between atoms: C_3  and  C_4 
REMARK    2  A    between atoms: C_4  and  N_5 
REMARK    3  A    between atoms: C_4  and  C_9 
REMARK       I    between atoms: N_5  and  C_6 
REMARK       I    between atoms: C_6  and  N_7 
REMARK    4  A    between atoms: C_9  and  C_10 
REMARK       I    between atoms: C_10  and  N_11 
REMARK    5  A    between atoms: N_11  and  C_12 
REMARK    6  A    between atoms: C_14  and  C_15 
ROOT
HETATM    1  C   UNL     1       7.821  26.321  56.391  1.00  0.00     0.133 C 
ENDROOT
BRANCH   1   2
HETATM    2  C   UNL     1       7.226  25.961  55.027  1.00  0.00     0.128 C 
BRANCH   2   3
HETATM    3  C   UNL     1       7.438  24.515  54.569  1.00  0.00    -0.029 A 
HETATM    4  C   UNL     1       7.764  24.112  53.254  1.00  0.00    -0.054 A 
HETATM    5  C   UNL     1       7.892  25.057  52.090  1.00  0.00     0.049 C 
HETATM    6  C   UNL     1       7.959  22.742  52.982  1.00  0.00     0.007 A 
HETATM    7  C   UNL     1       7.869  21.780  53.987  1.00  0.00     0.001 A 
HETATM    8  C   UNL     1       7.566  22.169  55.282  1.00  0.00     0.001 A 
HETATM    9  C   UNL     1       7.351  23.517  55.568  1.00  0.00     0.010 A 
ENDBRANCH   2   3
BRANCH   2  10
HETATM   10  N   UNL     1       5.834  26.354  54.798  1.00  0.00    -0.339 N 
HETATM   11  C   UNL     1       5.387  27.280  53.912  1.00  0.00     0.292 C 
HETATM   12  N   UNL     1       4.038  27.424  53.963  1.00  0.00    -0.254 NA
HETATM   13  O   UNL     1       6.061  27.936  53.135  1.00  0.00    -0.254 OA
HETATM   14  H   UNL     1       3.498  26.584  54.112  1.00  0.00     0.128 HD
HETATM   15  H   UNL     1       3.679  28.026  53.231  1.00  0.00     0.128 HD
HETATM   16  H   UNL     1       5.194  26.135  55.547  1.00  0.00     0.164 HD
ENDBRANCH   2  10
ENDBRANCH   1   2
BRANCH   1  17
HETATM   17  C   UNL     1       7.934  27.823  56.554  1.00  0.00     0.224 C 
HETATM   18  N   UNL     1       7.686  28.253  57.844  1.00  0.00    -0.327 N 
HETATM   19  H   UNL     1       7.685  27.545  58.567  1.00  0.00     0.169 HD
HETATM   20  O   UNL     1       8.225  28.531  55.593  1.00  0.00    -0.273 OA
BRANCH  18  21
HETATM   21  C   UNL     1       7.483  29.580  58.276  1.00  0.00     0.035 A 
HETATM   22  C   UNL     1       6.350  30.336  57.956  1.00  0.00     0.042 A 
HETATM   23  C   UNL     1       6.176  31.635  58.463  1.00  0.00    -0.021 A 
HETATM   24  C   UNL     1       7.163  32.174  59.297  1.00  0.00     0.012 A 
HETATM   25  C   UNL     1       8.299  31.429  59.619  1.00  0.00     0.003 A 
HETATM   26  C   UNL     1       8.455  30.138  59.114  1.00  0.00     0.029 A 
BRANCH  23  27
HETATM   27  C   UNL     1       4.982  32.407  58.156  1.00  0.00     0.010 A 
HETATM   28  C   UNL     1       3.952  32.186  57.210  1.00  0.00     0.152 A 
HETATM   29  N   UNL     1       3.010  33.134  57.235  1.00  0.00    -0.187 NA
HETATM   30  N   UNL     1       3.437  33.970  58.195  1.00  0.00    -0.289 N 
HETATM   31  H   UNL     1       2.877  34.791  58.401  1.00  0.00     0.188 HD
HETATM   32  C   UNL     1       4.605  33.579  58.779  1.00  0.00     0.123 A 
ENDBRANCH  23  27
ENDBRANCH  18  21
ENDBRANCH   1  17
TORSDOF 6
ENDMDL
MODEL 8
REMARK VINA RESULT:      -8.7      2.528      8.590
REMARK  6 active torsions:
REMARK  status: ('A' for Active; 'I' for Inactive)
REMARK    1  A    between atoms: C_3  and  C_4 
REMARK    2  A    between atoms: C_4  and  N_5 
REMARK    3  A    between atoms: C_4  and  C_9 
REMARK       I    between atoms: N_5  and  C_6 
REMARK       I    between atoms: C_6  and  N_7 
REMARK    4  A    between atoms: C_9  and  C_10 
REMARK       I    between atoms: C_10  and  N_11 
REMARK    5  A    between atoms: N_11  and  C_12 
REMARK    6  A    between atoms: C_14  and  C_15 
ROOT
HETATM    1  C   UNL     1       7.770  28.055  57.722  1.00  0.00     0.133 C 
ENDROOT
BRANCH   1   2
HETATM    2  C   UNL     1       7.081  29.420  57.798  1.00  0.00     0.128 C 
BRANCH   2   3
HETATM    3  C   UNL     1       7.797  30.481  58.639  1.00  0.00    -0.029 A 
HETATM    4  C   UNL     1       9.172  30.802  58.555  1.00  0.00    -0.054 A 
HETATM    5  C   UNL     1      10.149  30.095  57.656  1.00  0.00     0.049 C 
HETATM    6  C   UNL     1       9.691  31.826  59.375  1.00  0.00     0.007 A 
HETATM    7  C   UNL     1       8.874  32.548  60.242  1.00  0.00     0.001 A 
HETATM    8  C   UNL     1       7.522  32.250  60.318  1.00  0.00     0.001 A 
HETATM    9  C   UNL     1       6.993  31.230  59.530  1.00  0.00     0.010 A 
ENDBRANCH   2   3
BRANCH   2  10
HETATM   10  N   UNL     1       6.648  30.003  56.527  1.00  0.00    -0.339 N 
HETATM   11  C   UNL     1       5.379  30.329  56.173  1.00  0.00     0.292 C 
HETATM   12  N   UNL     1       5.314  30.832  54.914  1.00  0.00    -0.254 NA
HETATM   13  O   UNL     1       4.375  30.212  56.857  1.00  0.00    -0.254 OA
HETATM   14  H   UNL     1       6.074  31.429  54.625  1.00  0.00     0.128 HD
HETATM   15  H   UNL     1       4.394  31.184  54.679  1.00  0.00     0.128 HD
HETATM   16  H   UNL     1       7.290  29.887  55.757  1.00  0.00     0.164 HD
ENDBRANCH   2  10
ENDBRANCH   1   2
BRANCH   1  17
HETATM   17  C   UNL     1       7.930  27.607  56.284  1.00  0.00     0.224 C 
HETATM   18  N   UNL     1       7.356  26.375  56.029  1.00  0.00    -0.327 N 
HETATM   19  H   UNL     1       6.715  26.018  56.727  1.00  0.00     0.169 HD
HETATM   20  O   UNL     1       8.519  28.317  55.474  1.00  0.00    -0.273 OA
BRANCH  18  21
HETATM   21  C   UNL     1       7.523  25.579  54.877  1.00  0.00     0.035 A 
HETATM   22  C   UNL     1       7.869  24.224  54.914  1.00  0.00     0.042 A 
HETATM   23  C   UNL     1       7.965  23.467  53.733  1.00  0.00    -0.021 A 
HETATM   24  C   UNL     1       7.715  24.091  52.506  1.00  0.00     0.012 A 
HETATM   25  C   UNL     1       7.372  25.444  52.459  1.00  0.00     0.003 A 
HETATM   26  C   UNL     1       7.273  26.181  53.639  1.00  0.00     0.029 A 
BRANCH  23  27
HETATM   27  C   UNL     1       8.294  22.050  53.776  1.00  0.00     0.010 A 
HETATM   28  C   UNL     1       8.088  21.020  52.826  1.00  0.00     0.152 A 
HETATM   29  N   UNL     1       8.541  19.833  53.238  1.00  0.00    -0.187 NA
HETATM   30  N   UNL     1       9.035  20.096  54.459  1.00  0.00    -0.289 N 
HETATM   31  H   UNL     1       9.442  19.332  54.988  1.00  0.00     0.188 HD
HETATM   32  C   UNL     1       8.917  21.405  54.824  1.00  0.00     0.123 A 
ENDBRANCH  23  27
ENDBRANCH  18  21
ENDBRANCH   1  17
TORSDOF 6
ENDMDL
MODEL 9
REMARK VINA RESULT:      -8.7      4.161      7.547
REMARK  6 active torsions:
REMARK  status: ('A' for Active; 'I' for Inactive)
REMARK    1  A    between atoms: C_3  and  C_4 
REMARK    2  A    between atoms: C_4  and  N_5 
REMARK    3  A    between atoms: C_4  and  C_9 
REMARK       I    between atoms: N_5  and  C_6 
REMARK       I    between atoms: C_6  and  N_7 
REMARK    4  A    between atoms: C_9  and  C_10 
REMARK       I    between atoms: C_10  and  N_11 
REMARK    5  A    between atoms: N_11  and  C_12 
REMARK    6  A    between atoms: C_14  and  C_15 
ROOT
HETATM    1  C   UNL     1       5.049  25.057  53.467  1.00  0.00     0.133 C 
ENDROOT
BRANCH   1   2
HETATM    2  C   UNL     1       6.388  25.291  54.173  1.00  0.00     0.128 C 
BRANCH   2   3
HETATM    3  C   UNL     1       7.344  24.095  54.200  1.00  0.00    -0.029 A 
HETATM    4  C   UNL     1       8.123  23.695  55.310  1.00  0.00    -0.054 A 
HETATM    5  C   UNL     1       8.165  24.433  56.620  1.00  0.00     0.049 C 
HETATM    6  C   UNL     1       8.941  22.552  55.200  1.00  0.00     0.007 A 
HETATM    7  C   UNL     1       8.976  21.791  54.032  1.00  0.00     0.001 A 
HETATM    8  C   UNL     1       8.203  22.168  52.945  1.00  0.00     0.001 A 
HETATM    9  C   UNL     1       7.401  23.305  53.028  1.00  0.00     0.010 A 
ENDBRANCH   2   3
BRANCH   2  10
HETATM   10  N   UNL     1       7.119  26.503  53.798  1.00  0.00    -0.339 N 
HETATM   11  C   UNL     1       7.430  27.547  54.608  1.00  0.00     0.292 C 
HETATM   12  N   UNL     1       8.097  28.525  53.945  1.00  0.00    -0.254 NA
HETATM   13  O   UNL     1       7.173  27.654  55.797  1.00  0.00    -0.254 OA
HETATM   14  H   UNL     1       8.764  28.227  53.248  1.00  0.00     0.128 HD
HETATM   15  H   UNL     1       8.435  29.257  54.559  1.00  0.00     0.128 HD
HETATM   16  H   UNL     1       7.140  26.708  52.810  1.00  0.00     0.164 HD
ENDBRANCH   2  10
ENDBRANCH   1   2
BRANCH   1  17
HETATM   17  C   UNL     1       4.713  26.211  52.546  1.00  0.00     0.224 C 
HETATM   18  N   UNL     1       4.791  25.882  51.206  1.00  0.00    -0.327 N 
HETATM   19  H   UNL     1       4.833  24.896  50.981  1.00  0.00     0.169 HD
HETATM   20  O   UNL     1       4.403  27.306  53.010  1.00  0.00    -0.273 OA
BRANCH  18  21
HETATM   21  C   UNL     1       4.769  26.767  50.108  1.00  0.00     0.035 A 
HETATM   22  C   UNL     1       4.996  28.144  50.216  1.00  0.00     0.042 A 
HETATM   23  C   UNL     1       5.018  28.968  49.077  1.00  0.00    -0.021 A 
HETATM   24  C   UNL     1       4.801  28.391  47.820  1.00  0.00     0.012 A 
HETATM   25  C   UNL     1       4.571  27.019  47.703  1.00  0.00     0.003 A 
HETATM   26  C   UNL     1       4.559  26.212  48.840  1.00  0.00     0.029 A 
BRANCH  23  27
HETATM   27  C   UNL     1       5.285  30.393  49.188  1.00  0.00     0.010 A 
HETATM   28  C   UNL     1       5.812  31.159  50.256  1.00  0.00     0.152 A 
HETATM   29  N   UNL     1       5.913  32.459  49.964  1.00  0.00    -0.187 NA
HETATM   30  N   UNL     1       5.445  32.533  48.708  1.00  0.00    -0.289 N 
HETATM   31  H   UNL     1       5.417  33.441  48.258  1.00  0.00     0.188 HD
HETATM   32  C   UNL     1       5.063  31.328  48.198  1.00  0.00     0.123 A 
ENDBRANCH  23  27
ENDBRANCH  18  21
ENDBRANCH   1  17
TORSDOF 6
ENDMDL
MODEL 10
REMARK VINA RESULT:      -8.6      5.011      8.313
REMARK  6 active torsions:
REMARK  status: ('A' for Active; 'I' for Inactive)
REMARK    1  A    between atoms: C_3  and  C_4 
REMARK    2  A    between atoms: C_4  and  N_5 
REMARK    3  A    between atoms: C_4  and  C_9 
REMARK       I    between atoms: N_5  and  C_6 
REMARK       I    between atoms: C_6  and  N_7 
REMARK    4  A    between atoms: C_9  and  C_10 
REMARK       I    between atoms: C_10  and  N_11 
REMARK    5  A    between atoms: N_11  and  C_12 
REMARK    6  A    between atoms: C_14  and  C_15 
ROOT
HETATM    1  C   UNL     1       5.695  26.414  50.479  1.00  0.00     0.133 C 
ENDROOT
BRANCH   1   2
HETATM    2  C   UNL     1       4.538  27.410  50.368  1.00  0.00     0.128 C 
BRANCH   2   3
HETATM    3  C   UNL     1       3.570  27.179  49.204  1.00  0.00    -0.029 A 
HETATM    4  C   UNL     1       2.622  28.114  48.729  1.00  0.00    -0.054 A 
HETATM    5  C   UNL     1       2.388  29.465  49.347  1.00  0.00     0.049 C 
HETATM    6  C   UNL     1       1.813  27.774  47.626  1.00  0.00     0.007 A 
HETATM    7  C   UNL     1       1.947  26.549  46.974  1.00  0.00     0.001 A 
HETATM    8  C   UNL     1       2.886  25.634  47.424  1.00  0.00     0.001 A 
HETATM    9  C   UNL     1       3.683  25.943  48.524  1.00  0.00     0.010 A 
ENDBRANCH   2   3
BRANCH   2  10
HETATM   10  N   UNL     1       3.784  27.674  51.595  1.00  0.00    -0.339 N 
HETATM   11  C   UNL     1       4.227  28.334  52.695  1.00  0.00     0.292 C 
HETATM   12  N   UNL     1       3.285  28.389  53.671  1.00  0.00    -0.254 NA
HETATM   13  O   UNL     1       5.325  28.843  52.851  1.00  0.00    -0.254 OA
HETATM   14  H   UNL     1       2.330  28.515  53.372  1.00  0.00     0.128 HD
HETATM   15  H   UNL     1       3.560  28.974  54.450  1.00  0.00     0.128 HD
HETATM   16  H   UNL     1       2.985  27.076  51.749  1.00  0.00     0.164 HD
ENDBRANCH   2  10
ENDBRANCH   1   2
BRANCH   1  17
HETATM   17  C   UNL     1       5.554  25.555  51.719  1.00  0.00     0.224 C 
HETATM   18  N   UNL     1       6.553  25.771  52.650  1.00  0.00    -0.327 N 
HETATM   19  H   UNL     1       7.117  26.603  52.528  1.00  0.00     0.169 HD
HETATM   20  O   UNL     1       4.619  24.766  51.824  1.00  0.00    -0.273 OA
BRANCH  18  21
HETATM   21  C   UNL     1       6.844  24.987  53.786  1.00  0.00     0.035 A 
HETATM   22  C   UNL     1       7.329  23.676  53.720  1.00  0.00     0.042 A 
HETATM   23  C   UNL     1       7.656  22.963  54.886  1.00  0.00    -0.021 A 
HETATM   24  C   UNL     1       7.483  23.584  56.129  1.00  0.00     0.012 A 
HETATM   25  C   UNL     1       6.997  24.890  56.205  1.00  0.00     0.003 A 
HETATM   26  C   UNL     1       6.683  25.588  55.039  1.00  0.00     0.029 A 
BRANCH  23  27
HETATM   27  C   UNL     1       8.190  21.612  54.815  1.00  0.00     0.010 A 
HETATM   28  C   UNL     1       8.405  20.756  53.708  1.00  0.00     0.152 A 
HETATM   29  N   UNL     1       8.926  19.576  54.056  1.00  0.00    -0.187 NA
HETATM   30  N   UNL     1       9.040  19.668  55.390  1.00  0.00    -0.289 N 
HETATM   31  H   UNL     1       9.416  18.874  55.897  1.00  0.00     0.188 HD
HETATM   32  C   UNL     1       8.620  20.865  55.892  1.00  0.00     0.123 A 
ENDBRANCH  23  27
ENDBRANCH  18  21
ENDBRANCH   1  17
TORSDOF 6
ENDMDL
