MODEL 1
REMARK VINA RESULT:      -9.1      0.000      0.000
REMARK  3 active torsions:
REMARK  status: ('A' for Active; 'I' for Inactive)
REMARK    1  A    between atoms: C_2  and  N_3 
REMARK    2  A    between atoms: C_7  and  N_8 
REMARK    3  A    between atoms: N_8  and  C_9 
ROOT
HETATM    1  N   UNL     1       7.585  28.350  57.185  1.00  0.00    -0.230 N 
HETATM    2  C   UNL     1       6.353  28.887  57.557  1.00  0.00     0.335 A 
HETATM    3  O   UNL     1       5.244  28.374  57.404  1.00  0.00    -0.246 OA
HETATM    4  N   UNL     1       6.374  30.092  58.204  1.00  0.00    -0.294 N 
HETATM    5  C   UNL     1       7.477  30.785  58.590  1.00  0.00     0.114 A 
HETATM    6  C   UNL     1       8.662  30.289  58.226  1.00  0.00     0.123 A 
HETATM    7  C   UNL     1       8.770  29.035  57.455  1.00  0.00     0.259 A 
HETATM    8  O   UNL     1       9.902  28.731  57.081  1.00  0.00    -0.267 OA
HETATM    9  H   UNL     1       5.459  30.421  58.481  1.00  0.00     0.172 HD
ENDROOT
BRANCH   5  10
HETATM   10  N   UNL     1       7.315  31.973  59.268  1.00  0.00    -0.342 N 
HETATM   11  H   UNL     1       6.757  32.660  58.769  1.00  0.00     0.167 HD
BRANCH  10  12
HETATM   12  C   UNL     1       7.293  32.194  60.665  1.00  0.00     0.036 A 
HETATM   13  C   UNL     1       6.086  32.630  61.241  1.00  0.00     0.069 A 
HETATM   14  C   UNL     1       6.049  32.874  62.599  1.00  0.00     0.107 A 
HETATM   15  C   UNL     1       7.157  32.715  63.393  1.00  0.00     0.105 A 
HETATM   16  O   UNL     1       4.960  33.283  63.304  1.00  0.00    -0.323 OA
HETATM   17  O   UNL     1       6.907  33.000  64.698  1.00  0.00    -0.323 OA
HETATM   18  C   UNL     1       8.363  32.310  62.871  1.00  0.00     0.042 A 
HETATM   19  C   UNL     1       5.510  33.352  64.636  1.00  0.00     0.352 A 
HETATM   20  C   UNL     1       8.427  32.055  61.495  1.00  0.00     0.032 A 
ENDBRANCH  10  12
ENDBRANCH   5  10
BRANCH   1  21
HETATM   21  C   UNL     1       7.638  27.079  56.490  1.00  0.00     0.047 A 
HETATM   22  C   UNL     1       7.904  25.874  57.168  1.00  0.00     0.031 A 
HETATM   23  C   UNL     1       7.962  24.647  56.493  1.00  0.00     0.021 A 
HETATM   24  C   UNL     1       7.750  24.600  55.121  1.00  0.00     0.011 A 
HETATM   25  C   UNL     1       7.483  25.768  54.421  1.00  0.00     0.021 A 
HETATM   26 BR   UNL     1       7.825  22.947  54.210  1.00  0.00    -0.051 Br
HETATM   27  C   UNL     1       7.429  26.993  55.101  1.00  0.00     0.031 A 
ENDBRANCH   1  21
TORSDOF 3
ENDMDL
MODEL 2
REMARK VINA RESULT:      -8.7      2.262      3.638
REMARK  3 active torsions:
REMARK  status: ('A' for Active; 'I' for Inactive)
REMARK    1  A    between atoms: C_2  and  N_3 
REMARK    2  A    between atoms: C_7  and  N_8 
REMARK    3  A    between atoms: N_8  and  C_9 
ROOT
HETATM    1  N   UNL     1       6.773  26.664  55.362  1.00  0.00    -0.230 N 
HETATM    2  C   UNL     1       7.390  27.800  54.838  1.00  0.00     0.335 A 
HETATM    3  O   UNL     1       8.161  27.849  53.880  1.00  0.00    -0.246 OA
HETATM    4  N   UNL     1       7.074  28.998  55.419  1.00  0.00    -0.294 N 
HETATM    5  C   UNL     1       6.162  29.205  56.403  1.00  0.00     0.114 A 
HETATM    6  C   UNL     1       5.575  28.124  56.924  1.00  0.00     0.123 A 
HETATM    7  C   UNL     1       5.890  26.767  56.438  1.00  0.00     0.259 A 
HETATM    8  O   UNL     1       5.373  25.840  57.061  1.00  0.00    -0.267 OA
HETATM    9  H   UNL     1       7.522  29.792  54.982  1.00  0.00     0.172 HD
ENDROOT
BRANCH   5  10
HETATM   10  N   UNL     1       5.941  30.490  56.849  1.00  0.00    -0.342 N 
HETATM   11  H   UNL     1       5.061  30.889  56.536  1.00  0.00     0.167 HD
BRANCH  10  12
HETATM   12  C   UNL     1       6.399  31.099  58.040  1.00  0.00     0.036 A 
HETATM   13  C   UNL     1       7.647  30.694  58.548  1.00  0.00     0.069 A 
HETATM   14  C   UNL     1       8.102  31.260  59.722  1.00  0.00     0.107 A 
HETATM   15  C   UNL     1       7.365  32.192  60.408  1.00  0.00     0.105 A 
HETATM   16  O   UNL     1       9.288  30.985  60.328  1.00  0.00    -0.323 OA
HETATM   17  O   UNL     1       7.993  32.626  61.532  1.00  0.00    -0.323 OA
HETATM   18  C   UNL     1       6.131  32.604  59.962  1.00  0.00     0.042 A 
HETATM   19  C   UNL     1       9.215  31.863  61.472  1.00  0.00     0.352 A 
HETATM   20  C   UNL     1       5.647  32.046  58.771  1.00  0.00     0.032 A 
ENDBRANCH  10  12
ENDBRANCH   5  10
BRANCH   1  21
HETATM   21  C   UNL     1       7.066  25.360  54.800  1.00  0.00     0.047 A 
HETATM   22  C   UNL     1       6.436  24.899  53.629  1.00  0.00     0.031 A 
HETATM   23  C   UNL     1       6.716  23.635  53.090  1.00  0.00     0.021 A 
HETATM   24  C   UNL     1       7.636  22.804  53.716  1.00  0.00     0.011 A 
HETATM   25  C   UNL     1       8.277  23.227  54.873  1.00  0.00     0.021 A 
HETATM   26 BR   UNL     1       8.016  21.101  52.993  1.00  0.00    -0.051 Br
HETATM   27  C   UNL     1       7.992  24.491  55.408  1.00  0.00     0.031 A 
ENDBRANCH   1  21
TORSDOF 3
ENDMDL
MODEL 3
REMARK VINA RESULT:      -8.7      3.999      8.988
REMARK  3 active torsions:
REMARK  status: ('A' for Active; 'I' for Inactive)
REMARK    1  A    between atoms: C_2  and  N_3 
REMARK    2  A    between atoms: C_7  and  N_8 
REMARK    3  A    between atoms: N_8  and  C_9 
ROOT
HETATM    1  N   UNL     1       7.403  31.775  61.640  1.00  0.00    -0.230 N 
HETATM    2  C   UNL     1       8.373  30.776  61.730  1.00  0.00     0.335 A 
HETATM    3  O   UNL     1       8.849  30.294  62.758  1.00  0.00    -0.246 OA
HETATM    4  N   UNL     1       8.818  30.238  60.553  1.00  0.00    -0.294 N 
HETATM    5  C   UNL     1       8.355  30.523  59.307  1.00  0.00     0.114 A 
HETATM    6  C   UNL     1       7.437  31.487  59.207  1.00  0.00     0.123 A 
HETATM    7  C   UNL     1       6.934  32.200  60.397  1.00  0.00     0.259 A 
HETATM    8  O   UNL     1       6.172  33.141  60.177  1.00  0.00    -0.267 OA
HETATM    9  H   UNL     1       9.495  29.498  60.673  1.00  0.00     0.172 HD
ENDROOT
BRANCH   5  10
HETATM   10  N   UNL     1       8.893  29.858  58.227  1.00  0.00    -0.342 N 
HETATM   11  H   UNL     1       9.896  29.707  58.294  1.00  0.00     0.167 HD
BRANCH  10  12
HETATM   12  C   UNL     1       8.276  28.908  57.381  1.00  0.00     0.036 A 
HETATM   13  C   UNL     1       8.418  29.076  55.992  1.00  0.00     0.069 A 
HETATM   14  C   UNL     1       7.803  28.174  55.147  1.00  0.00     0.107 A 
HETATM   15  C   UNL     1       7.051  27.131  55.627  1.00  0.00     0.105 A 
HETATM   16  O   UNL     1       7.859  28.192  53.788  1.00  0.00    -0.323 OA
HETATM   17  O   UNL     1       6.540  26.358  54.633  1.00  0.00    -0.323 OA
HETATM   18  C   UNL     1       6.868  26.938  56.976  1.00  0.00     0.042 A 
HETATM   19  C   UNL     1       7.062  27.032  53.470  1.00  0.00     0.352 A 
HETATM   20  C   UNL     1       7.482  27.840  57.855  1.00  0.00     0.032 A 
ENDBRANCH  10  12
ENDBRANCH   5  10
BRANCH   1  21
HETATM   21  C   UNL     1       6.892  32.394  62.847  1.00  0.00     0.047 A 
HETATM   22  C   UNL     1       7.740  33.042  63.764  1.00  0.00     0.031 A 
HETATM   23  C   UNL     1       7.245  33.634  64.935  1.00  0.00     0.021 A 
HETATM   24  C   UNL     1       5.884  33.590  65.210  1.00  0.00     0.011 A 
HETATM   25  C   UNL     1       5.019  32.959  64.327  1.00  0.00     0.021 A 
HETATM   26 BR   UNL     1       5.213  34.388  66.785  1.00  0.00    -0.051 Br
HETATM   27  C   UNL     1       5.520  32.368  63.160  1.00  0.00     0.031 A 
ENDBRANCH   1  21
TORSDOF 3
ENDMDL
MODEL 4
REMARK VINA RESULT:      -8.5      1.971      3.041
REMARK  3 active torsions:
REMARK  status: ('A' for Active; 'I' for Inactive)
REMARK    1  A    between atoms: C_2  and  N_3 
REMARK    2  A    between atoms: C_7  and  N_8 
REMARK    3  A    between atoms: N_8  and  C_9 
ROOT
HETATM    1  N   UNL     1       7.225  26.419  55.472  1.00  0.00    -0.230 N 
HETATM    2  C   UNL     1       7.599  27.560  54.761  1.00  0.00     0.335 A 
HETATM    3  O   UNL     1       8.082  27.602  53.629  1.00  0.00    -0.246 OA
HETATM    4  N   UNL     1       7.367  28.767  55.362  1.00  0.00    -0.294 N 
HETATM    5  C   UNL     1       6.738  28.972  56.548  1.00  0.00     0.114 A 
HETATM    6  C   UNL     1       6.389  27.889  57.245  1.00  0.00     0.123 A 
HETATM    7  C   UNL     1       6.657  26.528  56.741  1.00  0.00     0.259 A 
HETATM    8  O   UNL     1       6.390  25.607  57.513  1.00  0.00    -0.267 OA
HETATM    9  H   UNL     1       7.626  29.561  54.793  1.00  0.00     0.172 HD
ENDROOT
BRANCH   5  10
HETATM   10  N   UNL     1       6.556  30.264  56.991  1.00  0.00    -0.342 N 
HETATM   11  H   UNL     1       5.762  30.737  56.569  1.00  0.00     0.167 HD
BRANCH  10  12
HETATM   12  C   UNL     1       6.886  30.818  58.250  1.00  0.00     0.036 A 
HETATM   13  C   UNL     1       6.029  31.799  58.781  1.00  0.00     0.069 A 
HETATM   14  C   UNL     1       6.346  32.369  59.998  1.00  0.00     0.107 A 
HETATM   15  C   UNL     1       7.476  32.015  60.690  1.00  0.00     0.105 A 
HETATM   16  O   UNL     1       5.613  33.314  60.647  1.00  0.00    -0.323 OA
HETATM   17  O   UNL     1       7.599  32.687  61.864  1.00  0.00    -0.323 OA
HETATM   18  C   UNL     1       8.354  31.076  60.201  1.00  0.00     0.042 A 
HETATM   19  C   UNL     1       6.411  33.504  61.835  1.00  0.00     0.352 A 
HETATM   20  C   UNL     1       8.055  30.481  58.968  1.00  0.00     0.032 A 
ENDBRANCH  10  12
ENDBRANCH   5  10
BRANCH   1  21
HETATM   21  C   UNL     1       7.447  25.107  54.898  1.00  0.00     0.047 A 
HETATM   22  C   UNL     1       8.383  24.208  55.444  1.00  0.00     0.031 A 
HETATM   23  C   UNL     1       8.602  22.942  54.884  1.00  0.00     0.021 A 
HETATM   24  C   UNL     1       7.884  22.547  53.762  1.00  0.00     0.011 A 
HETATM   25  C   UNL     1       6.952  23.408  53.198  1.00  0.00     0.021 A 
HETATM   26 BR   UNL     1       8.175  20.841  53.006  1.00  0.00    -0.051 Br
HETATM   27  C   UNL     1       6.739  24.673  53.762  1.00  0.00     0.031 A 
ENDBRANCH   1  21
TORSDOF 3
ENDMDL
MODEL 5
REMARK VINA RESULT:      -8.3      3.752      5.764
REMARK  3 active torsions:
REMARK  status: ('A' for Active; 'I' for Inactive)
REMARK    1  A    between atoms: C_2  and  N_3 
REMARK    2  A    between atoms: C_7  and  N_8 
REMARK    3  A    between atoms: N_8  and  C_9 
ROOT
HETATM    1  N   UNL     1       6.786  31.956  60.735  1.00  0.00    -0.230 N 
HETATM    2  C   UNL     1       6.849  31.627  62.089  1.00  0.00     0.335 A 
HETATM    3  O   UNL     1       7.711  30.948  62.648  1.00  0.00    -0.246 OA
HETATM    4  N   UNL     1       5.877  32.149  62.898  1.00  0.00    -0.294 N 
HETATM    5  C   UNL     1       4.899  33.018  62.531  1.00  0.00     0.114 A 
HETATM    6  C   UNL     1       4.818  33.329  61.236  1.00  0.00     0.123 A 
HETATM    7  C   UNL     1       5.761  32.768  60.248  1.00  0.00     0.259 A 
HETATM    8  O   UNL     1       5.527  33.036  59.070  1.00  0.00    -0.267 OA
HETATM    9  H   UNL     1       5.986  31.908  63.874  1.00  0.00     0.172 HD
ENDROOT
BRANCH   5  10
HETATM   10  N   UNL     1       4.018  33.474  63.488  1.00  0.00    -0.342 N 
HETATM   11  H   UNL     1       3.121  32.998  63.484  1.00  0.00     0.167 HD
BRANCH  10  12
HETATM   12  C   UNL     1       4.307  34.037  64.753  1.00  0.00     0.036 A 
HETATM   13  C   UNL     1       5.546  33.729  65.342  1.00  0.00     0.069 A 
HETATM   14  C   UNL     1       5.837  34.249  66.587  1.00  0.00     0.107 A 
HETATM   15  C   UNL     1       4.947  35.043  67.265  1.00  0.00     0.105 A 
HETATM   16  O   UNL     1       6.993  34.057  67.278  1.00  0.00    -0.323 OA
HETATM   17  O   UNL     1       5.429  35.456  68.467  1.00  0.00    -0.323 OA
HETATM   18  C   UNL     1       3.716  35.355  66.739  1.00  0.00     0.042 A 
HETATM   19  C   UNL     1       6.730  34.833  68.466  1.00  0.00     0.352 A 
HETATM   20  C   UNL     1       3.396  34.840  65.475  1.00  0.00     0.032 A 
ENDBRANCH  10  12
ENDBRANCH   5  10
BRANCH   1  21
HETATM   21  C   UNL     1       7.780  31.433  59.819  1.00  0.00     0.047 A 
HETATM   22  C   UNL     1       9.020  32.070  59.628  1.00  0.00     0.031 A 
HETATM   23  C   UNL     1       9.978  31.567  58.737  1.00  0.00     0.021 A 
HETATM   24  C   UNL     1       9.712  30.409  58.016  1.00  0.00     0.011 A 
HETATM   25  C   UNL     1       8.500  29.754  58.181  1.00  0.00     0.021 A 
HETATM   26 BR   UNL     1      11.001  29.728  56.816  1.00  0.00    -0.051 Br
HETATM   27  C   UNL     1       7.546  30.263  59.072  1.00  0.00     0.031 A 
ENDBRANCH   1  21
TORSDOF 3
ENDMDL
MODEL 6
REMARK VINA RESULT:      -8.3      4.650      9.425
REMARK  3 active torsions:
REMARK  status: ('A' for Active; 'I' for Inactive)
REMARK    1  A    between atoms: C_2  and  N_3 
REMARK    2  A    between atoms: C_7  and  N_8 
REMARK    3  A    between atoms: N_8  and  C_9 
ROOT
HETATM    1  N   UNL     1       5.331  33.283  63.101  1.00  0.00    -0.230 N 
HETATM    2  C   UNL     1       5.086  31.964  62.720  1.00  0.00     0.335 A 
HETATM    3  O   UNL     1       4.913  30.998  63.463  1.00  0.00    -0.246 OA
HETATM    4  N   UNL     1       4.982  31.717  61.378  1.00  0.00    -0.294 N 
HETATM    5  C   UNL     1       5.016  32.638  60.381  1.00  0.00     0.114 A 
HETATM    6  C   UNL     1       5.264  33.902  60.731  1.00  0.00     0.123 A 
HETATM    7  C   UNL     1       5.475  34.285  62.141  1.00  0.00     0.259 A 
HETATM    8  O   UNL     1       5.804  35.455  62.336  1.00  0.00    -0.267 OA
HETATM    9  H   UNL     1       4.772  30.753  61.157  1.00  0.00     0.172 HD
ENDROOT
BRANCH   5  10
HETATM   10  N   UNL     1       4.858  32.217  59.078  1.00  0.00    -0.342 N 
HETATM   11  H   UNL     1       4.616  32.961  58.431  1.00  0.00     0.167 HD
BRANCH  10  12
HETATM   12  C   UNL     1       5.487  31.135  58.421  1.00  0.00     0.036 A 
HETATM   13  C   UNL     1       6.887  31.033  58.514  1.00  0.00     0.069 A 
HETATM   14  C   UNL     1       7.523  29.997  57.860  1.00  0.00     0.107 A 
HETATM   15  C   UNL     1       6.828  29.078  57.114  1.00  0.00     0.105 A 
HETATM   16  O   UNL     1       8.861  29.756  57.867  1.00  0.00    -0.323 OA
HETATM   17  O   UNL     1       7.639  28.139  56.560  1.00  0.00    -0.323 OA
HETATM   18  C   UNL     1       5.462  29.148  56.977  1.00  0.00     0.042 A 
HETATM   19  C   UNL     1       8.926  28.570  57.047  1.00  0.00     0.352 A 
HETATM   20  C   UNL     1       4.792  30.190  57.633  1.00  0.00     0.032 A 
ENDBRANCH  10  12
ENDBRANCH   5  10
BRANCH   1  21
HETATM   21  C   UNL     1       5.460  33.616  64.506  1.00  0.00     0.047 A 
HETATM   22  C   UNL     1       4.339  33.920  65.301  1.00  0.00     0.031 A 
HETATM   23  C   UNL     1       4.466  34.249  66.658  1.00  0.00     0.021 A 
HETATM   24  C   UNL     1       5.723  34.278  67.249  1.00  0.00     0.011 A 
HETATM   25  C   UNL     1       6.850  33.982  66.494  1.00  0.00     0.021 A 
HETATM   26 BR   UNL     1       5.897  34.719  69.077  1.00  0.00    -0.051 Br
HETATM   27  C   UNL     1       6.717  33.656  65.138  1.00  0.00     0.031 A 
ENDBRANCH   1  21
TORSDOF 3
ENDMDL
MODEL 7
REMARK VINA RESULT:      -8.0      4.045      9.008
REMARK  3 active torsions:
REMARK  status: ('A' for Active; 'I' for Inactive)
REMARK    1  A    between atoms: C_2  and  N_3 
REMARK    2  A    between atoms: C_7  and  N_8 
REMARK    3  A    between atoms: N_8  and  C_9 
ROOT
HETATM    1  N   UNL     1       6.326  32.691  61.526  1.00  0.00    -0.230 N 
HETATM    2  C   UNL     1       5.423  32.455  60.489  1.00  0.00     0.335 A 
HETATM    3  O   UNL     1       4.267  32.870  60.405  1.00  0.00    -0.246 OA
HETATM    4  N   UNL     1       5.878  31.722  59.428  1.00  0.00    -0.294 N 
HETATM    5  C   UNL     1       7.144  31.265  59.244  1.00  0.00     0.114 A 
HETATM    6  C   UNL     1       8.014  31.471  60.235  1.00  0.00     0.123 A 
HETATM    7  C   UNL     1       7.623  32.181  61.468  1.00  0.00     0.259 A 
HETATM    8  O   UNL     1       8.473  32.218  62.358  1.00  0.00    -0.267 OA
HETATM    9  H   UNL     1       5.197  31.607  58.690  1.00  0.00     0.172 HD
ENDROOT
BRANCH   5  10
HETATM   10  N   UNL     1       7.441  30.568  58.092  1.00  0.00    -0.342 N 
HETATM   11  H   UNL     1       8.331  30.822  57.674  1.00  0.00     0.167 HD
BRANCH  10  12
HETATM   12  C   UNL     1       7.045  29.261  57.727  1.00  0.00     0.036 A 
HETATM   13  C   UNL     1       8.029  28.256  57.714  1.00  0.00     0.069 A 
HETATM   14  C   UNL     1       7.668  26.978  57.339  1.00  0.00     0.107 A 
HETATM   15  C   UNL     1       6.384  26.669  56.966  1.00  0.00     0.105 A 
HETATM   16  O   UNL     1       8.497  25.900  57.290  1.00  0.00    -0.323 OA
HETATM   17  O   UNL     1       6.238  25.358  56.640  1.00  0.00    -0.323 OA
HETATM   18  C   UNL     1       5.393  27.622  56.943  1.00  0.00     0.042 A 
HETATM   19  C   UNL     1       7.580  24.874  56.855  1.00  0.00     0.352 A 
HETATM   20  C   UNL     1       5.733  28.928  57.322  1.00  0.00     0.032 A 
ENDBRANCH  10  12
ENDBRANCH   5  10
BRANCH   1  21
HETATM   21  C   UNL     1       5.910  33.456  62.685  1.00  0.00     0.047 A 
HETATM   22  C   UNL     1       5.356  32.837  63.821  1.00  0.00     0.031 A 
HETATM   23  C   UNL     1       4.947  33.578  64.939  1.00  0.00     0.021 A 
HETATM   24  C   UNL     1       5.087  34.960  64.941  1.00  0.00     0.011 A 
HETATM   25  C   UNL     1       5.630  35.604  63.838  1.00  0.00     0.021 A 
HETATM   26 BR   UNL     1       4.539  35.962  66.446  1.00  0.00    -0.051 Br
HETATM   27  C   UNL     1       6.035  34.857  62.723  1.00  0.00     0.031 A 
ENDBRANCH   1  21
TORSDOF 3
ENDMDL
MODEL 8
REMARK VINA RESULT:      -7.8      3.989      4.889
REMARK  3 active torsions:
REMARK  status: ('A' for Active; 'I' for Inactive)
REMARK    1  A    between atoms: C_2  and  N_3 
REMARK    2  A    between atoms: C_7  and  N_8 
REMARK    3  A    between atoms: N_8  and  C_9 
ROOT
HETATM    1  N   UNL     1       6.909  25.750  55.811  1.00  0.00    -0.230 N 
HETATM    2  C   UNL     1       5.782  26.464  55.405  1.00  0.00     0.335 A 
HETATM    3  O   UNL     1       4.989  26.156  54.514  1.00  0.00    -0.246 OA
HETATM    4  N   UNL     1       5.494  27.609  56.097  1.00  0.00    -0.294 N 
HETATM    5  C   UNL     1       6.150  28.081  57.189  1.00  0.00     0.114 A 
HETATM    6  C   UNL     1       7.239  27.415  57.577  1.00  0.00     0.123 A 
HETATM    7  C   UNL     1       7.700  26.208  56.864  1.00  0.00     0.259 A 
HETATM    8  O   UNL     1       8.773  25.738  57.242  1.00  0.00    -0.267 OA
HETATM    9  H   UNL     1       4.651  28.072  55.786  1.00  0.00     0.172 HD
ENDROOT
BRANCH   5  10
HETATM   10  N   UNL     1       5.702  29.239  57.787  1.00  0.00    -0.342 N 
HETATM   11  H   UNL     1       6.165  29.456  58.665  1.00  0.00     0.167 HD
BRANCH  10  12
HETATM   12  C   UNL     1       5.170  30.398  57.175  1.00  0.00     0.036 A 
HETATM   13  C   UNL     1       4.337  31.226  57.949  1.00  0.00     0.069 A 
HETATM   14  C   UNL     1       3.789  32.349  57.364  1.00  0.00     0.107 A 
HETATM   15  C   UNL     1       4.025  32.668  56.050  1.00  0.00     0.105 A 
HETATM   16  O   UNL     1       2.980  33.252  57.981  1.00  0.00    -0.323 OA
HETATM   17  O   UNL     1       3.399  33.814  55.672  1.00  0.00    -0.323 OA
HETATM   18  C   UNL     1       4.816  31.879  55.249  1.00  0.00     0.042 A 
HETATM   19  C   UNL     1       2.744  34.183  56.903  1.00  0.00     0.352 A 
HETATM   20  C   UNL     1       5.385  30.732  55.820  1.00  0.00     0.032 A 
ENDBRANCH  10  12
ENDBRANCH   5  10
BRANCH   1  21
HETATM   21  C   UNL     1       7.277  24.530  55.118  1.00  0.00     0.047 A 
HETATM   22  C   UNL     1       7.189  23.270  55.739  1.00  0.00     0.031 A 
HETATM   23  C   UNL     1       7.552  22.092  55.071  1.00  0.00     0.021 A 
HETATM   24  C   UNL     1       8.010  22.153  53.760  1.00  0.00     0.011 A 
HETATM   25  C   UNL     1       8.108  23.379  53.117  1.00  0.00     0.021 A 
HETATM   26 BR   UNL     1       8.498  20.568  52.856  1.00  0.00    -0.051 Br
HETATM   27  C   UNL     1       7.745  24.553  53.791  1.00  0.00     0.031 A 
ENDBRANCH   1  21
TORSDOF 3
ENDMDL
MODEL 9
REMARK VINA RESULT:      -7.7      1.576      2.349
REMARK  3 active torsions:
REMARK  status: ('A' for Active; 'I' for Inactive)
REMARK    1  A    between atoms: C_2  and  N_3 
REMARK    2  A    between atoms: C_7  and  N_8 
REMARK    3  A    between atoms: N_8  and  C_9 
ROOT
HETATM    1  N   UNL     1       6.633  30.168  57.929  1.00  0.00    -0.230 N 
HETATM    2  C   UNL     1       5.348  30.584  58.274  1.00  0.00     0.335 A 
HETATM    3  O   UNL     1       4.283  30.085  57.909  1.00  0.00    -0.246 OA
HETATM    4  N   UNL     1       5.252  31.633  59.148  1.00  0.00    -0.294 N 
HETATM    5  C   UNL     1       6.281  32.261  59.774  1.00  0.00     0.114 A 
HETATM    6  C   UNL     1       7.516  31.882  59.441  1.00  0.00     0.123 A 
HETATM    7  C   UNL     1       7.754  30.815  58.449  1.00  0.00     0.259 A 
HETATM    8  O   UNL     1       8.930  30.622  58.139  1.00  0.00    -0.267 OA
HETATM    9  H   UNL     1       4.301  31.874  59.391  1.00  0.00     0.172 HD
ENDROOT
BRANCH   5  10
HETATM   10  N   UNL     1       6.001  33.282  60.657  1.00  0.00    -0.342 N 
HETATM   11  H   UNL     1       5.209  33.857  60.384  1.00  0.00     0.167 HD
BRANCH  10  12
HETATM   12  C   UNL     1       6.224  33.325  62.053  1.00  0.00     0.036 A 
HETATM   13  C   UNL     1       5.162  33.741  62.875  1.00  0.00     0.069 A 
HETATM   14  C   UNL     1       5.367  33.813  64.238  1.00  0.00     0.107 A 
HETATM   15  C   UNL     1       6.577  33.503  64.805  1.00  0.00     0.105 A 
HETATM   16  O   UNL     1       4.439  34.181  65.163  1.00  0.00    -0.323 OA
HETATM   17  O   UNL     1       6.566  33.631  66.158  1.00  0.00    -0.323 OA
HETATM   18  C   UNL     1       7.650  33.110  64.040  1.00  0.00     0.042 A 
HETATM   19  C   UNL     1       5.205  34.055  66.379  1.00  0.00     0.352 A 
HETATM   20  C   UNL     1       7.468  33.028  62.653  1.00  0.00     0.032 A 
ENDBRANCH  10  12
ENDBRANCH   5  10
BRANCH   1  21
HETATM   21  C   UNL     1       6.810  29.066  57.003  1.00  0.00     0.047 A 
HETATM   22  C   UNL     1       6.765  29.256  55.609  1.00  0.00     0.031 A 
HETATM   23  C   UNL     1       6.928  28.189  54.714  1.00  0.00     0.021 A 
HETATM   24  C   UNL     1       7.144  26.905  55.200  1.00  0.00     0.011 A 
HETATM   25  C   UNL     1       7.195  26.682  56.569  1.00  0.00     0.021 A 
HETATM   26 BR   UNL     1       7.367  25.465  53.998  1.00  0.00    -0.051 Br
HETATM   27  C   UNL     1       7.029  27.753  57.458  1.00  0.00     0.031 A 
ENDBRANCH   1  21
TORSDOF 3
ENDMDL
MODEL 10
REMARK VINA RESULT:      -7.6      4.941      6.115
REMARK  3 active torsions:
REMARK  status: ('A' for Active; 'I' for Inactive)
REMARK    1  A    between atoms: C_2  and  N_3 
REMARK    2  A    between atoms: C_7  and  N_8 
REMARK    3  A    between atoms: N_8  and  C_9 
ROOT
HETATM    1  N   UNL     1       6.662  26.373  55.124  1.00  0.00    -0.230 N 
HETATM    2  C   UNL     1       7.215  27.531  54.578  1.00  0.00     0.335 A 
HETATM    3  O   UNL     1       8.065  27.599  53.690  1.00  0.00    -0.246 OA
HETATM    4  N   UNL     1       6.735  28.725  55.043  1.00  0.00    -0.294 N 
HETATM    5  C   UNL     1       5.718  28.899  55.927  1.00  0.00     0.114 A 
HETATM    6  C   UNL     1       5.190  27.799  56.468  1.00  0.00     0.123 A 
HETATM    7  C   UNL     1       5.677  26.452  56.108  1.00  0.00     0.259 A 
HETATM    8  O   UNL     1       5.193  25.518  56.748  1.00  0.00    -0.267 OA
HETATM    9  H   UNL     1       7.144  29.531  54.592  1.00  0.00     0.172 HD
ENDROOT
BRANCH   5  10
HETATM   10  N   UNL     1       5.336  30.180  56.261  1.00  0.00    -0.342 N 
HETATM   11  H   UNL     1       6.071  30.729  56.696  1.00  0.00     0.167 HD
BRANCH  10  12
HETATM   12  C   UNL     1       4.368  31.001  55.636  1.00  0.00     0.036 A 
HETATM   13  C   UNL     1       3.715  31.963  56.426  1.00  0.00     0.069 A 
HETATM   14  C   UNL     1       2.750  32.759  55.842  1.00  0.00     0.107 A 
HETATM   15  C   UNL     1       2.406  32.624  54.520  1.00  0.00     0.105 A 
HETATM   16  O   UNL     1       2.044  33.740  56.466  1.00  0.00    -0.323 OA
HETATM   17  O   UNL     1       1.443  33.505  54.142  1.00  0.00    -0.323 OA
HETATM   18  C   UNL     1       3.003  31.685  53.714  1.00  0.00     0.042 A 
HETATM   19  C   UNL     1       1.223  34.215  55.378  1.00  0.00     0.352 A 
HETATM   20  C   UNL     1       3.987  30.865  54.283  1.00  0.00     0.032 A 
ENDBRANCH  10  12
ENDBRANCH   5  10
BRANCH   1  21
HETATM   21  C   UNL     1       7.128  25.073  54.683  1.00  0.00     0.047 A 
HETATM   22  C   UNL     1       6.715  24.514  53.459  1.00  0.00     0.031 A 
HETATM   23  C   UNL     1       7.162  23.254  53.037  1.00  0.00     0.021 A 
HETATM   24  C   UNL     1       8.036  22.526  53.835  1.00  0.00     0.011 A 
HETATM   25  C   UNL     1       8.465  23.048  55.047  1.00  0.00     0.021 A 
HETATM   26 BR   UNL     1       8.641  20.829  53.268  1.00  0.00    -0.051 Br
HETATM   27  C   UNL     1       8.014  24.308  55.465  1.00  0.00     0.031 A 
ENDBRANCH   1  21
TORSDOF 3
ENDMDL
