MODEL 1
REMARK VINA RESULT:     -10.6      0.000      0.000
REMARK  7 active torsions:
REMARK  status: ('A' for Active; 'I' for Inactive)
REMARK    1  A    between atoms: C_2  and  C_3 
REMARK    2  A    between atoms: C_3  and  C_4 
REMARK    3  A    between atoms: C_7  and  C_8 
REMARK    4  A    between atoms: C_10  and  C_11 
REMARK    5  A    between atoms: C_14  and  N_15 
REMARK    6  A    between atoms: N_15  and  C_16 
REMARK    7  A    between atoms: C_17  and  C_18 
ROOT
HETATM    1  C   UNL     1       7.742  30.492  58.521  1.00  0.00     0.082 C 
HETATM    2  C   UNL     1       9.204  30.810  58.248  1.00  0.00     0.024 C 
HETATM    3  N   UNL     1      10.416  31.074  58.022  1.00  0.00    -0.096 N 
HETATM    4  C   UNL     1       6.940  31.308  59.232  1.00  0.00     0.113 C 
ENDROOT
BRANCH   1   5
HETATM    5  C   UNL     1       7.202  29.316  57.922  1.00  0.00     0.119 A 
HETATM    6  N   UNL     1       7.851  28.193  57.682  1.00  0.00    -0.239 NA
HETATM    7  C   UNL     1       7.063  27.297  56.967  1.00  0.00     0.075 A 
HETATM    8  C   UNL     1       5.759  27.712  56.787  1.00  0.00     0.084 A 
HETATM    9  S   UNL     1       5.538  29.280  57.437  1.00  0.00    -0.078 SA
BRANCH   7  10
HETATM   10  C   UNL     1       7.619  26.043  56.458  1.00  0.00    -0.007 A 
HETATM   11  C   UNL     1       7.334  25.644  55.144  1.00  0.00     0.014 A 
HETATM   12  C   UNL     1       7.820  24.435  54.635  1.00  0.00     0.008 A 
HETATM   13  C   UNL     1       8.600  23.591  55.433  1.00  0.00    -0.058 A 
HETATM   14  C   UNL     1       8.886  23.980  56.746  1.00  0.00     0.008 A 
HETATM   15  C   UNL     1       8.401  25.191  57.253  1.00  0.00     0.014 A 
BRANCH  13  16
HETATM   16  C   UNL     1       9.123  22.282  54.890  1.00  0.00     0.042 C 
BRANCH  16  17
HETATM   17  C   UNL     1       8.018  21.253  54.584  1.00  0.00    -0.019 C 
HETATM   18  C   UNL     1       7.751  20.331  55.778  1.00  0.00     0.010 C 
HETATM   19  C   UNL     1       8.408  20.419  53.363  1.00  0.00     0.010 C 
ENDBRANCH  16  17
ENDBRANCH  13  16
ENDBRANCH   7  10
ENDBRANCH   1   5
BRANCH   4  20
HETATM   20  N   UNL     1       7.176  32.482  59.938  1.00  0.00    -0.364 N 
HETATM   21  H   UNL     1       8.030  32.946  59.624  1.00  0.00     0.165 HD
BRANCH  20  22
HETATM   22  C   UNL     1       6.995  32.572  61.342  1.00  0.00     0.048 A 
HETATM   23  C   UNL     1       8.043  32.258  62.254  1.00  0.00     0.039 A 
HETATM   24  C   UNL     1       7.924  32.540  63.624  1.00  0.00     0.057 A 
HETATM   25  C   UNL     1       6.752  33.115  64.058  1.00  0.00     0.106 A 
HETATM   26  C   UNL     1       5.720  33.392  63.194  1.00  0.00     0.107 A 
HETATM   27  O   UNL     1       6.468  33.471  65.337  1.00  0.00    -0.323 OA
HETATM   28  O   UNL     1       4.659  33.965  63.824  1.00  0.00    -0.323 OA
HETATM   29  C   UNL     1       5.805  33.131  61.840  1.00  0.00     0.070 A 
HETATM   30  C   UNL     1       5.179  34.093  65.165  1.00  0.00     0.352 A 
BRANCH  23  31
HETATM   31  C   UNL     1       9.294  31.582  61.827  1.00  0.00     0.158 C 
HETATM   32  C   UNL     1       9.486  30.127  62.172  1.00  0.00     0.097 C 
HETATM   33  O   UNL     1      10.167  32.232  61.256  1.00  0.00    -0.293 OA
ENDBRANCH  23  31
ENDBRANCH  20  22
ENDBRANCH   4  20
TORSDOF 7
ENDMDL
MODEL 2
REMARK VINA RESULT:     -10.0      4.293     10.890
REMARK  7 active torsions:
REMARK  status: ('A' for Active; 'I' for Inactive)
REMARK    1  A    between atoms: C_2  and  C_3 
REMARK    2  A    between atoms: C_3  and  C_4 
REMARK    3  A    between atoms: C_7  and  C_8 
REMARK    4  A    between atoms: C_10  and  C_11 
REMARK    5  A    between atoms: C_14  and  N_15 
REMARK    6  A    between atoms: N_15  and  C_16 
REMARK    7  A    between atoms: C_17  and  C_18 
ROOT
HETATM    1  C   UNL     1       7.486  27.696  56.312  1.00  0.00     0.082 C 
HETATM    2  C   UNL     1       7.474  28.018  54.826  1.00  0.00     0.024 C 
HETATM    3  N   UNL     1       7.464  28.284  53.594  1.00  0.00    -0.096 N 
HETATM    4  C   UNL     1       6.909  26.591  56.823  1.00  0.00     0.113 C 
ENDROOT
BRANCH   1   5
HETATM    5  C   UNL     1       8.212  28.574  57.169  1.00  0.00     0.119 A 
HETATM    6  N   UNL     1       7.813  29.031  58.341  1.00  0.00    -0.239 NA
HETATM    7  C   UNL     1       8.704  29.971  58.847  1.00  0.00     0.075 A 
HETATM    8  C   UNL     1       9.854  30.119  58.098  1.00  0.00     0.084 A 
HETATM    9  S   UNL     1       9.781  29.140  56.696  1.00  0.00    -0.078 SA
BRANCH   7  10
HETATM   10  C   UNL     1       8.396  30.724  60.064  1.00  0.00    -0.007 A 
HETATM   11  C   UNL     1       7.265  31.552  60.095  1.00  0.00     0.014 A 
HETATM   12  C   UNL     1       6.958  32.313  61.229  1.00  0.00     0.008 A 
HETATM   13  C   UNL     1       7.781  32.266  62.359  1.00  0.00    -0.058 A 
HETATM   14  C   UNL     1       8.914  31.445  62.334  1.00  0.00     0.008 A 
HETATM   15  C   UNL     1       9.218  30.684  61.199  1.00  0.00     0.014 A 
BRANCH  13  16
HETATM   16  C   UNL     1       7.458  33.089  63.584  1.00  0.00     0.042 C 
BRANCH  16  17
HETATM   17  C   UNL     1       6.040  33.692  63.568  1.00  0.00    -0.019 C 
HETATM   18  C   UNL     1       6.068  35.210  63.370  1.00  0.00     0.010 C 
HETATM   19  C   UNL     1       5.317  33.354  64.873  1.00  0.00     0.010 C 
ENDBRANCH  16  17
ENDBRANCH  13  16
ENDBRANCH   7  10
ENDBRANCH   1   5
BRANCH   4  20
HETATM   20  N   UNL     1       6.134  25.585  56.257  1.00  0.00    -0.364 N 
HETATM   21  H   UNL     1       5.286  25.411  56.800  1.00  0.00     0.165 HD
BRANCH  20  22
HETATM   22  C   UNL     1       6.701  24.391  55.741  1.00  0.00     0.048 A 
HETATM   23  C   UNL     1       6.801  24.154  54.341  1.00  0.00     0.039 A 
HETATM   24  C   UNL     1       7.540  23.071  53.837  1.00  0.00     0.057 A 
HETATM   25  C   UNL     1       8.148  22.236  54.746  1.00  0.00     0.106 A 
HETATM   26  C   UNL     1       8.031  22.434  56.101  1.00  0.00     0.107 A 
HETATM   27  O   UNL     1       8.912  21.155  54.442  1.00  0.00    -0.323 OA
HETATM   28  O   UNL     1       8.714  21.503  56.819  1.00  0.00    -0.323 OA
HETATM   29  C   UNL     1       7.315  23.491  56.629  1.00  0.00     0.070 A 
HETATM   30  C   UNL     1       9.342  20.751  55.758  1.00  0.00     0.352 A 
BRANCH  23  31
HETATM   31  C   UNL     1       6.106  25.001  53.339  1.00  0.00     0.158 C 
HETATM   32  C   UNL     1       6.763  25.228  52.000  1.00  0.00     0.097 C 
HETATM   33  O   UNL     1       5.046  25.544  53.639  1.00  0.00    -0.293 OA
ENDBRANCH  23  31
ENDBRANCH  20  22
ENDBRANCH   4  20
TORSDOF 7
ENDMDL
MODEL 3
REMARK VINA RESULT:      -9.7      1.416      2.104
REMARK  7 active torsions:
REMARK  status: ('A' for Active; 'I' for Inactive)
REMARK    1  A    between atoms: C_2  and  C_3 
REMARK    2  A    between atoms: C_3  and  C_4 
REMARK    3  A    between atoms: C_7  and  C_8 
REMARK    4  A    between atoms: C_10  and  C_11 
REMARK    5  A    between atoms: C_14  and  N_15 
REMARK    6  A    between atoms: N_15  and  C_16 
REMARK    7  A    between atoms: C_17  and  C_18 
ROOT
HETATM    1  C   UNL     1       6.354  30.466  58.185  1.00  0.00     0.082 C 
HETATM    2  C   UNL     1       4.896  30.471  57.751  1.00  0.00     0.024 C 
HETATM    3  N   UNL     1       3.688  30.475  57.392  1.00  0.00    -0.096 N 
HETATM    4  C   UNL     1       6.839  31.308  59.117  1.00  0.00     0.113 C 
ENDROOT
BRANCH   1   5
HETATM    5  C   UNL     1       7.203  29.467  57.624  1.00  0.00     0.119 A 
HETATM    6  N   UNL     1       6.829  28.285  57.173  1.00  0.00    -0.239 NA
HETATM    7  C   UNL     1       7.926  27.507  56.820  1.00  0.00     0.075 A 
HETATM    8  C   UNL     1       9.133  28.174  56.885  1.00  0.00     0.084 A 
HETATM    9  S   UNL     1       8.906  29.761  57.484  1.00  0.00    -0.078 SA
BRANCH   7  10
HETATM   10  C   UNL     1       7.764  26.105  56.434  1.00  0.00    -0.007 A 
HETATM   11  C   UNL     1       8.357  25.102  57.213  1.00  0.00     0.014 A 
HETATM   12  C   UNL     1       8.253  23.753  56.855  1.00  0.00     0.008 A 
HETATM   13  C   UNL     1       7.555  23.376  55.703  1.00  0.00    -0.058 A 
HETATM   14  C   UNL     1       6.964  24.372  54.918  1.00  0.00     0.008 A 
HETATM   15  C   UNL     1       7.068  25.721  55.278  1.00  0.00     0.014 A 
BRANCH  13  16
HETATM   16  C   UNL     1       7.444  21.923  55.309  1.00  0.00     0.042 C 
BRANCH  16  17
HETATM   17  C   UNL     1       8.759  21.323  54.778  1.00  0.00    -0.019 C 
HETATM   18  C   UNL     1       8.561  20.609  53.437  1.00  0.00     0.010 C 
HETATM   19  C   UNL     1       9.336  20.345  55.803  1.00  0.00     0.010 C 
ENDBRANCH  16  17
ENDBRANCH  13  16
ENDBRANCH   7  10
ENDBRANCH   1   5
BRANCH   4  20
HETATM   20  N   UNL     1       6.276  32.373  59.810  1.00  0.00    -0.364 N 
HETATM   21  H   UNL     1       6.464  33.265  59.350  1.00  0.00     0.165 HD
BRANCH  20  22
HETATM   22  C   UNL     1       6.330  32.472  61.225  1.00  0.00     0.048 A 
HETATM   23  C   UNL     1       7.566  32.440  61.931  1.00  0.00     0.039 A 
HETATM   24  C   UNL     1       7.629  32.738  63.301  1.00  0.00     0.057 A 
HETATM   25  C   UNL     1       6.451  33.044  63.942  1.00  0.00     0.106 A 
HETATM   26  C   UNL     1       5.247  33.045  63.280  1.00  0.00     0.107 A 
HETATM   27  O   UNL     1       6.323  33.374  65.254  1.00  0.00    -0.323 OA
HETATM   28  O   UNL     1       4.210  33.382  64.094  1.00  0.00    -0.323 OA
HETATM   29  C   UNL     1       5.150  32.760  61.932  1.00  0.00     0.070 A 
HETATM   30  C   UNL     1       4.915  33.676  65.320  1.00  0.00     0.352 A 
BRANCH  23  31
HETATM   31  C   UNL     1       8.844  32.054  61.281  1.00  0.00     0.158 C 
HETATM   32  C   UNL     1       9.516  30.773  61.706  1.00  0.00     0.097 C 
HETATM   33  O   UNL     1       9.356  32.810  60.459  1.00  0.00    -0.293 OA
ENDBRANCH  23  31
ENDBRANCH  20  22
ENDBRANCH   4  20
TORSDOF 7
ENDMDL
MODEL 4
REMARK VINA RESULT:      -9.5      1.461      2.217
REMARK  7 active torsions:
REMARK  status: ('A' for Active; 'I' for Inactive)
REMARK    1  A    between atoms: C_2  and  C_3 
REMARK    2  A    between atoms: C_3  and  C_4 
REMARK    3  A    between atoms: C_7  and  C_8 
REMARK    4  A    between atoms: C_10  and  C_11 
REMARK    5  A    between atoms: C_14  and  N_15 
REMARK    6  A    between atoms: N_15  and  C_16 
REMARK    7  A    between atoms: C_17  and  C_18 
ROOT
HETATM    1  C   UNL     1       7.500  30.796  58.528  1.00  0.00     0.082 C 
HETATM    2  C   UNL     1       8.980  31.147  58.520  1.00  0.00     0.024 C 
HETATM    3  N   UNL     1      10.206  31.439  58.512  1.00  0.00    -0.096 N 
HETATM    4  C   UNL     1       6.596  31.471  59.264  1.00  0.00     0.113 C 
ENDROOT
BRANCH   1   5
HETATM    5  C   UNL     1       7.066  29.757  57.653  1.00  0.00     0.119 A 
HETATM    6  N   UNL     1       7.536  28.526  57.608  1.00  0.00    -0.239 NA
HETATM    7  C   UNL     1       6.985  27.812  56.549  1.00  0.00     0.075 A 
HETATM    8  C   UNL     1       5.987  28.487  55.874  1.00  0.00     0.084 A 
HETATM    9  S   UNL     1       5.799  30.064  56.510  1.00  0.00    -0.078 SA
BRANCH   7  10
HETATM   10  C   UNL     1       7.466  26.472  56.210  1.00  0.00    -0.007 A 
HETATM   11  C   UNL     1       8.255  25.769  57.132  1.00  0.00     0.014 A 
HETATM   12  C   UNL     1       8.762  24.501  56.829  1.00  0.00     0.008 A 
HETATM   13  C   UNL     1       8.494  23.906  55.591  1.00  0.00    -0.058 A 
HETATM   14  C   UNL     1       7.710  24.603  54.665  1.00  0.00     0.008 A 
HETATM   15  C   UNL     1       7.203  25.872  54.970  1.00  0.00     0.014 A 
BRANCH  13  16
HETATM   16  C   UNL     1       9.042  22.539  55.256  1.00  0.00     0.042 C 
BRANCH  16  17
HETATM   17  C   UNL     1       7.958  21.518  54.861  1.00  0.00    -0.019 C 
HETATM   18  C   UNL     1       7.625  20.564  56.012  1.00  0.00     0.010 C 
HETATM   19  C   UNL     1       8.419  20.717  53.642  1.00  0.00     0.010 C 
ENDBRANCH  16  17
ENDBRANCH  13  16
ENDBRANCH   7  10
ENDBRANCH   1   5
BRANCH   4  20
HETATM   20  N   UNL     1       6.715  32.490  60.202  1.00  0.00    -0.364 N 
HETATM   21  H   UNL     1       7.629  32.480  60.657  1.00  0.00     0.165 HD
BRANCH  20  22
HETATM   22  C   UNL     1       5.666  32.822  61.098  1.00  0.00     0.048 A 
HETATM   23  C   UNL     1       5.901  33.003  62.491  1.00  0.00     0.039 A 
HETATM   24  C   UNL     1       4.907  33.525  63.334  1.00  0.00     0.057 A 
HETATM   25  C   UNL     1       3.692  33.838  62.771  1.00  0.00     0.106 A 
HETATM   26  C   UNL     1       3.441  33.636  61.435  1.00  0.00     0.107 A 
HETATM   27  O   UNL     1       2.626  34.365  63.426  1.00  0.00    -0.323 OA
HETATM   28  O   UNL     1       2.184  34.018  61.082  1.00  0.00    -0.323 OA
HETATM   29  C   UNL     1       4.398  33.128  60.577  1.00  0.00     0.070 A 
HETATM   30  C   UNL     1       1.708  34.563  62.332  1.00  0.00     0.352 A 
BRANCH  23  31
HETATM   31  C   UNL     1       7.180  32.618  63.139  1.00  0.00     0.158 C 
HETATM   32  C   UNL     1       7.619  33.360  64.377  1.00  0.00     0.097 C 
HETATM   33  O   UNL     1       7.881  31.749  62.624  1.00  0.00    -0.293 OA
ENDBRANCH  23  31
ENDBRANCH  20  22
ENDBRANCH   4  20
TORSDOF 7
ENDMDL
MODEL 5
REMARK VINA RESULT:      -9.4      2.922      4.645
REMARK  7 active torsions:
REMARK  status: ('A' for Active; 'I' for Inactive)
REMARK    1  A    between atoms: C_2  and  C_3 
REMARK    2  A    between atoms: C_3  and  C_4 
REMARK    3  A    between atoms: C_7  and  C_8 
REMARK    4  A    between atoms: C_10  and  C_11 
REMARK    5  A    between atoms: C_14  and  N_15 
REMARK    6  A    between atoms: N_15  and  C_16 
REMARK    7  A    between atoms: C_17  and  C_18 
ROOT
HETATM    1  C   UNL     1       3.976  29.838  55.702  1.00  0.00     0.082 C 
HETATM    2  C   UNL     1       3.094  30.977  55.212  1.00  0.00     0.024 C 
HETATM    3  N   UNL     1       2.363  31.920  54.807  1.00  0.00    -0.096 N 
HETATM    4  C   UNL     1       4.407  29.747  56.974  1.00  0.00     0.113 C 
ENDROOT
BRANCH   1   5
HETATM    5  C   UNL     1       4.279  28.797  54.776  1.00  0.00     0.119 A 
HETATM    6  N   UNL     1       4.985  27.711  55.024  1.00  0.00    -0.239 NA
HETATM    7  C   UNL     1       5.203  26.973  53.865  1.00  0.00     0.075 A 
HETATM    8  C   UNL     1       4.532  27.453  52.758  1.00  0.00     0.084 A 
HETATM    9  S   UNL     1       3.696  28.894  53.146  1.00  0.00    -0.078 SA
BRANCH   7  10
HETATM   10  C   UNL     1       6.086  25.806  53.869  1.00  0.00    -0.007 A 
HETATM   11  C   UNL     1       6.174  25.011  55.020  1.00  0.00     0.014 A 
HETATM   12  C   UNL     1       7.034  23.908  55.072  1.00  0.00     0.008 A 
HETATM   13  C   UNL     1       7.830  23.576  53.971  1.00  0.00    -0.058 A 
HETATM   14  C   UNL     1       7.750  24.368  52.819  1.00  0.00     0.008 A 
HETATM   15  C   UNL     1       6.889  25.470  52.769  1.00  0.00     0.014 A 
BRANCH  13  16
HETATM   16  C   UNL     1       8.763  22.390  54.023  1.00  0.00     0.042 C 
BRANCH  16  17
HETATM   17  C   UNL     1       8.038  21.031  54.012  1.00  0.00    -0.019 C 
HETATM   18  C   UNL     1       8.466  20.146  55.187  1.00  0.00     0.010 C 
HETATM   19  C   UNL     1       8.310  20.307  52.693  1.00  0.00     0.010 C 
ENDBRANCH  16  17
ENDBRANCH  13  16
ENDBRANCH   7  10
ENDBRANCH   1   5
BRANCH   4  20
HETATM   20  N   UNL     1       4.295  30.593  58.071  1.00  0.00    -0.364 N 
HETATM   21  H   UNL     1       3.463  31.183  58.009  1.00  0.00     0.165 HD
BRANCH  20  22
HETATM   22  C   UNL     1       5.409  31.284  58.614  1.00  0.00     0.048 A 
HETATM   23  C   UNL     1       5.271  32.193  59.701  1.00  0.00     0.039 A 
HETATM   24  C   UNL     1       6.395  32.715  60.360  1.00  0.00     0.057 A 
HETATM   25  C   UNL     1       7.636  32.332  59.907  1.00  0.00     0.106 A 
HETATM   26  C   UNL     1       7.784  31.481  58.837  1.00  0.00     0.107 A 
HETATM   27  O   UNL     1       8.827  32.720  60.430  1.00  0.00    -0.323 OA
HETATM   28  O   UNL     1       9.090  31.225  58.558  1.00  0.00    -0.323 OA
HETATM   29  C   UNL     1       6.699  30.947  58.169  1.00  0.00     0.070 A 
HETATM   30  C   UNL     1       9.740  31.943  59.630  1.00  0.00     0.352 A 
BRANCH  23  31
HETATM   31  C   UNL     1       3.948  32.673  60.173  1.00  0.00     0.158 C 
HETATM   32  C   UNL     1       3.700  32.774  61.657  1.00  0.00     0.097 C 
HETATM   33  O   UNL     1       3.067  32.920  59.352  1.00  0.00    -0.293 OA
ENDBRANCH  23  31
ENDBRANCH  20  22
ENDBRANCH   4  20
TORSDOF 7
ENDMDL
MODEL 6
REMARK VINA RESULT:      -9.3      8.766     12.037
REMARK  7 active torsions:
REMARK  status: ('A' for Active; 'I' for Inactive)
REMARK    1  A    between atoms: C_2  and  C_3 
REMARK    2  A    between atoms: C_3  and  C_4 
REMARK    3  A    between atoms: C_7  and  C_8 
REMARK    4  A    between atoms: C_10  and  C_11 
REMARK    5  A    between atoms: C_14  and  N_15 
REMARK    6  A    between atoms: N_15  and  C_16 
REMARK    7  A    between atoms: C_17  and  C_18 
ROOT
HETATM    1  C   UNL     1       4.259  29.420  50.336  1.00  0.00     0.082 C 
HETATM    2  C   UNL     1       3.802  30.867  50.442  1.00  0.00     0.024 C 
HETATM    3  N   UNL     1       3.423  32.066  50.529  1.00  0.00    -0.096 N 
HETATM    4  C   UNL     1       4.343  28.767  49.161  1.00  0.00     0.113 C 
ENDROOT
BRANCH   1   5
HETATM    5  C   UNL     1       4.686  28.776  51.534  1.00  0.00     0.119 A 
HETATM    6  N   UNL     1       5.568  27.800  51.626  1.00  0.00    -0.239 NA
HETATM    7  C   UNL     1       5.651  27.313  52.926  1.00  0.00     0.075 A 
HETATM    8  C   UNL     1       4.911  28.031  53.845  1.00  0.00     0.084 A 
HETATM    9  S   UNL     1       4.030  29.271  53.061  1.00  0.00    -0.078 SA
BRANCH   7  10
HETATM   10  C   UNL     1       6.454  26.130  53.240  1.00  0.00    -0.007 A 
HETATM   11  C   UNL     1       6.970  25.351  52.195  1.00  0.00     0.014 A 
HETATM   12  C   UNL     1       7.712  24.194  52.456  1.00  0.00     0.008 A 
HETATM   13  C   UNL     1       7.953  23.786  53.773  1.00  0.00    -0.058 A 
HETATM   14  C   UNL     1       7.437  24.558  54.821  1.00  0.00     0.008 A 
HETATM   15  C   UNL     1       6.695  25.715  54.557  1.00  0.00     0.014 A 
BRANCH  13  16
HETATM   16  C   UNL     1       8.749  22.536  54.061  1.00  0.00     0.042 C 
BRANCH  16  17
HETATM   17  C   UNL     1       7.911  21.245  54.018  1.00  0.00    -0.019 C 
HETATM   18  C   UNL     1       8.109  20.392  55.274  1.00  0.00     0.010 C 
HETATM   19  C   UNL     1       8.277  20.429  52.777  1.00  0.00     0.010 C 
ENDBRANCH  16  17
ENDBRANCH  13  16
ENDBRANCH   7  10
ENDBRANCH   1   5
BRANCH   4  20
HETATM   20  N   UNL     1       3.988  29.114  47.862  1.00  0.00    -0.364 N 
HETATM   21  H   UNL     1       4.178  30.099  47.669  1.00  0.00     0.165 HD
BRANCH  20  22
HETATM   22  C   UNL     1       2.785  28.666  47.259  1.00  0.00     0.048 A 
HETATM   23  C   UNL     1       2.473  27.281  47.150  1.00  0.00     0.039 A 
HETATM   24  C   UNL     1       1.201  26.852  46.739  1.00  0.00     0.057 A 
HETATM   25  C   UNL     1       0.272  27.817  46.427  1.00  0.00     0.106 A 
HETATM   26  C   UNL     1       0.571  29.157  46.495  1.00  0.00     0.107 A 
HETATM   27  O   UNL     1      -1.007  27.590  46.029  1.00  0.00    -0.323 OA
HETATM   28  O   UNL     1      -0.487  29.940  46.154  1.00  0.00    -0.323 OA
HETATM   29  C   UNL     1       1.811  29.613  46.899  1.00  0.00     0.070 A 
HETATM   30  C   UNL     1      -1.508  28.939  45.948  1.00  0.00     0.352 A 
BRANCH  23  31
HETATM   31  C   UNL     1       3.472  26.216  47.420  1.00  0.00     0.158 C 
HETATM   32  C   UNL     1       3.032  24.980  48.164  1.00  0.00     0.097 C 
HETATM   33  O   UNL     1       4.642  26.388  47.088  1.00  0.00    -0.293 OA
ENDBRANCH  23  31
ENDBRANCH  20  22
ENDBRANCH   4  20
TORSDOF 7
ENDMDL
MODEL 7
REMARK VINA RESULT:      -9.1      2.371      3.395
REMARK  7 active torsions:
REMARK  status: ('A' for Active; 'I' for Inactive)
REMARK    1  A    between atoms: C_2  and  C_3 
REMARK    2  A    between atoms: C_3  and  C_4 
REMARK    3  A    between atoms: C_7  and  C_8 
REMARK    4  A    between atoms: C_10  and  C_11 
REMARK    5  A    between atoms: C_14  and  N_15 
REMARK    6  A    between atoms: N_15  and  C_16 
REMARK    7  A    between atoms: C_17  and  C_18 
ROOT
HETATM    1  C   UNL     1       5.190  30.337  55.919  1.00  0.00     0.082 C 
HETATM    2  C   UNL     1       4.098  31.365  55.668  1.00  0.00     0.024 C 
HETATM    3  N   UNL     1       3.191  32.216  55.460  1.00  0.00    -0.096 N 
HETATM    4  C   UNL     1       6.160  30.515  56.837  1.00  0.00     0.113 C 
ENDROOT
BRANCH   1   5
HETATM    5  C   UNL     1       5.117  29.110  55.197  1.00  0.00     0.119 A 
HETATM    6  N   UNL     1       5.859  28.038  55.399  1.00  0.00    -0.239 NA
HETATM    7  C   UNL     1       5.621  27.068  54.431  1.00  0.00     0.075 A 
HETATM    8  C   UNL     1       4.586  27.373  53.571  1.00  0.00     0.084 A 
HETATM    9  S   UNL     1       3.964  28.930  53.915  1.00  0.00    -0.078 SA
BRANCH   7  10
HETATM   10  C   UNL     1       6.434  25.853  54.364  1.00  0.00    -0.007 A 
HETATM   11  C   UNL     1       6.706  25.140  55.540  1.00  0.00     0.014 A 
HETATM   12  C   UNL     1       7.509  23.994  55.520  1.00  0.00     0.008 A 
HETATM   13  C   UNL     1       8.063  23.536  54.320  1.00  0.00    -0.058 A 
HETATM   14  C   UNL     1       7.799  24.246  53.143  1.00  0.00     0.008 A 
HETATM   15  C   UNL     1       6.995  25.391  53.165  1.00  0.00     0.014 A 
BRANCH  13  16
HETATM   16  C   UNL     1       8.934  22.303  54.292  1.00  0.00     0.042 C 
BRANCH  16  17
HETATM   17  C   UNL     1       8.140  20.987  54.188  1.00  0.00    -0.019 C 
HETATM   18  C   UNL     1       8.539  19.991  55.281  1.00  0.00     0.010 C 
HETATM   19  C   UNL     1       8.356  20.357  52.811  1.00  0.00     0.010 C 
ENDBRANCH  16  17
ENDBRANCH  13  16
ENDBRANCH   7  10
ENDBRANCH   1   5
BRANCH   4  20
HETATM   20  N   UNL     1       6.495  31.585  57.659  1.00  0.00    -0.364 N 
HETATM   21  H   UNL     1       7.054  32.282  57.164  1.00  0.00     0.165 HD
BRANCH  20  22
HETATM   22  C   UNL     1       6.918  31.406  59.002  1.00  0.00     0.048 A 
HETATM   23  C   UNL     1       8.042  30.596  59.332  1.00  0.00     0.039 A 
HETATM   24  C   UNL     1       8.574  30.585  60.631  1.00  0.00     0.057 A 
HETATM   25  C   UNL     1       7.960  31.371  61.578  1.00  0.00     0.106 A 
HETATM   26  C   UNL     1       6.855  32.131  61.282  1.00  0.00     0.107 A 
HETATM   27  O   UNL     1       8.346  31.498  62.875  1.00  0.00    -0.323 OA
HETATM   28  O   UNL     1       6.410  32.837  62.356  1.00  0.00    -0.323 OA
HETATM   29  C   UNL     1       6.308  32.168  60.014  1.00  0.00     0.070 A 
HETATM   30  C   UNL     1       7.415  32.498  63.336  1.00  0.00     0.352 A 
BRANCH  23  31
HETATM   31  C   UNL     1       8.687  29.692  58.347  1.00  0.00     0.158 C 
HETATM   32  C   UNL     1       9.828  30.222  57.514  1.00  0.00     0.097 C 
HETATM   33  O   UNL     1       8.244  28.557  58.188  1.00  0.00    -0.293 OA
ENDBRANCH  23  31
ENDBRANCH  20  22
ENDBRANCH   4  20
TORSDOF 7
ENDMDL
MODEL 8
REMARK VINA RESULT:      -9.0      2.034      3.240
REMARK  7 active torsions:
REMARK  status: ('A' for Active; 'I' for Inactive)
REMARK    1  A    between atoms: C_2  and  C_3 
REMARK    2  A    between atoms: C_3  and  C_4 
REMARK    3  A    between atoms: C_7  and  C_8 
REMARK    4  A    between atoms: C_10  and  C_11 
REMARK    5  A    between atoms: C_14  and  N_15 
REMARK    6  A    between atoms: N_15  and  C_16 
REMARK    7  A    between atoms: C_17  and  C_18 
ROOT
HETATM    1  C   UNL     1       6.261  30.710  57.796  1.00  0.00     0.082 C 
HETATM    2  C   UNL     1       4.875  30.689  57.172  1.00  0.00     0.024 C 
HETATM    3  N   UNL     1       3.725  30.671  56.656  1.00  0.00    -0.096 N 
HETATM    4  C   UNL     1       6.643  31.640  58.693  1.00  0.00     0.113 C 
ENDROOT
BRANCH   1   5
HETATM    5  C   UNL     1       7.149  29.645  57.462  1.00  0.00     0.119 A 
HETATM    6  N   UNL     1       6.809  28.469  56.971  1.00  0.00    -0.239 NA
HETATM    7  C   UNL     1       7.906  27.619  56.889  1.00  0.00     0.075 A 
HETATM    8  C   UNL     1       9.109  28.219  57.201  1.00  0.00     0.084 A 
HETATM    9  S   UNL     1       8.856  29.839  57.694  1.00  0.00    -0.078 SA
BRANCH   7  10
HETATM   10  C   UNL     1       7.746  26.213  56.512  1.00  0.00    -0.007 A 
HETATM   11  C   UNL     1       8.398  25.221  57.258  1.00  0.00     0.014 A 
HETATM   12  C   UNL     1       8.296  23.870  56.907  1.00  0.00     0.008 A 
HETATM   13  C   UNL     1       7.540  23.480  55.796  1.00  0.00    -0.058 A 
HETATM   14  C   UNL     1       6.890  24.466  55.045  1.00  0.00     0.008 A 
HETATM   15  C   UNL     1       6.992  25.816  55.398  1.00  0.00     0.014 A 
BRANCH  13  16
HETATM   16  C   UNL     1       7.430  22.025  55.409  1.00  0.00     0.042 C 
BRANCH  16  17
HETATM   17  C   UNL     1       8.734  21.436  54.837  1.00  0.00    -0.019 C 
HETATM   18  C   UNL     1       8.508  20.752  53.486  1.00  0.00     0.010 C 
HETATM   19  C   UNL     1       9.332  20.436  55.829  1.00  0.00     0.010 C 
ENDBRANCH  16  17
ENDBRANCH  13  16
ENDBRANCH   7  10
ENDBRANCH   1   5
BRANCH   4  20
HETATM   20  N   UNL     1       6.023  32.782  59.188  1.00  0.00    -0.364 N 
HETATM   21  H   UNL     1       6.432  33.633  58.799  1.00  0.00     0.165 HD
BRANCH  20  22
HETATM   22  C   UNL     1       5.677  32.923  60.557  1.00  0.00     0.048 A 
HETATM   23  C   UNL     1       4.411  32.505  61.057  1.00  0.00     0.039 A 
HETATM   24  C   UNL     1       4.152  32.461  62.436  1.00  0.00     0.057 A 
HETATM   25  C   UNL     1       5.158  32.854  63.287  1.00  0.00     0.106 A 
HETATM   26  C   UNL     1       6.373  33.292  62.817  1.00  0.00     0.107 A 
HETATM   27  O   UNL     1       5.093  32.861  64.643  1.00  0.00    -0.323 OA
HETATM   28  O   UNL     1       7.227  33.624  63.822  1.00  0.00    -0.323 OA
HETATM   29  C   UNL     1       6.662  33.344  61.467  1.00  0.00     0.070 A 
HETATM   30  C   UNL     1       6.437  33.261  64.976  1.00  0.00     0.352 A 
BRANCH  23  31
HETATM   31  C   UNL     1       3.286  32.134  60.162  1.00  0.00     0.158 C 
HETATM   32  C   UNL     1       2.777  30.715  60.186  1.00  0.00     0.097 C 
HETATM   33  O   UNL     1       2.833  32.970  59.382  1.00  0.00    -0.293 OA
ENDBRANCH  23  31
ENDBRANCH  20  22
ENDBRANCH   4  20
TORSDOF 7
ENDMDL
MODEL 9
REMARK VINA RESULT:      -8.8      3.608     11.334
REMARK  7 active torsions:
REMARK  status: ('A' for Active; 'I' for Inactive)
REMARK    1  A    between atoms: C_2  and  C_3 
REMARK    2  A    between atoms: C_3  and  C_4 
REMARK    3  A    between atoms: C_7  and  C_8 
REMARK    4  A    between atoms: C_10  and  C_11 
REMARK    5  A    between atoms: C_14  and  N_15 
REMARK    6  A    between atoms: N_15  and  C_16 
REMARK    7  A    between atoms: C_17  and  C_18 
ROOT
HETATM    1  C   UNL     1       6.956  31.903  60.845  1.00  0.00     0.082 C 
HETATM    2  C   UNL     1       8.173  31.128  61.323  1.00  0.00     0.024 C 
HETATM    3  N   UNL     1       9.182  30.484  61.720  1.00  0.00    -0.096 N 
HETATM    4  C   UNL     1       6.572  31.932  59.554  1.00  0.00     0.113 C 
ENDROOT
BRANCH   1   5
HETATM    5  C   UNL     1       6.160  32.553  61.834  1.00  0.00     0.119 A 
HETATM    6  N   UNL     1       6.549  32.904  63.044  1.00  0.00    -0.239 NA
HETATM    7  C   UNL     1       5.486  33.393  63.796  1.00  0.00     0.075 A 
HETATM    8  C   UNL     1       4.310  33.530  63.086  1.00  0.00     0.084 A 
HETATM    9  S   UNL     1       4.510  32.956  61.486  1.00  0.00    -0.078 SA
BRANCH   7  10
HETATM   10  C   UNL     1       5.647  33.705  65.216  1.00  0.00    -0.007 A 
HETATM   11  C   UNL     1       4.510  33.907  66.011  1.00  0.00     0.014 A 
HETATM   12  C   UNL     1       4.625  34.242  67.365  1.00  0.00     0.008 A 
HETATM   13  C   UNL     1       5.885  34.387  67.956  1.00  0.00    -0.058 A 
HETATM   14  C   UNL     1       7.025  34.191  67.167  1.00  0.00     0.008 A 
HETATM   15  C   UNL     1       6.907  33.855  65.814  1.00  0.00     0.014 A 
BRANCH  13  16
HETATM   16  C   UNL     1       6.016  34.753  69.415  1.00  0.00     0.042 C 
BRANCH  16  17
HETATM   17  C   UNL     1       6.985  33.845  70.196  1.00  0.00    -0.019 C 
HETATM   18  C   UNL     1       6.379  33.368  71.519  1.00  0.00     0.010 C 
HETATM   19  C   UNL     1       8.293  34.591  70.465  1.00  0.00     0.010 C 
ENDBRANCH  16  17
ENDBRANCH  13  16
ENDBRANCH   7  10
ENDBRANCH   1   5
BRANCH   4  20
HETATM   20  N   UNL     1       7.139  31.426  58.390  1.00  0.00    -0.364 N 
HETATM   21  H   UNL     1       7.147  32.120  57.641  1.00  0.00     0.165 HD
BRANCH  20  22
HETATM   22  C   UNL     1       6.857  30.119  57.915  1.00  0.00     0.048 A 
HETATM   23  C   UNL     1       5.777  29.864  57.022  1.00  0.00     0.039 A 
HETATM   24  C   UNL     1       5.627  28.614  56.401  1.00  0.00     0.057 A 
HETATM   25  C   UNL     1       6.550  27.638  56.700  1.00  0.00     0.106 A 
HETATM   26  C   UNL     1       7.576  27.861  57.586  1.00  0.00     0.107 A 
HETATM   27  O   UNL     1       6.572  26.382  56.183  1.00  0.00    -0.323 OA
HETATM   28  O   UNL     1       8.378  26.771  57.732  1.00  0.00    -0.323 OA
HETATM   29  C   UNL     1       7.755  29.079  58.211  1.00  0.00     0.070 A 
HETATM   30  C   UNL     1       7.785  25.870  56.771  1.00  0.00     0.352 A 
BRANCH  23  31
HETATM   31  C   UNL     1       4.732  30.876  56.727  1.00  0.00     0.158 C 
HETATM   32  C   UNL     1       3.284  30.502  56.922  1.00  0.00     0.097 C 
HETATM   33  O   UNL     1       5.062  31.971  56.276  1.00  0.00    -0.293 OA
ENDBRANCH  23  31
ENDBRANCH  20  22
ENDBRANCH   4  20
TORSDOF 7
ENDMDL
MODEL 10
REMARK VINA RESULT:      -8.8      2.273      3.021
REMARK  7 active torsions:
REMARK  status: ('A' for Active; 'I' for Inactive)
REMARK    1  A    between atoms: C_2  and  C_3 
REMARK    2  A    between atoms: C_3  and  C_4 
REMARK    3  A    between atoms: C_7  and  C_8 
REMARK    4  A    between atoms: C_10  and  C_11 
REMARK    5  A    between atoms: C_14  and  N_15 
REMARK    6  A    between atoms: N_15  and  C_16 
REMARK    7  A    between atoms: C_17  and  C_18 
ROOT
HETATM    1  C   UNL     1       5.614  30.890  56.311  1.00  0.00     0.082 C 
HETATM    2  C   UNL     1       4.977  32.227  55.963  1.00  0.00     0.024 C 
HETATM    3  N   UNL     1       4.449  33.335  55.675  1.00  0.00    -0.096 N 
HETATM    4  C   UNL     1       6.430  30.726  57.370  1.00  0.00     0.113 C 
ENDROOT
BRANCH   1   5
HETATM    5  C   UNL     1       5.254  29.763  55.515  1.00  0.00     0.119 A 
HETATM    6  N   UNL     1       5.957  28.658  55.360  1.00  0.00    -0.239 NA
HETATM    7  C   UNL     1       5.382  27.821  54.410  1.00  0.00     0.075 A 
HETATM    8  C   UNL     1       4.156  28.254  53.947  1.00  0.00     0.084 A 
HETATM    9  S   UNL     1       3.760  29.770  54.635  1.00  0.00    -0.078 SA
BRANCH   7  10
HETATM   10  C   UNL     1       6.064  26.605  53.964  1.00  0.00    -0.007 A 
HETATM   11  C   UNL     1       5.505  25.354  54.260  1.00  0.00     0.014 A 
HETATM   12  C   UNL     1       6.147  24.169  53.880  1.00  0.00     0.008 A 
HETATM   13  C   UNL     1       7.367  24.210  53.197  1.00  0.00    -0.058 A 
HETATM   14  C   UNL     1       7.932  25.456  52.902  1.00  0.00     0.008 A 
HETATM   15  C   UNL     1       7.289  26.639  53.282  1.00  0.00     0.014 A 
BRANCH  13  16
HETATM   16  C   UNL     1       8.066  22.935  52.789  1.00  0.00     0.042 C 
BRANCH  16  17
HETATM   17  C   UNL     1       8.698  22.171  53.968  1.00  0.00    -0.019 C 
HETATM   18  C   UNL     1       7.869  20.945  54.363  1.00  0.00     0.010 C 
HETATM   19  C   UNL     1       8.847  23.103  55.171  1.00  0.00     0.010 C 
ENDBRANCH  16  17
ENDBRANCH  13  16
ENDBRANCH   7  10
ENDBRANCH   1   5
BRANCH   4  20
HETATM   20  N   UNL     1       6.965  31.616  58.295  1.00  0.00    -0.364 N 
HETATM   21  H   UNL     1       7.984  31.559  58.327  1.00  0.00     0.165 HD
BRANCH  20  22
HETATM   22  C   UNL     1       6.393  31.812  59.578  1.00  0.00     0.048 A 
HETATM   23  C   UNL     1       7.161  31.677  60.770  1.00  0.00     0.039 A 
HETATM   24  C   UNL     1       6.644  32.067  62.016  1.00  0.00     0.057 A 
HETATM   25  C   UNL     1       5.363  32.566  62.047  1.00  0.00     0.106 A 
HETATM   26  C   UNL     1       4.599  32.670  60.910  1.00  0.00     0.107 A 
HETATM   27  O   UNL     1       4.710  33.006  63.154  1.00  0.00    -0.323 OA
HETATM   28  O   UNL     1       3.369  33.194  61.160  1.00  0.00    -0.323 OA
HETATM   29  C   UNL     1       5.077  32.299  59.668  1.00  0.00     0.070 A 
HETATM   30  C   UNL     1       3.483  33.488  62.569  1.00  0.00     0.352 A 
BRANCH  23  31
HETATM   31  C   UNL     1       8.522  31.086  60.776  1.00  0.00     0.158 C 
HETATM   32  C   UNL     1       9.620  31.799  61.526  1.00  0.00     0.097 C 
HETATM   33  O   UNL     1       8.741  30.066  60.125  1.00  0.00    -0.293 OA
ENDBRANCH  23  31
ENDBRANCH  20  22
ENDBRANCH   4  20
TORSDOF 7
ENDMDL
