MODEL 1
REMARK VINA RESULT:      -9.1      0.000      0.000
REMARK  8 active torsions:
REMARK  status: ('A' for Active; 'I' for Inactive)
REMARK    1  A    between atoms: C_2  and  C_3 
REMARK    2  A    between atoms: C_3  and  N_4 
REMARK    3  A    between atoms: C_3  and  C_19 
REMARK       I    between atoms: C_19  and  N_20 
REMARK    4  A    between atoms: N_20  and  C_21 
REMARK    5  A    between atoms: C_21  and  C_22 
REMARK    6  A    between atoms: C_22  and  C_23 
REMARK    7  A    between atoms: C_23  and  O_24 
REMARK    8  A    between atoms: O_24  and  C_25 
ROOT
HETATM    1  N   UNL     1       7.260  26.641  55.491  1.00  0.00    -0.220 N 
HETATM    2  N   UNL     1       6.935  26.758  54.136  1.00  0.00    -0.172 NA
HETATM    3  C   UNL     1       7.004  25.708  53.370  1.00  0.00     0.069 A 
HETATM    4  C   UNL     1       6.688  25.869  51.906  1.00  0.00     0.074 C 
HETATM    5  C   UNL     1       7.363  24.429  53.922  1.00  0.00     0.048 A 
HETATM    6  C   UNL     1       7.694  24.277  55.246  1.00  0.00     0.064 A 
HETATM    7  C   UNL     1       7.701  25.452  56.108  1.00  0.00     0.277 A 
HETATM    8  O   UNL     1       8.046  25.398  57.287  1.00  0.00    -0.266 OA
HETATM    9  S   UNL     1       7.410  22.981  53.055  1.00  0.00    -0.086 SA
HETATM   10  C   UNL     1       7.851  22.078  54.456  1.00  0.00     0.017 A 
HETATM   11  C   UNL     1       7.977  22.904  55.579  1.00  0.00    -0.002 A 
HETATM   12  C   UNL     1       8.066  20.688  54.528  1.00  0.00     0.020 A 
HETATM   13  C   UNL     1       8.411  20.118  55.755  1.00  0.00     0.001 A 
HETATM   14  C   UNL     1       8.543  20.911  56.885  1.00  0.00     0.001 A 
HETATM   15  C   UNL     1       8.333  22.291  56.808  1.00  0.00     0.014 A 
ENDROOT
BRANCH   1  16
HETATM   16  C   UNL     1       7.272  27.877  56.285  1.00  0.00     0.205 C 
BRANCH  16  17
HETATM   17  C   UNL     1       6.038  28.759  56.033  1.00  0.00     0.032 C 
HETATM   18  C   UNL     1       5.471  29.364  57.309  1.00  0.00     0.007 C 
ENDBRANCH  16  17
BRANCH  16  19
HETATM   19  C   UNL     1       8.575  28.645  55.975  1.00  0.00     0.242 C 
HETATM   20  N   UNL     1       9.351  28.919  57.087  1.00  0.00    -0.359 N 
HETATM   21  H   UNL     1       9.118  28.497  57.979  1.00  0.00     0.162 HD
HETATM   22  O   UNL     1       8.891  29.027  54.850  1.00  0.00    -0.271 OA
BRANCH  20  23
HETATM   23  C   UNL     1      10.611  29.628  56.994  1.00  0.00     0.125 C 
BRANCH  23  24
HETATM   24  C   UNL     1      10.611  30.943  57.772  1.00  0.00     0.046 C 
BRANCH  24  25
HETATM   25  C   UNL     1       9.318  31.187  58.544  1.00  0.00     0.169 C 
BRANCH  25  26
HETATM   26  O   UNL     1       9.392  32.449  59.204  1.00  0.00    -0.387 OA
BRANCH  26  27
HETATM   27  C   UNL     1       8.688  32.495  60.448  1.00  0.00     0.113 C 
HETATM   28  C   UNL     1       7.360  31.748  60.358  1.00  0.00     0.039 C 
HETATM   29  C   UNL     1       9.589  31.838  61.488  1.00  0.00     0.039 C 
ENDBRANCH  26  27
ENDBRANCH  25  26
ENDBRANCH  24  25
ENDBRANCH  23  24
ENDBRANCH  20  23
ENDBRANCH  16  19
ENDBRANCH   1  16
TORSDOF 8
ENDMDL
MODEL 2
REMARK VINA RESULT:      -8.9      3.224      9.240
REMARK  8 active torsions:
REMARK  status: ('A' for Active; 'I' for Inactive)
REMARK    1  A    between atoms: C_2  and  C_3 
REMARK    2  A    between atoms: C_3  and  N_4 
REMARK    3  A    between atoms: C_3  and  C_19 
REMARK       I    between atoms: C_19  and  N_20 
REMARK    4  A    between atoms: N_20  and  C_21 
REMARK    5  A    between atoms: C_21  and  C_22 
REMARK    6  A    between atoms: C_22  and  C_23 
REMARK    7  A    between atoms: C_23  and  O_24 
REMARK    8  A    between atoms: O_24  and  C_25 
ROOT
HETATM    1  N   UNL     1       8.083  30.318  58.515  1.00  0.00    -0.220 N 
HETATM    2  N   UNL     1       7.023  30.768  57.721  1.00  0.00    -0.172 NA
HETATM    3  C   UNL     1       6.148  31.587  58.228  1.00  0.00     0.069 A 
HETATM    4  C   UNL     1       4.994  32.025  57.366  1.00  0.00     0.074 C 
HETATM    5  C   UNL     1       6.298  32.064  59.577  1.00  0.00     0.048 A 
HETATM    6  C   UNL     1       7.322  31.640  60.387  1.00  0.00     0.064 A 
HETATM    7  C   UNL     1       8.269  30.662  59.870  1.00  0.00     0.277 A 
HETATM    8  O   UNL     1       9.172  30.195  60.560  1.00  0.00    -0.266 OA
HETATM    9  S   UNL     1       5.282  33.188  60.323  1.00  0.00    -0.086 SA
HETATM   10  C   UNL     1       6.214  33.170  61.773  1.00  0.00     0.017 A 
HETATM   11  C   UNL     1       7.293  32.283  61.677  1.00  0.00    -0.002 A 
HETATM   12  C   UNL     1       5.977  33.929  62.935  1.00  0.00     0.020 A 
HETATM   13  C   UNL     1       6.845  33.795  64.021  1.00  0.00     0.001 A 
HETATM   14  C   UNL     1       7.922  32.925  63.955  1.00  0.00     0.001 A 
HETATM   15  C   UNL     1       8.152  32.170  62.801  1.00  0.00     0.014 A 
ENDROOT
BRANCH   1  16
HETATM   16  C   UNL     1       8.976  29.310  57.928  1.00  0.00     0.205 C 
BRANCH  16  17
HETATM   17  C   UNL     1       9.918  29.896  56.864  1.00  0.00     0.032 C 
HETATM   18  C   UNL     1      11.372  29.926  57.310  1.00  0.00     0.007 C 
ENDBRANCH  16  17
BRANCH  16  19
HETATM   19  C   UNL     1       8.113  28.173  57.340  1.00  0.00     0.242 C 
HETATM   20  N   UNL     1       7.829  28.316  55.993  1.00  0.00    -0.359 N 
HETATM   21  H   UNL     1       8.297  29.035  55.454  1.00  0.00     0.162 HD
HETATM   22  O   UNL     1       7.671  27.238  58.003  1.00  0.00    -0.271 OA
BRANCH  20  23
HETATM   23  C   UNL     1       7.036  27.346  55.265  1.00  0.00     0.125 C 
BRANCH  23  24
HETATM   24  C   UNL     1       7.435  27.237  53.794  1.00  0.00     0.046 C 
BRANCH  24  25
HETATM   25  C   UNL     1       7.661  25.800  53.335  1.00  0.00     0.169 C 
BRANCH  25  26
HETATM   26  O   UNL     1       6.576  24.986  53.775  1.00  0.00    -0.387 OA
BRANCH  26  27
HETATM   27  C   UNL     1       6.929  23.618  53.994  1.00  0.00     0.113 C 
HETATM   28  C   UNL     1       7.892  23.118  52.920  1.00  0.00     0.039 C 
HETATM   29  C   UNL     1       7.592  23.549  55.365  1.00  0.00     0.039 C 
ENDBRANCH  26  27
ENDBRANCH  25  26
ENDBRANCH  24  25
ENDBRANCH  23  24
ENDBRANCH  20  23
ENDBRANCH  16  19
ENDBRANCH   1  16
TORSDOF 8
ENDMDL
MODEL 3
REMARK VINA RESULT:      -8.8      2.128      3.693
REMARK  8 active torsions:
REMARK  status: ('A' for Active; 'I' for Inactive)
REMARK    1  A    between atoms: C_2  and  C_3 
REMARK    2  A    between atoms: C_3  and  N_4 
REMARK    3  A    between atoms: C_3  and  C_19 
REMARK       I    between atoms: C_19  and  N_20 
REMARK    4  A    between atoms: N_20  and  C_21 
REMARK    5  A    between atoms: C_21  and  C_22 
REMARK    6  A    between atoms: C_22  and  C_23 
REMARK    7  A    between atoms: C_23  and  O_24 
REMARK    8  A    between atoms: O_24  and  C_25 
ROOT
HETATM    1  N   UNL     1       6.285  26.406  54.473  1.00  0.00    -0.220 N 
HETATM    2  N   UNL     1       6.723  26.728  55.762  1.00  0.00    -0.172 NA
HETATM    3  C   UNL     1       7.363  25.837  56.461  1.00  0.00     0.069 A 
HETATM    4  C   UNL     1       7.788  26.194  57.861  1.00  0.00     0.074 C 
HETATM    5  C   UNL     1       7.660  24.548  55.895  1.00  0.00     0.048 A 
HETATM    6  C   UNL     1       7.242  24.194  54.636  1.00  0.00     0.064 A 
HETATM    7  C   UNL     1       6.456  25.146  53.863  1.00  0.00     0.277 A 
HETATM    8  O   UNL     1       5.998  24.872  52.756  1.00  0.00    -0.266 OA
HETATM    9  S   UNL     1       8.551  23.336  56.664  1.00  0.00    -0.086 SA
HETATM   10  C   UNL     1       8.433  22.289  55.300  1.00  0.00     0.017 A 
HETATM   11  C   UNL     1       7.691  22.875  54.267  1.00  0.00    -0.002 A 
HETATM   12  C   UNL     1       8.992  21.002  55.176  1.00  0.00     0.020 A 
HETATM   13  C   UNL     1       8.804  20.293  53.988  1.00  0.00     0.001 A 
HETATM   14  C   UNL     1       8.074  20.847  52.948  1.00  0.00     0.001 A 
HETATM   15  C   UNL     1       7.517  22.123  53.076  1.00  0.00     0.014 A 
ENDROOT
BRANCH   1  16
HETATM   16  C   UNL     1       5.473  27.409  53.773  1.00  0.00     0.205 C 
BRANCH  16  17
HETATM   17  C   UNL     1       6.238  28.105  52.635  1.00  0.00     0.032 C 
HETATM   18  C   UNL     1       5.507  28.039  51.302  1.00  0.00     0.007 C 
ENDBRANCH  16  17
BRANCH  16  19
HETATM   19  C   UNL     1       4.962  28.435  54.806  1.00  0.00     0.242 C 
HETATM   20  N   UNL     1       5.859  29.450  55.089  1.00  0.00    -0.359 N 
HETATM   21  H   UNL     1       6.697  29.551  54.529  1.00  0.00     0.162 HD
HETATM   22  O   UNL     1       3.874  28.351  55.372  1.00  0.00    -0.271 OA
BRANCH  20  23
HETATM   23  C   UNL     1       5.556  30.508  56.032  1.00  0.00     0.125 C 
BRANCH  23  24
HETATM   24  C   UNL     1       5.860  30.119  57.478  1.00  0.00     0.046 C 
BRANCH  24  25
HETATM   25  C   UNL     1       7.292  30.434  57.899  1.00  0.00     0.169 C 
BRANCH  25  26
HETATM   26  O   UNL     1       8.199  29.697  57.083  1.00  0.00    -0.387 OA
BRANCH  26  27
HETATM   27  C   UNL     1       9.532  29.645  57.596  1.00  0.00     0.113 C 
HETATM   28  C   UNL     1      10.559  29.694  56.468  1.00  0.00     0.039 C 
HETATM   29  C   UNL     1       9.698  30.856  58.509  1.00  0.00     0.039 C 
ENDBRANCH  26  27
ENDBRANCH  25  26
ENDBRANCH  24  25
ENDBRANCH  23  24
ENDBRANCH  20  23
ENDBRANCH  16  19
ENDBRANCH   1  16
TORSDOF 8
ENDMDL
MODEL 4
REMARK VINA RESULT:      -7.8      1.771      2.284
REMARK  8 active torsions:
REMARK  status: ('A' for Active; 'I' for Inactive)
REMARK    1  A    between atoms: C_2  and  C_3 
REMARK    2  A    between atoms: C_3  and  N_4 
REMARK    3  A    between atoms: C_3  and  C_19 
REMARK       I    between atoms: C_19  and  N_20 
REMARK    4  A    between atoms: N_20  and  C_21 
REMARK    5  A    between atoms: C_21  and  C_22 
REMARK    6  A    between atoms: C_22  and  C_23 
REMARK    7  A    between atoms: C_23  and  O_24 
REMARK    8  A    between atoms: O_24  and  C_25 
ROOT
HETATM    1  N   UNL     1       6.269  27.461  55.998  1.00  0.00    -0.220 N 
HETATM    2  N   UNL     1       5.997  28.069  54.769  1.00  0.00    -0.172 NA
HETATM    3  C   UNL     1       6.223  27.414  53.667  1.00  0.00     0.069 A 
HETATM    4  C   UNL     1       5.960  28.107  52.356  1.00  0.00     0.074 C 
HETATM    5  C   UNL     1       6.702  26.059  53.715  1.00  0.00     0.048 A 
HETATM    6  C   UNL     1       6.986  25.430  54.903  1.00  0.00     0.064 A 
HETATM    7  C   UNL     1       6.817  26.169  56.147  1.00  0.00     0.277 A 
HETATM    8  O   UNL     1       7.109  25.689  57.240  1.00  0.00    -0.266 OA
HETATM    9  S   UNL     1       6.958  25.075  52.366  1.00  0.00    -0.086 SA
HETATM   10  C   UNL     1       7.435  23.740  53.345  1.00  0.00     0.017 A 
HETATM   11  C   UNL     1       7.411  24.067  54.707  1.00  0.00    -0.002 A 
HETATM   12  C   UNL     1       7.806  22.457  52.897  1.00  0.00     0.020 A 
HETATM   13  C   UNL     1       8.157  21.485  53.836  1.00  0.00     0.001 A 
HETATM   14  C   UNL     1       8.143  21.781  55.191  1.00  0.00     0.001 A 
HETATM   15  C   UNL     1       7.777  23.056  55.632  1.00  0.00     0.014 A 
ENDROOT
BRANCH   1  16
HETATM   16  C   UNL     1       6.101  28.283  57.203  1.00  0.00     0.205 C 
BRANCH  16  17
HETATM   17  C   UNL     1       4.901  29.241  57.108  1.00  0.00     0.032 C 
HETATM   18  C   UNL     1       5.316  30.698  56.963  1.00  0.00     0.007 C 
ENDBRANCH  16  17
BRANCH  16  19
HETATM   19  C   UNL     1       7.411  29.059  57.454  1.00  0.00     0.242 C 
HETATM   20  N   UNL     1       7.574  29.492  58.759  1.00  0.00    -0.359 N 
HETATM   21  H   UNL     1       6.938  29.170  59.478  1.00  0.00     0.162 HD
HETATM   22  O   UNL     1       8.230  29.318  56.575  1.00  0.00    -0.271 OA
BRANCH  20  23
HETATM   23  C   UNL     1       8.743  30.233  59.185  1.00  0.00     0.125 C 
BRANCH  23  24
HETATM   24  C   UNL     1       8.436  31.697  59.498  1.00  0.00     0.046 C 
BRANCH  24  25
HETATM   25  C   UNL     1       7.333  31.874  60.537  1.00  0.00     0.169 C 
BRANCH  25  26
HETATM   26  O   UNL     1       7.602  33.034  61.320  1.00  0.00    -0.387 OA
BRANCH  26  27
HETATM   27  C   UNL     1       6.784  33.150  62.487  1.00  0.00     0.113 C 
HETATM   28  C   UNL     1       7.614  32.995  63.759  1.00  0.00     0.039 C 
HETATM   29  C   UNL     1       6.147  34.534  62.442  1.00  0.00     0.039 C 
ENDBRANCH  26  27
ENDBRANCH  25  26
ENDBRANCH  24  25
ENDBRANCH  23  24
ENDBRANCH  20  23
ENDBRANCH  16  19
ENDBRANCH   1  16
TORSDOF 8
ENDMDL
MODEL 5
REMARK VINA RESULT:      -7.7      3.060      7.635
REMARK  8 active torsions:
REMARK  status: ('A' for Active; 'I' for Inactive)
REMARK    1  A    between atoms: C_2  and  C_3 
REMARK    2  A    between atoms: C_3  and  N_4 
REMARK    3  A    between atoms: C_3  and  C_19 
REMARK       I    between atoms: C_19  and  N_20 
REMARK    4  A    between atoms: N_20  and  C_21 
REMARK    5  A    between atoms: C_21  and  C_22 
REMARK    6  A    between atoms: C_22  and  C_23 
REMARK    7  A    between atoms: C_23  and  O_24 
REMARK    8  A    between atoms: O_24  and  C_25 
ROOT
HETATM    1  N   UNL     1       5.958  27.226  54.685  1.00  0.00    -0.220 N 
HETATM    2  N   UNL     1       6.808  26.305  54.066  1.00  0.00    -0.172 NA
HETATM    3  C   UNL     1       6.651  26.038  52.802  1.00  0.00     0.069 A 
HETATM    4  C   UNL     1       7.553  25.012  52.169  1.00  0.00     0.074 C 
HETATM    5  C   UNL     1       5.643  26.724  52.037  1.00  0.00     0.048 A 
HETATM    6  C   UNL     1       4.787  27.631  52.611  1.00  0.00     0.064 A 
HETATM    7  C   UNL     1       4.891  27.886  54.041  1.00  0.00     0.277 A 
HETATM    8  O   UNL     1       4.118  28.639  54.630  1.00  0.00    -0.266 OA
HETATM    9  S   UNL     1       5.391  26.531  50.378  1.00  0.00    -0.086 SA
HETATM   10  C   UNL     1       4.125  27.700  50.365  1.00  0.00     0.017 A 
HETATM   11  C   UNL     1       3.894  28.219  51.645  1.00  0.00    -0.002 A 
HETATM   12  C   UNL     1       3.385  28.127  49.246  1.00  0.00     0.020 A 
HETATM   13  C   UNL     1       2.396  29.097  49.417  1.00  0.00     0.001 A 
HETATM   14  C   UNL     1       2.143  29.629  50.672  1.00  0.00     0.001 A 
HETATM   15  C   UNL     1       2.878  29.199  51.782  1.00  0.00     0.014 A 
ENDROOT
BRANCH   1  16
HETATM   16  C   UNL     1       6.108  27.405  56.135  1.00  0.00     0.205 C 
BRANCH  16  17
HETATM   17  C   UNL     1       7.113  28.512  56.498  1.00  0.00     0.032 C 
HETATM   18  C   UNL     1       6.548  29.528  57.479  1.00  0.00     0.007 C 
ENDBRANCH  16  17
BRANCH  16  19
HETATM   19  C   UNL     1       6.523  26.054  56.755  1.00  0.00     0.242 C 
HETATM   20  N   UNL     1       7.892  25.859  56.826  1.00  0.00    -0.359 N 
HETATM   21  H   UNL     1       8.520  26.626  56.619  1.00  0.00     0.162 HD
HETATM   22  O   UNL     1       5.723  25.196  57.121  1.00  0.00    -0.271 OA
BRANCH  20  23
HETATM   23  C   UNL     1       8.471  24.652  57.381  1.00  0.00     0.125 C 
BRANCH  23  24
HETATM   24  C   UNL     1       9.103  23.754  56.319  1.00  0.00     0.046 C 
BRANCH  24  25
HETATM   25  C   UNL     1       8.081  22.933  55.537  1.00  0.00     0.169 C 
BRANCH  25  26
HETATM   26  O   UNL     1       8.696  22.402  54.367  1.00  0.00    -0.387 OA
BRANCH  26  27
HETATM   27  C   UNL     1       8.706  20.973  54.314  1.00  0.00     0.113 C 
HETATM   28  C   UNL     1       7.999  20.372  55.526  1.00  0.00     0.039 C 
HETATM   29  C   UNL     1       7.980  20.576  53.033  1.00  0.00     0.039 C 
ENDBRANCH  26  27
ENDBRANCH  25  26
ENDBRANCH  24  25
ENDBRANCH  23  24
ENDBRANCH  20  23
ENDBRANCH  16  19
ENDBRANCH   1  16
TORSDOF 8
ENDMDL
MODEL 6
REMARK VINA RESULT:      -7.7      2.827      3.785
REMARK  8 active torsions:
REMARK  status: ('A' for Active; 'I' for Inactive)
REMARK    1  A    between atoms: C_2  and  C_3 
REMARK    2  A    between atoms: C_3  and  N_4 
REMARK    3  A    between atoms: C_3  and  C_19 
REMARK       I    between atoms: C_19  and  N_20 
REMARK    4  A    between atoms: N_20  and  C_21 
REMARK    5  A    between atoms: C_21  and  C_22 
REMARK    6  A    between atoms: C_22  and  C_23 
REMARK    7  A    between atoms: C_23  and  O_24 
REMARK    8  A    between atoms: O_24  and  C_25 
ROOT
HETATM    1  N   UNL     1       6.258  26.486  54.437  1.00  0.00    -0.220 N 
HETATM    2  N   UNL     1       6.741  26.857  55.695  1.00  0.00    -0.172 NA
HETATM    3  C   UNL     1       7.413  25.994  56.402  1.00  0.00     0.069 A 
HETATM    4  C   UNL     1       7.887  26.404  57.771  1.00  0.00     0.074 C 
HETATM    5  C   UNL     1       7.699  24.688  55.870  1.00  0.00     0.048 A 
HETATM    6  C   UNL     1       7.237  24.287  54.641  1.00  0.00     0.064 A 
HETATM    7  C   UNL     1       6.415  25.206  53.866  1.00  0.00     0.277 A 
HETATM    8  O   UNL     1       5.919  24.890  52.786  1.00  0.00    -0.266 OA
HETATM    9  S   UNL     1       8.626  23.510  56.648  1.00  0.00    -0.086 SA
HETATM   10  C   UNL     1       8.465  22.414  55.327  1.00  0.00     0.017 A 
HETATM   11  C   UNL     1       7.682  22.959  54.302  1.00  0.00    -0.002 A 
HETATM   12  C   UNL     1       9.029  21.127  55.228  1.00  0.00     0.020 A 
HETATM   13  C   UNL     1       8.802  20.375  54.074  1.00  0.00     0.001 A 
HETATM   14  C   UNL     1       8.031  20.888  53.042  1.00  0.00     0.001 A 
HETATM   15  C   UNL     1       7.470  22.164  53.146  1.00  0.00     0.014 A 
ENDROOT
BRANCH   1  16
HETATM   16  C   UNL     1       5.413  27.459  53.732  1.00  0.00     0.205 C 
BRANCH  16  17
HETATM   17  C   UNL     1       6.148  28.159  52.576  1.00  0.00     0.032 C 
HETATM   18  C   UNL     1       5.398  28.070  51.256  1.00  0.00     0.007 C 
ENDBRANCH  16  17
BRANCH  16  19
HETATM   19  C   UNL     1       4.888  28.485  54.757  1.00  0.00     0.242 C 
HETATM   20  N   UNL     1       5.707  29.588  54.928  1.00  0.00    -0.359 N 
HETATM   21  H   UNL     1       6.489  29.735  54.301  1.00  0.00     0.162 HD
HETATM   22  O   UNL     1       3.856  28.334  55.408  1.00  0.00    -0.271 OA
BRANCH  20  23
HETATM   23  C   UNL     1       5.377  30.660  55.846  1.00  0.00     0.125 C 
BRANCH  23  24
HETATM   24  C   UNL     1       5.964  30.448  57.240  1.00  0.00     0.046 C 
BRANCH  24  25
HETATM   25  C   UNL     1       6.106  31.741  58.039  1.00  0.00     0.169 C 
BRANCH  25  26
HETATM   26  O   UNL     1       5.325  31.650  59.228  1.00  0.00    -0.387 OA
BRANCH  26  27
HETATM   27  C   UNL     1       5.000  32.916  59.807  1.00  0.00     0.113 C 
HETATM   28  C   UNL     1       4.476  33.886  58.751  1.00  0.00     0.039 C 
HETATM   29  C   UNL     1       3.926  32.656  60.858  1.00  0.00     0.039 C 
ENDBRANCH  26  27
ENDBRANCH  25  26
ENDBRANCH  24  25
ENDBRANCH  23  24
ENDBRANCH  20  23
ENDBRANCH  16  19
ENDBRANCH   1  16
TORSDOF 8
ENDMDL
MODEL 7
REMARK VINA RESULT:      -7.5      3.131      4.471
REMARK  8 active torsions:
REMARK  status: ('A' for Active; 'I' for Inactive)
REMARK    1  A    between atoms: C_2  and  C_3 
REMARK    2  A    between atoms: C_3  and  N_4 
REMARK    3  A    between atoms: C_3  and  C_19 
REMARK       I    between atoms: C_19  and  N_20 
REMARK    4  A    between atoms: N_20  and  C_21 
REMARK    5  A    between atoms: C_21  and  C_22 
REMARK    6  A    between atoms: C_22  and  C_23 
REMARK    7  A    between atoms: C_23  and  O_24 
REMARK    8  A    between atoms: O_24  and  C_25 
ROOT
HETATM    1  N   UNL     1       4.561  29.805  56.786  1.00  0.00    -0.220 N 
HETATM    2  N   UNL     1       3.957  30.557  55.774  1.00  0.00    -0.172 NA
HETATM    3  C   UNL     1       3.924  30.087  54.560  1.00  0.00     0.069 A 
HETATM    4  C   UNL     1       3.304  30.934  53.480  1.00  0.00     0.074 C 
HETATM    5  C   UNL     1       4.461  28.783  54.274  1.00  0.00     0.048 A 
HETATM    6  C   UNL     1       5.067  28.019  55.241  1.00  0.00     0.064 A 
HETATM    7  C   UNL     1       5.187  28.557  56.589  1.00  0.00     0.277 A 
HETATM    8  O   UNL     1       5.770  27.952  57.486  1.00  0.00    -0.266 OA
HETATM    9  S   UNL     1       4.409  28.026  52.765  1.00  0.00    -0.086 SA
HETATM   10  C   UNL     1       5.180  26.610  53.372  1.00  0.00     0.017 A 
HETATM   11  C   UNL     1       5.489  26.738  54.732  1.00  0.00    -0.002 A 
HETATM   12  C   UNL     1       5.483  25.440  52.649  1.00  0.00     0.020 A 
HETATM   13  C   UNL     1       6.105  24.378  53.307  1.00  0.00     0.001 A 
HETATM   14  C   UNL     1       6.423  24.476  54.653  1.00  0.00     0.001 A 
HETATM   15  C   UNL     1       6.125  25.640  55.367  1.00  0.00     0.014 A 
ENDROOT
BRANCH   1  16
HETATM   16  C   UNL     1       4.668  30.431  58.110  1.00  0.00     0.205 C 
BRANCH  16  17
HETATM   17  C   UNL     1       3.454  31.311  58.453  1.00  0.00     0.032 C 
HETATM   18  C   UNL     1       3.451  31.778  59.901  1.00  0.00     0.007 C 
ENDBRANCH  16  17
BRANCH  16  19
HETATM   19  C   UNL     1       5.977  31.248  58.162  1.00  0.00     0.242 C 
HETATM   20  N   UNL     1       7.020  30.608  58.807  1.00  0.00    -0.359 N 
HETATM   21  H   UNL     1       6.929  29.634  59.068  1.00  0.00     0.162 HD
HETATM   22  O   UNL     1       6.089  32.387  57.713  1.00  0.00    -0.271 OA
BRANCH  20  23
HETATM   23  C   UNL     1       8.328  31.217  58.951  1.00  0.00     0.125 C 
BRANCH  23  24
HETATM   24  C   UNL     1       9.122  30.646  60.125  1.00  0.00     0.046 C 
BRANCH  24  25
HETATM   25  C   UNL     1       8.784  31.306  61.460  1.00  0.00     0.169 C 
BRANCH  25  26
HETATM   26  O   UNL     1       7.383  31.197  61.700  1.00  0.00    -0.387 OA
BRANCH  26  27
HETATM   27  C   UNL     1       6.866  32.198  62.581  1.00  0.00     0.113 C 
HETATM   28  C   UNL     1       7.933  32.669  63.566  1.00  0.00     0.039 C 
HETATM   29  C   UNL     1       6.410  33.360  61.706  1.00  0.00     0.039 C 
ENDBRANCH  26  27
ENDBRANCH  25  26
ENDBRANCH  24  25
ENDBRANCH  23  24
ENDBRANCH  20  23
ENDBRANCH  16  19
ENDBRANCH   1  16
TORSDOF 8
ENDMDL
MODEL 8
REMARK VINA RESULT:      -7.4      3.896      5.903
REMARK  8 active torsions:
REMARK  status: ('A' for Active; 'I' for Inactive)
REMARK    1  A    between atoms: C_2  and  C_3 
REMARK    2  A    between atoms: C_3  and  N_4 
REMARK    3  A    between atoms: C_3  and  C_19 
REMARK       I    between atoms: C_19  and  N_20 
REMARK    4  A    between atoms: N_20  and  C_21 
REMARK    5  A    between atoms: C_21  and  C_22 
REMARK    6  A    between atoms: C_22  and  C_23 
REMARK    7  A    between atoms: C_23  and  O_24 
REMARK    8  A    between atoms: O_24  and  C_25 
ROOT
HETATM    1  N   UNL     1       5.277  30.598  57.424  1.00  0.00    -0.220 N 
HETATM    2  N   UNL     1       6.444  30.777  58.174  1.00  0.00    -0.172 NA
HETATM    3  C   UNL     1       7.347  29.840  58.185  1.00  0.00     0.069 A 
HETATM    4  C   UNL     1       8.575  30.040  59.033  1.00  0.00     0.074 C 
HETATM    5  C   UNL     1       7.170  28.653  57.392  1.00  0.00     0.048 A 
HETATM    6  C   UNL     1       6.036  28.440  56.647  1.00  0.00     0.064 A 
HETATM    7  C   UNL     1       4.975  29.437  56.682  1.00  0.00     0.277 A 
HETATM    8  O   UNL     1       3.909  29.282  56.088  1.00  0.00    -0.266 OA
HETATM    9  S   UNL     1       8.299  27.404  57.255  1.00  0.00    -0.086 SA
HETATM   10  C   UNL     1       7.304  26.535  56.148  1.00  0.00     0.017 A 
HETATM   11  C   UNL     1       6.099  27.206  55.906  1.00  0.00    -0.002 A 
HETATM   12  C   UNL     1       7.609  25.307  55.528  1.00  0.00     0.020 A 
HETATM   13  C   UNL     1       6.684  24.746  54.645  1.00  0.00     0.001 A 
HETATM   14  C   UNL     1       5.483  25.387  54.385  1.00  0.00     0.001 A 
HETATM   15  C   UNL     1       5.182  26.603  55.006  1.00  0.00     0.014 A 
ENDROOT
BRANCH   1  16
HETATM   16  C   UNL     1       4.244  31.636  57.536  1.00  0.00     0.205 C 
BRANCH  16  17
HETATM   17  C   UNL     1       4.698  32.992  56.970  1.00  0.00     0.032 C 
HETATM   18  C   UNL     1       4.714  33.024  55.449  1.00  0.00     0.007 C 
ENDBRANCH  16  17
BRANCH  16  19
HETATM   19  C   UNL     1       3.836  31.763  59.019  1.00  0.00     0.242 C 
HETATM   20  N   UNL     1       4.606  32.655  59.745  1.00  0.00    -0.359 N 
HETATM   21  H   UNL     1       5.263  33.258  59.265  1.00  0.00     0.162 HD
HETATM   22  O   UNL     1       2.937  31.105  59.539  1.00  0.00    -0.271 OA
BRANCH  20  23
HETATM   23  C   UNL     1       4.370  32.911  61.152  1.00  0.00     0.125 C 
BRANCH  23  24
HETATM   24  C   UNL     1       5.662  33.100  61.945  1.00  0.00     0.046 C 
BRANCH  24  25
HETATM   25  C   UNL     1       5.832  32.087  63.073  1.00  0.00     0.169 C 
BRANCH  25  26
HETATM   26  O   UNL     1       5.019  32.470  64.180  1.00  0.00    -0.387 OA
BRANCH  26  27
HETATM   27  C   UNL     1       5.470  33.651  64.849  1.00  0.00     0.113 C 
HETATM   28  C   UNL     1       4.701  33.874  66.149  1.00  0.00     0.039 C 
HETATM   29  C   UNL     1       6.952  33.449  65.146  1.00  0.00     0.039 C 
ENDBRANCH  26  27
ENDBRANCH  25  26
ENDBRANCH  24  25
ENDBRANCH  23  24
ENDBRANCH  20  23
ENDBRANCH  16  19
ENDBRANCH   1  16
TORSDOF 8
ENDMDL
MODEL 9
REMARK VINA RESULT:      -7.3      7.089     10.601
REMARK  8 active torsions:
REMARK  status: ('A' for Active; 'I' for Inactive)
REMARK    1  A    between atoms: C_2  and  C_3 
REMARK    2  A    between atoms: C_3  and  N_4 
REMARK    3  A    between atoms: C_3  and  C_19 
REMARK       I    between atoms: C_19  and  N_20 
REMARK    4  A    between atoms: N_20  and  C_21 
REMARK    5  A    between atoms: C_21  and  C_22 
REMARK    6  A    between atoms: C_22  and  C_23 
REMARK    7  A    between atoms: C_23  and  O_24 
REMARK    8  A    between atoms: O_24  and  C_25 
ROOT
HETATM    1  N   UNL     1       5.786  33.794  62.073  1.00  0.00    -0.220 N 
HETATM    2  N   UNL     1       7.073  33.331  62.366  1.00  0.00    -0.172 NA
HETATM    3  C   UNL     1       7.652  32.494  61.555  1.00  0.00     0.069 A 
HETATM    4  C   UNL     1       9.020  31.979  61.914  1.00  0.00     0.074 C 
HETATM    5  C   UNL     1       6.993  32.088  60.342  1.00  0.00     0.048 A 
HETATM    6  C   UNL     1       5.729  32.518  60.023  1.00  0.00     0.064 A 
HETATM    7  C   UNL     1       5.028  33.392  60.954  1.00  0.00     0.277 A 
HETATM    8  O   UNL     1       3.873  33.764  60.760  1.00  0.00    -0.266 OA
HETATM    9  S   UNL     1       7.666  31.076  59.169  1.00  0.00    -0.086 SA
HETATM   10  C   UNL     1       6.275  31.206  58.161  1.00  0.00     0.017 A 
HETATM   11  C   UNL     1       5.293  32.016  58.744  1.00  0.00    -0.002 A 
HETATM   12  C   UNL     1       6.090  30.605  56.900  1.00  0.00     0.020 A 
HETATM   13  C   UNL     1       4.895  30.827  56.212  1.00  0.00     0.001 A 
HETATM   14  C   UNL     1       3.904  31.624  56.765  1.00  0.00     0.001 A 
HETATM   15  C   UNL     1       4.090  32.215  58.018  1.00  0.00     0.014 A 
ENDROOT
BRANCH   1  16
HETATM   16  C   UNL     1       5.138  34.648  63.077  1.00  0.00     0.205 C 
BRANCH  16  17
HETATM   17  C   UNL     1       5.710  36.076  63.103  1.00  0.00     0.032 C 
HETATM   18  C   UNL     1       4.652  37.133  63.383  1.00  0.00     0.007 C 
ENDBRANCH  16  17
BRANCH  16  19
HETATM   19  C   UNL     1       5.273  33.971  64.457  1.00  0.00     0.242 C 
HETATM   20  N   UNL     1       6.225  34.547  65.281  1.00  0.00    -0.359 N 
HETATM   21  H   UNL     1       6.656  35.424  65.015  1.00  0.00     0.162 HD
HETATM   22  O   UNL     1       4.631  32.980  64.798  1.00  0.00    -0.271 OA
BRANCH  20  23
HETATM   23  C   UNL     1       6.491  34.051  66.616  1.00  0.00     0.125 C 
BRANCH  23  24
HETATM   24  C   UNL     1       5.692  34.785  67.692  1.00  0.00     0.046 C 
BRANCH  24  25
HETATM   25  C   UNL     1       5.749  34.103  69.056  1.00  0.00     0.169 C 
BRANCH  25  26
HETATM   26  O   UNL     1       6.449  34.940  69.974  1.00  0.00    -0.387 OA
BRANCH  26  27
HETATM   27  C   UNL     1       7.153  34.223  70.991  1.00  0.00     0.113 C 
HETATM   28  C   UNL     1       6.941  32.718  70.853  1.00  0.00     0.039 C 
HETATM   29  C   UNL     1       8.631  34.562  70.825  1.00  0.00     0.039 C 
ENDBRANCH  26  27
ENDBRANCH  25  26
ENDBRANCH  24  25
ENDBRANCH  23  24
ENDBRANCH  20  23
ENDBRANCH  16  19
ENDBRANCH   1  16
TORSDOF 8
ENDMDL
MODEL 10
REMARK VINA RESULT:      -7.3      5.547      9.862
REMARK  8 active torsions:
REMARK  status: ('A' for Active; 'I' for Inactive)
REMARK    1  A    between atoms: C_2  and  C_3 
REMARK    2  A    between atoms: C_3  and  N_4 
REMARK    3  A    between atoms: C_3  and  C_19 
REMARK       I    between atoms: C_19  and  N_20 
REMARK    4  A    between atoms: N_20  and  C_21 
REMARK    5  A    between atoms: C_21  and  C_22 
REMARK    6  A    between atoms: C_22  and  C_23 
REMARK    7  A    between atoms: C_23  and  O_24 
REMARK    8  A    between atoms: O_24  and  C_25 
ROOT
HETATM    1  N   UNL     1       4.130  33.331  58.998  1.00  0.00    -0.220 N 
HETATM    2  N   UNL     1       2.892  33.827  59.417  1.00  0.00    -0.172 NA
HETATM    3  C   UNL     1       2.689  34.054  60.682  1.00  0.00     0.069 A 
HETATM    4  C   UNL     1       1.333  34.548  61.113  1.00  0.00     0.074 C 
HETATM    5  C   UNL     1       3.747  33.843  61.635  1.00  0.00     0.048 A 
HETATM    6  C   UNL     1       4.974  33.353  61.261  1.00  0.00     0.064 A 
HETATM    7  C   UNL     1       5.199  33.016  59.862  1.00  0.00     0.277 A 
HETATM    8  O   UNL     1       6.252  32.516  59.470  1.00  0.00    -0.266 OA
HETATM    9  S   UNL     1       3.639  34.175  63.287  1.00  0.00    -0.086 SA
HETATM   10  C   UNL     1       5.272  33.695  63.559  1.00  0.00     0.017 A 
HETATM   11  C   UNL     1       5.884  33.265  62.375  1.00  0.00    -0.002 A 
HETATM   12  C   UNL     1       5.962  33.715  64.787  1.00  0.00     0.020 A 
HETATM   13  C   UNL     1       7.293  33.297  64.823  1.00  0.00     0.001 A 
HETATM   14  C   UNL     1       7.926  32.866  63.667  1.00  0.00     0.001 A 
HETATM   15  C   UNL     1       7.236  32.844  62.451  1.00  0.00     0.014 A 
ENDROOT
BRANCH   1  16
HETATM   16  C   UNL     1       4.267  32.989  57.576  1.00  0.00     0.205 C 
BRANCH  16  17
HETATM   17  C   UNL     1       3.234  33.705  56.689  1.00  0.00     0.032 C 
HETATM   18  C   UNL     1       3.855  34.770  55.798  1.00  0.00     0.007 C 
ENDBRANCH  16  17
BRANCH  16  19
HETATM   19  C   UNL     1       4.159  31.457  57.428  1.00  0.00     0.242 C 
HETATM   20  N   UNL     1       5.314  30.847  56.971  1.00  0.00    -0.359 N 
HETATM   21  H   UNL     1       6.171  31.382  56.902  1.00  0.00     0.162 HD
HETATM   22  O   UNL     1       3.131  30.820  57.650  1.00  0.00    -0.271 OA
BRANCH  20  23
HETATM   23  C   UNL     1       5.404  29.415  56.773  1.00  0.00     0.125 C 
BRANCH  23  24
HETATM   24  C   UNL     1       6.833  28.888  56.893  1.00  0.00     0.046 C 
BRANCH  24  25
HETATM   25  C   UNL     1       7.545  29.356  58.159  1.00  0.00     0.169 C 
BRANCH  25  26
HETATM   26  O   UNL     1       8.946  29.131  58.025  1.00  0.00    -0.387 OA
BRANCH  26  27
HETATM   27  C   UNL     1       9.672  30.265  57.544  1.00  0.00     0.113 C 
HETATM   28  C   UNL     1       9.734  31.367  58.598  1.00  0.00     0.039 C 
HETATM   29  C   UNL     1      11.078  29.778  57.211  1.00  0.00     0.039 C 
ENDBRANCH  26  27
ENDBRANCH  25  26
ENDBRANCH  24  25
ENDBRANCH  23  24
ENDBRANCH  20  23
ENDBRANCH  16  19
ENDBRANCH   1  16
TORSDOF 8
ENDMDL
