MODEL 1
REMARK VINA RESULT:      -9.3      0.000      0.000
REMARK  8 active torsions:
REMARK  status: ('A' for Active; 'I' for Inactive)
REMARK    1  A    between atoms: O_2  and  C_3 
REMARK    2  A    between atoms: C_4  and  N_5 
REMARK    3  A    between atoms: N_5  and  C_6 
REMARK    4  A    between atoms: C_6  and  N_7 
REMARK    5  A    between atoms: N_7  and  N_8 
REMARK       I    between atoms: N_8  and  C_9 
REMARK    6  A    between atoms: C_9  and  C_10 
REMARK    7  A    between atoms: N_13  and  C_15 
REMARK    8  A    between atoms: C_15  and  C_16 
ROOT
HETATM    1  N   UNL     1       5.553  29.087  57.686  1.00  0.00    -0.268 N 
HETATM    2  C   UNL     1       5.903  28.440  56.520  1.00  0.00     0.240 C 
HETATM    3  O   UNL     1       6.939  28.690  55.907  1.00  0.00    -0.271 OA
HETATM    4  H   UNL     1       4.861  28.736  58.340  1.00  0.00     0.190 HD
ENDROOT
BRANCH   1   5
HETATM    5  N   UNL     1       6.422  30.087  58.181  1.00  0.00    -0.274 N 
HETATM    6  H   UNL     1       7.410  29.893  58.012  1.00  0.00     0.189 HD
BRANCH   5   7
HETATM    7  C   UNL     1       6.104  31.428  58.065  1.00  0.00     0.191 C 
HETATM    8  S   UNL     1       5.056  32.094  56.937  1.00  0.00    -0.039 SA
BRANCH   7   9
HETATM    9  N   UNL     1       6.750  32.278  58.916  1.00  0.00    -0.330 N 
HETATM   10  H   UNL     1       6.707  33.262  58.659  1.00  0.00     0.168 HD
BRANCH   9  11
HETATM   11  C   UNL     1       7.423  32.051  60.137  1.00  0.00     0.068 A 
HETATM   12  C   UNL     1       8.832  32.140  60.121  1.00  0.00     0.095 A 
HETATM   13  C   UNL     1       9.548  31.990  61.312  1.00  0.00     0.039 A 
HETATM   14  C   UNL     1       8.873  31.757  62.511  1.00  0.00     0.003 A 
HETATM   15  C   UNL     1       7.483  31.681  62.529  1.00  0.00     0.002 A 
HETATM   16  C   UNL     1       6.758  31.831  61.346  1.00  0.00     0.032 A 
BRANCH  12  17
HETATM   17  O   UNL     1       9.397  32.382  58.891  1.00  0.00    -0.354 OA
HETATM   18  C   UNL     1      10.183  31.335  58.331  1.00  0.00     0.210 C 
ENDBRANCH  12  17
ENDBRANCH   9  11
ENDBRANCH   7   9
ENDBRANCH   5   7
ENDBRANCH   1   5
BRANCH   2  19
HETATM   19  C   UNL     1       4.917  27.380  56.016  1.00  0.00     0.082 C 
HETATM   20  C   UNL     1       4.914  26.183  56.980  1.00  0.00     0.042 C 
HETATM   21  C   UNL     1       6.259  25.457  56.981  1.00  0.00     0.236 C 
HETATM   22  N   UNL     1       6.613  25.008  55.578  1.00  0.00    -0.067 N 
HETATM   23  H   UNL     1       5.954  24.262  55.328  1.00  0.00     0.280 HD
HETATM   24  C   UNL     1       6.528  26.094  54.538  1.00  0.00     0.236 C 
HETATM   25  C   UNL     1       5.211  26.849  54.613  1.00  0.00     0.042 C 
BRANCH  22  26
HETATM   26  C   UNL     1       8.004  24.385  55.522  1.00  0.00     0.273 C 
BRANCH  26  27
HETATM   27  C   UNL     1       8.038  23.001  54.936  1.00  0.00    -0.033 A 
HETATM   28  C   UNL     1       8.128  22.810  53.550  1.00  0.00     0.009 A 
HETATM   29  C   UNL     1       8.157  21.519  53.019  1.00  0.00     0.001 A 
HETATM   30  C   UNL     1       8.091  20.413  53.865  1.00  0.00     0.000 A 
HETATM   31  C   UNL     1       8.001  20.593  55.242  1.00  0.00     0.001 A 
HETATM   32  C   UNL     1       7.974  21.879  55.778  1.00  0.00     0.009 A 
ENDBRANCH  26  27
ENDBRANCH  22  26
ENDBRANCH   2  19
TORSDOF 8
ENDMDL
MODEL 2
REMARK VINA RESULT:      -9.3      1.361      1.906
REMARK  8 active torsions:
REMARK  status: ('A' for Active; 'I' for Inactive)
REMARK    1  A    between atoms: O_2  and  C_3 
REMARK    2  A    between atoms: C_4  and  N_5 
REMARK    3  A    between atoms: N_5  and  C_6 
REMARK    4  A    between atoms: C_6  and  N_7 
REMARK    5  A    between atoms: N_7  and  N_8 
REMARK       I    between atoms: N_8  and  C_9 
REMARK    6  A    between atoms: C_9  and  C_10 
REMARK    7  A    between atoms: N_13  and  C_15 
REMARK    8  A    between atoms: C_15  and  C_16 
ROOT
HETATM    1  N   UNL     1       6.692  29.942  58.015  1.00  0.00    -0.268 N 
HETATM    2  C   UNL     1       6.848  29.679  56.671  1.00  0.00     0.240 C 
HETATM    3  O   UNL     1       5.957  29.874  55.847  1.00  0.00    -0.271 OA
HETATM    4  H   UNL     1       7.466  30.040  58.665  1.00  0.00     0.190 HD
ENDROOT
BRANCH   1   5
HETATM    5  N   UNL     1       5.445  30.445  58.455  1.00  0.00    -0.274 N 
HETATM    6  H   UNL     1       5.032  29.909  59.220  1.00  0.00     0.189 HD
BRANCH   5   7
HETATM    7  C   UNL     1       5.226  31.805  58.565  1.00  0.00     0.191 C 
HETATM    8  S   UNL     1       3.894  32.637  57.974  1.00  0.00    -0.039 SA
BRANCH   7   9
HETATM    9  N   UNL     1       6.217  32.531  59.163  1.00  0.00    -0.330 N 
HETATM   10  H   UNL     1       6.442  33.412  58.706  1.00  0.00     0.168 HD
BRANCH   9  11
HETATM   11  C   UNL     1       6.953  32.314  60.349  1.00  0.00     0.068 A 
HETATM   12  C   UNL     1       8.357  32.228  60.227  1.00  0.00     0.095 A 
HETATM   13  C   UNL     1       9.142  32.079  61.374  1.00  0.00     0.039 A 
HETATM   14  C   UNL     1       8.542  32.020  62.632  1.00  0.00     0.003 A 
HETATM   15  C   UNL     1       7.158  32.118  62.753  1.00  0.00     0.002 A 
HETATM   16  C   UNL     1       6.364  32.267  61.615  1.00  0.00     0.032 A 
BRANCH  12  17
HETATM   17  O   UNL     1       8.848  32.307  58.945  1.00  0.00    -0.354 OA
HETATM   18  C   UNL     1       9.955  31.468  58.631  1.00  0.00     0.210 C 
ENDBRANCH  12  17
ENDBRANCH   9  11
ENDBRANCH   7   9
ENDBRANCH   5   7
ENDBRANCH   1   5
BRANCH   2  19
HETATM   19  C   UNL     1       8.211  29.117  56.248  1.00  0.00     0.082 C 
HETATM   20  C   UNL     1       8.125  28.593  54.806  1.00  0.00     0.042 C 
HETATM   21  C   UNL     1       7.188  27.391  54.699  1.00  0.00     0.236 C 
HETATM   22  N   UNL     1       7.637  26.290  55.639  1.00  0.00    -0.067 N 
HETATM   23  H   UNL     1       8.520  25.922  55.267  1.00  0.00     0.280 HD
HETATM   24  C   UNL     1       7.863  26.739  57.059  1.00  0.00     0.236 C 
HETATM   25  C   UNL     1       8.735  27.982  57.128  1.00  0.00     0.042 C 
BRANCH  22  26
HETATM   26  C   UNL     1       6.657  25.121  55.646  1.00  0.00     0.273 C 
BRANCH  26  27
HETATM   27  C   UNL     1       7.145  23.901  54.917  1.00  0.00    -0.033 A 
HETATM   28  C   UNL     1       7.321  23.917  53.527  1.00  0.00     0.009 A 
HETATM   29  C   UNL     1       7.772  22.774  52.862  1.00  0.00     0.001 A 
HETATM   30  C   UNL     1       8.046  21.611  53.579  1.00  0.00     0.000 A 
HETATM   31  C   UNL     1       7.875  21.585  54.960  1.00  0.00     0.001 A 
HETATM   32  C   UNL     1       7.426  22.723  55.629  1.00  0.00     0.009 A 
ENDBRANCH  26  27
ENDBRANCH  22  26
ENDBRANCH   2  19
TORSDOF 8
ENDMDL
MODEL 3
REMARK VINA RESULT:      -9.1      1.360      1.831
REMARK  8 active torsions:
REMARK  status: ('A' for Active; 'I' for Inactive)
REMARK    1  A    between atoms: O_2  and  C_3 
REMARK    2  A    between atoms: C_4  and  N_5 
REMARK    3  A    between atoms: N_5  and  C_6 
REMARK    4  A    between atoms: C_6  and  N_7 
REMARK    5  A    between atoms: N_7  and  N_8 
REMARK       I    between atoms: N_8  and  C_9 
REMARK    6  A    between atoms: C_9  and  C_10 
REMARK    7  A    between atoms: N_13  and  C_15 
REMARK    8  A    between atoms: C_15  and  C_16 
ROOT
HETATM    1  N   UNL     1       6.168  29.016  56.474  1.00  0.00    -0.268 N 
HETATM    2  C   UNL     1       5.266  28.508  55.564  1.00  0.00     0.240 C 
HETATM    3  O   UNL     1       4.071  28.372  55.817  1.00  0.00    -0.271 OA
HETATM    4  H   UNL     1       7.082  29.378  56.221  1.00  0.00     0.190 HD
ENDROOT
BRANCH   1   5
HETATM    5  N   UNL     1       5.689  29.381  57.754  1.00  0.00    -0.274 N 
HETATM    6  H   UNL     1       6.099  28.840  58.517  1.00  0.00     0.189 HD
BRANCH   5   7
HETATM    7  C   UNL     1       5.477  30.708  58.082  1.00  0.00     0.191 C 
HETATM    8  S   UNL     1       4.004  31.510  58.028  1.00  0.00    -0.039 SA
BRANCH   7   9
HETATM    9  N   UNL     1       6.584  31.430  58.427  1.00  0.00    -0.330 N 
HETATM   10  H   UNL     1       6.911  32.084  57.718  1.00  0.00     0.168 HD
BRANCH   9  11
HETATM   11  C   UNL     1       7.332  31.485  59.623  1.00  0.00     0.068 A 
HETATM   12  C   UNL     1       8.367  30.537  59.779  1.00  0.00     0.095 A 
HETATM   13  C   UNL     1       9.183  30.585  60.912  1.00  0.00     0.039 A 
HETATM   14  C   UNL     1       8.979  31.567  61.883  1.00  0.00     0.003 A 
HETATM   15  C   UNL     1       7.966  32.509  61.723  1.00  0.00     0.002 A 
HETATM   16  C   UNL     1       7.146  32.472  60.595  1.00  0.00     0.032 A 
BRANCH  12  17
HETATM   17  O   UNL     1       8.490  29.621  58.762  1.00  0.00    -0.354 OA
HETATM   18  C   UNL     1       9.596  29.787  57.881  1.00  0.00     0.210 C 
ENDBRANCH  12  17
ENDBRANCH   9  11
ENDBRANCH   7   9
ENDBRANCH   5   7
ENDBRANCH   1   5
BRANCH   2  19
HETATM   19  C   UNL     1       5.839  28.109  54.199  1.00  0.00     0.082 C 
HETATM   20  C   UNL     1       5.091  26.876  53.669  1.00  0.00     0.042 C 
HETATM   21  C   UNL     1       5.342  25.647  54.541  1.00  0.00     0.236 C 
HETATM   22  N   UNL     1       6.828  25.366  54.636  1.00  0.00    -0.067 N 
HETATM   23  H   UNL     1       7.132  25.051  53.708  1.00  0.00     0.280 HD
HETATM   24  C   UNL     1       7.661  26.556  55.036  1.00  0.00     0.236 C 
HETATM   25  C   UNL     1       7.333  27.784  54.203  1.00  0.00     0.042 C 
BRANCH  22  26
HETATM   26  C   UNL     1       7.124  24.218  55.595  1.00  0.00     0.273 C 
BRANCH  26  27
HETATM   27  C   UNL     1       7.473  22.922  54.919  1.00  0.00    -0.033 A 
HETATM   28  C   UNL     1       7.646  21.747  55.664  1.00  0.00     0.009 A 
HETATM   29  C   UNL     1       7.974  20.550  55.023  1.00  0.00     0.001 A 
HETATM   30  C   UNL     1       8.134  20.520  53.639  1.00  0.00     0.000 A 
HETATM   31  C   UNL     1       7.965  21.681  52.891  1.00  0.00     0.001 A 
HETATM   32  C   UNL     1       7.637  22.878  53.525  1.00  0.00     0.009 A 
ENDBRANCH  26  27
ENDBRANCH  22  26
ENDBRANCH   2  19
TORSDOF 8
ENDMDL
MODEL 4
REMARK VINA RESULT:      -9.1      1.890      2.353
REMARK  8 active torsions:
REMARK  status: ('A' for Active; 'I' for Inactive)
REMARK    1  A    between atoms: O_2  and  C_3 
REMARK    2  A    between atoms: C_4  and  N_5 
REMARK    3  A    between atoms: N_5  and  C_6 
REMARK    4  A    between atoms: C_6  and  N_7 
REMARK    5  A    between atoms: N_7  and  N_8 
REMARK       I    between atoms: N_8  and  C_9 
REMARK    6  A    between atoms: C_9  and  C_10 
REMARK    7  A    between atoms: N_13  and  C_15 
REMARK    8  A    between atoms: C_15  and  C_16 
ROOT
HETATM    1  N   UNL     1       7.921  28.143  56.755  1.00  0.00    -0.268 N 
HETATM    2  C   UNL     1       7.269  27.065  57.315  1.00  0.00     0.240 C 
HETATM    3  O   UNL     1       7.696  26.470  58.303  1.00  0.00    -0.271 OA
HETATM    4  H   UNL     1       7.479  28.803  56.122  1.00  0.00     0.190 HD
ENDROOT
BRANCH   1   5
HETATM    5  N   UNL     1       9.136  28.566  57.342  1.00  0.00    -0.274 N 
HETATM    6  H   UNL     1       9.966  28.281  56.821  1.00  0.00     0.189 HD
BRANCH   5   7
HETATM    7  C   UNL     1       9.254  29.824  57.905  1.00  0.00     0.191 C 
HETATM    8  S   UNL     1      10.525  30.892  57.665  1.00  0.00    -0.039 SA
BRANCH   7   9
HETATM    9  N   UNL     1       8.268  30.192  58.774  1.00  0.00    -0.330 N 
HETATM   10  H   UNL     1       7.335  29.860  58.536  1.00  0.00     0.168 HD
BRANCH   9  11
HETATM   11  C   UNL     1       8.310  30.906  59.993  1.00  0.00     0.068 A 
HETATM   12  C   UNL     1       7.539  32.086  60.075  1.00  0.00     0.095 A 
HETATM   13  C   UNL     1       7.490  32.798  61.276  1.00  0.00     0.039 A 
HETATM   14  C   UNL     1       8.196  32.342  62.390  1.00  0.00     0.003 A 
HETATM   15  C   UNL     1       8.946  31.172  62.313  1.00  0.00     0.002 A 
HETATM   16  C   UNL     1       9.001  30.452  61.119  1.00  0.00     0.032 A 
BRANCH  12  17
HETATM   17  O   UNL     1       6.875  32.441  58.924  1.00  0.00    -0.354 OA
HETATM   18  C   UNL     1       5.452  32.430  58.977  1.00  0.00     0.210 C 
ENDBRANCH  12  17
ENDBRANCH   9  11
ENDBRANCH   7   9
ENDBRANCH   5   7
ENDBRANCH   1   5
BRANCH   2  19
HETATM   19  C   UNL     1       5.967  26.635  56.630  1.00  0.00     0.082 C 
HETATM   20  C   UNL     1       5.833  25.105  56.698  1.00  0.00     0.042 C 
HETATM   21  C   UNL     1       6.920  24.408  55.882  1.00  0.00     0.236 C 
HETATM   22  N   UNL     1       6.881  24.880  54.443  1.00  0.00    -0.067 N 
HETATM   23  H   UNL     1       6.017  24.510  54.031  1.00  0.00     0.280 HD
HETATM   24  C   UNL     1       6.889  26.378  54.281  1.00  0.00     0.236 C 
HETATM   25  C   UNL     1       5.849  27.050  55.163  1.00  0.00     0.042 C 
BRANCH  22  26
HETATM   26  C   UNL     1       8.028  24.294  53.627  1.00  0.00     0.273 C 
BRANCH  26  27
HETATM   27  C   UNL     1       8.264  22.828  53.857  1.00  0.00    -0.033 A 
HETATM   28  C   UNL     1       7.704  21.868  53.003  1.00  0.00     0.009 A 
HETATM   29  C   UNL     1       7.930  20.508  53.230  1.00  0.00     0.001 A 
HETATM   30  C   UNL     1       8.710  20.100  54.309  1.00  0.00     0.000 A 
HETATM   31  C   UNL     1       9.271  21.046  55.163  1.00  0.00     0.001 A 
HETATM   32  C   UNL     1       9.050  22.404  54.941  1.00  0.00     0.009 A 
ENDBRANCH  26  27
ENDBRANCH  22  26
ENDBRANCH   2  19
TORSDOF 8
ENDMDL
MODEL 5
REMARK VINA RESULT:      -9.0      1.657      2.872
REMARK  8 active torsions:
REMARK  status: ('A' for Active; 'I' for Inactive)
REMARK    1  A    between atoms: O_2  and  C_3 
REMARK    2  A    between atoms: C_4  and  N_5 
REMARK    3  A    between atoms: N_5  and  C_6 
REMARK    4  A    between atoms: C_6  and  N_7 
REMARK    5  A    between atoms: N_7  and  N_8 
REMARK       I    between atoms: N_8  and  C_9 
REMARK    6  A    between atoms: C_9  and  C_10 
REMARK    7  A    between atoms: N_13  and  C_15 
REMARK    8  A    between atoms: C_15  and  C_16 
ROOT
HETATM    1  N   UNL     1       5.931  28.003  55.682  1.00  0.00    -0.268 N 
HETATM    2  C   UNL     1       5.131  27.974  54.560  1.00  0.00     0.240 C 
HETATM    3  O   UNL     1       3.966  28.367  54.564  1.00  0.00    -0.271 OA
HETATM    4  H   UNL     1       6.944  27.935  55.655  1.00  0.00     0.190 HD
ENDROOT
BRANCH   1   5
HETATM    5  N   UNL     1       5.375  28.496  56.885  1.00  0.00    -0.274 N 
HETATM    6  H   UNL     1       5.233  27.779  57.597  1.00  0.00     0.189 HD
BRANCH   5   7
HETATM    7  C   UNL     1       5.779  29.710  57.411  1.00  0.00     0.191 C 
HETATM    8  S   UNL     1       5.053  31.195  57.124  1.00  0.00    -0.039 SA
BRANCH   7   9
HETATM    9  N   UNL     1       6.903  29.689  58.186  1.00  0.00    -0.330 N 
HETATM   10  H   UNL     1       6.752  29.435  59.160  1.00  0.00     0.168 HD
BRANCH   9  11
HETATM   11  C   UNL     1       8.264  29.896  57.870  1.00  0.00     0.068 A 
HETATM   12  C   UNL     1       8.881  31.049  58.402  1.00  0.00     0.095 A 
HETATM   13  C   UNL     1      10.241  31.272  58.177  1.00  0.00     0.039 A 
HETATM   14  C   UNL     1      10.988  30.357  57.434  1.00  0.00     0.003 A 
HETATM   15  C   UNL     1      10.384  29.213  56.919  1.00  0.00     0.002 A 
HETATM   16  C   UNL     1       9.026  28.980  57.139  1.00  0.00     0.032 A 
BRANCH  12  17
HETATM   17  O   UNL     1       8.058  31.880  59.127  1.00  0.00    -0.354 OA
HETATM   18  C   UNL     1       8.623  32.486  60.285  1.00  0.00     0.210 C 
ENDBRANCH  12  17
ENDBRANCH   9  11
ENDBRANCH   7   9
ENDBRANCH   5   7
ENDBRANCH   1   5
BRANCH   2  19
HETATM   19  C   UNL     1       5.775  27.412  53.288  1.00  0.00     0.082 C 
HETATM   20  C   UNL     1       5.047  26.125  52.869  1.00  0.00     0.042 C 
HETATM   21  C   UNL     1       5.240  25.010  53.896  1.00  0.00     0.236 C 
HETATM   22  N   UNL     1       6.716  24.740  54.107  1.00  0.00    -0.067 N 
HETATM   23  H   UNL     1       7.068  24.314  53.242  1.00  0.00     0.280 HD
HETATM   24  C   UNL     1       7.535  25.969  54.407  1.00  0.00     0.236 C 
HETATM   25  C   UNL     1       7.264  27.087  53.414  1.00  0.00     0.042 C 
BRANCH  22  26
HETATM   26  C   UNL     1       6.949  23.716  55.213  1.00  0.00     0.273 C 
BRANCH  26  27
HETATM   27  C   UNL     1       7.558  22.425  54.742  1.00  0.00    -0.033 A 
HETATM   28  C   UNL     1       7.779  22.191  53.378  1.00  0.00     0.009 A 
HETATM   29  C   UNL     1       8.343  20.986  52.954  1.00  0.00     0.001 A 
HETATM   30  C   UNL     1       8.685  20.008  53.886  1.00  0.00     0.000 A 
HETATM   31  C   UNL     1       8.469  20.231  55.243  1.00  0.00     0.001 A 
HETATM   32  C   UNL     1       7.908  21.433  55.672  1.00  0.00     0.009 A 
ENDBRANCH  26  27
ENDBRANCH  22  26
ENDBRANCH   2  19
TORSDOF 8
ENDMDL
MODEL 6
REMARK VINA RESULT:      -9.0      2.223      3.161
REMARK  8 active torsions:
REMARK  status: ('A' for Active; 'I' for Inactive)
REMARK    1  A    between atoms: O_2  and  C_3 
REMARK    2  A    between atoms: C_4  and  N_5 
REMARK    3  A    between atoms: N_5  and  C_6 
REMARK    4  A    between atoms: C_6  and  N_7 
REMARK    5  A    between atoms: N_7  and  N_8 
REMARK       I    between atoms: N_8  and  C_9 
REMARK    6  A    between atoms: C_9  and  C_10 
REMARK    7  A    between atoms: N_13  and  C_15 
REMARK    8  A    between atoms: C_15  and  C_16 
ROOT
HETATM    1  N   UNL     1       7.260  29.867  58.506  1.00  0.00    -0.268 N 
HETATM    2  C   UNL     1       7.728  29.064  57.487  1.00  0.00     0.240 C 
HETATM    3  O   UNL     1       8.728  28.359  57.602  1.00  0.00    -0.271 OA
HETATM    4  H   UNL     1       6.319  30.247  58.538  1.00  0.00     0.190 HD
ENDROOT
BRANCH   1   5
HETATM    5  N   UNL     1       7.977  29.882  59.725  1.00  0.00    -0.274 N 
HETATM    6  H   UNL     1       8.836  29.331  59.705  1.00  0.00     0.189 HD
BRANCH   5   7
HETATM    7  C   UNL     1       8.094  31.043  60.466  1.00  0.00     0.191 C 
HETATM    8  S   UNL     1       9.178  32.290  60.173  1.00  0.00    -0.039 SA
BRANCH   7   9
HETATM    9  N   UNL     1       7.287  31.145  61.563  1.00  0.00    -0.330 N 
HETATM   10  H   UNL     1       6.781  30.296  61.807  1.00  0.00     0.168 HD
BRANCH   9  11
HETATM   11  C   UNL     1       7.068  32.205  62.471  1.00  0.00     0.068 A 
HETATM   12  C   UNL     1       5.918  32.998  62.269  1.00  0.00     0.095 A 
HETATM   13  C   UNL     1       5.615  34.019  63.174  1.00  0.00     0.039 A 
HETATM   14  C   UNL     1       6.442  34.250  64.273  1.00  0.00     0.003 A 
HETATM   15  C   UNL     1       7.570  33.460  64.480  1.00  0.00     0.002 A 
HETATM   16  C   UNL     1       7.882  32.437  63.584  1.00  0.00     0.032 A 
BRANCH  12  17
HETATM   17  O   UNL     1       5.166  32.681  61.162  1.00  0.00    -0.354 OA
HETATM   18  C   UNL     1       3.826  32.260  61.399  1.00  0.00     0.210 C 
ENDBRANCH  12  17
ENDBRANCH   9  11
ENDBRANCH   7   9
ENDBRANCH   5   7
ENDBRANCH   1   5
BRANCH   2  19
HETATM   19  C   UNL     1       6.927  29.098  56.181  1.00  0.00     0.082 C 
HETATM   20  C   UNL     1       5.496  28.601  56.443  1.00  0.00     0.042 C 
HETATM   21  C   UNL     1       5.478  27.126  56.841  1.00  0.00     0.236 C 
HETATM   22  N   UNL     1       6.145  26.285  55.771  1.00  0.00    -0.067 N 
HETATM   23  H   UNL     1       5.530  26.305  54.949  1.00  0.00     0.280 HD
HETATM   24  C   UNL     1       7.511  26.770  55.362  1.00  0.00     0.236 C 
HETATM   25  C   UNL     1       7.514  28.257  55.047  1.00  0.00     0.042 C 
BRANCH  22  26
HETATM   26  C   UNL     1       6.250  24.822  56.190  1.00  0.00     0.273 C 
BRANCH  26  27
HETATM   27  C   UNL     1       7.065  23.970  55.258  1.00  0.00    -0.033 A 
HETATM   28  C   UNL     1       8.180  23.260  55.725  1.00  0.00     0.009 A 
HETATM   29  C   UNL     1       8.931  22.474  54.848  1.00  0.00     0.001 A 
HETATM   30  C   UNL     1       8.577  22.395  53.503  1.00  0.00     0.000 A 
HETATM   31  C   UNL     1       7.472  23.096  53.030  1.00  0.00     0.001 A 
HETATM   32  C   UNL     1       6.718  23.881  53.900  1.00  0.00     0.009 A 
ENDBRANCH  26  27
ENDBRANCH  22  26
ENDBRANCH   2  19
TORSDOF 8
ENDMDL
MODEL 7
REMARK VINA RESULT:      -8.9      2.600      4.281
REMARK  8 active torsions:
REMARK  status: ('A' for Active; 'I' for Inactive)
REMARK    1  A    between atoms: O_2  and  C_3 
REMARK    2  A    between atoms: C_4  and  N_5 
REMARK    3  A    between atoms: N_5  and  C_6 
REMARK    4  A    between atoms: C_6  and  N_7 
REMARK    5  A    between atoms: N_7  and  N_8 
REMARK       I    between atoms: N_8  and  C_9 
REMARK    6  A    between atoms: C_9  and  C_10 
REMARK    7  A    between atoms: N_13  and  C_15 
REMARK    8  A    between atoms: C_15  and  C_16 
ROOT
HETATM    1  N   UNL     1       4.348  27.825  54.182  1.00  0.00    -0.268 N 
HETATM    2  C   UNL     1       5.122  27.496  53.090  1.00  0.00     0.240 C 
HETATM    3  O   UNL     1       6.119  28.136  52.765  1.00  0.00    -0.271 OA
HETATM    4  H   UNL     1       3.692  27.187  54.623  1.00  0.00     0.190 HD
ENDROOT
BRANCH   1   5
HETATM    5  N   UNL     1       4.719  28.957  54.946  1.00  0.00    -0.274 N 
HETATM    6  H   UNL     1       4.755  29.823  54.407  1.00  0.00     0.189 HD
BRANCH   5   7
HETATM    7  C   UNL     1       4.239  29.137  56.230  1.00  0.00     0.191 C 
HETATM    8  S   UNL     1       3.205  30.359  56.730  1.00  0.00    -0.039 SA
BRANCH   7   9
HETATM    9  N   UNL     1       4.700  28.266  57.175  1.00  0.00    -0.330 N 
HETATM   10  H   UNL     1       4.174  28.255  58.047  1.00  0.00     0.168 HD
BRANCH   9  11
HETATM   11  C   UNL     1       5.748  27.318  57.146  1.00  0.00     0.068 A 
HETATM   12  C   UNL     1       7.066  27.814  57.249  1.00  0.00     0.095 A 
HETATM   13  C   UNL     1       8.139  26.920  57.291  1.00  0.00     0.039 A 
HETATM   14  C   UNL     1       7.909  25.545  57.237  1.00  0.00     0.003 A 
HETATM   15  C   UNL     1       6.608  25.055  57.149  1.00  0.00     0.002 A 
HETATM   16  C   UNL     1       5.529  25.939  57.107  1.00  0.00     0.032 A 
BRANCH  12  17
HETATM   17  O   UNL     1       7.182  29.183  57.305  1.00  0.00    -0.354 OA
HETATM   18  C   UNL     1       7.836  29.722  58.450  1.00  0.00     0.210 C 
ENDBRANCH  12  17
ENDBRANCH   9  11
ENDBRANCH   7   9
ENDBRANCH   5   7
ENDBRANCH   1   5
BRANCH   2  19
HETATM   19  C   UNL     1       4.666  26.273  52.286  1.00  0.00     0.082 C 
HETATM   20  C   UNL     1       4.526  25.065  53.225  1.00  0.00     0.042 C 
HETATM   21  C   UNL     1       5.876  24.638  53.799  1.00  0.00     0.236 C 
HETATM   22  N   UNL     1       6.849  24.330  52.679  1.00  0.00    -0.067 N 
HETATM   23  H   UNL     1       6.516  23.473  52.222  1.00  0.00     0.280 HD
HETATM   24  C   UNL     1       6.964  25.415  51.640  1.00  0.00     0.236 C 
HETATM   25  C   UNL     1       5.601  25.873  51.145  1.00  0.00     0.042 C 
BRANCH  22  26
HETATM   26  C   UNL     1       8.242  24.016  53.214  1.00  0.00     0.273 C 
BRANCH  26  27
HETATM   27  C   UNL     1       8.370  22.659  53.845  1.00  0.00    -0.033 A 
HETATM   28  C   UNL     1       8.150  21.494  53.096  1.00  0.00     0.009 A 
HETATM   29  C   UNL     1       8.270  20.239  53.697  1.00  0.00     0.001 A 
HETATM   30  C   UNL     1       8.606  20.138  55.045  1.00  0.00     0.000 A 
HETATM   31  C   UNL     1       8.826  21.288  55.797  1.00  0.00     0.001 A 
HETATM   32  C   UNL     1       8.709  22.544  55.203  1.00  0.00     0.009 A 
ENDBRANCH  26  27
ENDBRANCH  22  26
ENDBRANCH   2  19
TORSDOF 8
ENDMDL
MODEL 8
REMARK VINA RESULT:      -8.6      5.032      8.348
REMARK  8 active torsions:
REMARK  status: ('A' for Active; 'I' for Inactive)
REMARK    1  A    between atoms: O_2  and  C_3 
REMARK    2  A    between atoms: C_4  and  N_5 
REMARK    3  A    between atoms: N_5  and  C_6 
REMARK    4  A    between atoms: C_6  and  N_7 
REMARK    5  A    between atoms: N_7  and  N_8 
REMARK       I    between atoms: N_8  and  C_9 
REMARK    6  A    between atoms: C_9  and  C_10 
REMARK    7  A    between atoms: N_13  and  C_15 
REMARK    8  A    between atoms: C_15  and  C_16 
ROOT
HETATM    1  N   UNL     1       5.905  28.882  52.571  1.00  0.00    -0.268 N 
HETATM    2  C   UNL     1       5.418  28.240  53.689  1.00  0.00     0.240 C 
HETATM    3  O   UNL     1       4.229  27.960  53.830  1.00  0.00    -0.271 OA
HETATM    4  H   UNL     1       6.886  28.893  52.308  1.00  0.00     0.190 HD
ENDROOT
BRANCH   1   5
HETATM    5  N   UNL     1       4.988  29.240  51.555  1.00  0.00    -0.274 N 
HETATM    6  H   UNL     1       4.134  29.676  51.907  1.00  0.00     0.189 HD
BRANCH   5   7
HETATM    7  C   UNL     1       5.424  29.787  50.362  1.00  0.00     0.191 C 
HETATM    8  S   UNL     1       5.716  31.414  50.076  1.00  0.00    -0.039 SA
BRANCH   7   9
HETATM    9  N   UNL     1       5.575  28.919  49.319  1.00  0.00    -0.330 N 
HETATM   10  H   UNL     1       6.524  28.836  48.959  1.00  0.00     0.168 HD
BRANCH   9  11
HETATM   11  C   UNL     1       4.659  28.056  48.677  1.00  0.00     0.068 A 
HETATM   12  C   UNL     1       4.520  26.755  49.207  1.00  0.00     0.095 A 
HETATM   13  C   UNL     1       3.582  25.879  48.655  1.00  0.00     0.039 A 
HETATM   14  C   UNL     1       2.783  26.290  47.587  1.00  0.00     0.003 A 
HETATM   15  C   UNL     1       2.911  27.578  47.072  1.00  0.00     0.002 A 
HETATM   16  C   UNL     1       3.843  28.461  47.616  1.00  0.00     0.032 A 
BRANCH  12  17
HETATM   17  O   UNL     1       5.348  26.454  50.264  1.00  0.00    -0.354 OA
HETATM   18  C   UNL     1       4.840  25.543  51.234  1.00  0.00     0.210 C 
ENDBRANCH  12  17
ENDBRANCH   9  11
ENDBRANCH   7   9
ENDBRANCH   5   7
ENDBRANCH   1   5
BRANCH   2  19
HETATM   19  C   UNL     1       6.450  27.891  54.768  1.00  0.00     0.082 C 
HETATM   20  C   UNL     1       7.775  27.491  54.100  1.00  0.00     0.042 C 
HETATM   21  C   UNL     1       7.633  26.196  53.301  1.00  0.00     0.236 C 
HETATM   22  N   UNL     1       7.131  25.080  54.195  1.00  0.00    -0.067 N 
HETATM   23  H   UNL     1       7.888  24.859  54.851  1.00  0.00     0.280 HD
HETATM   24  C   UNL     1       5.895  25.426  54.984  1.00  0.00     0.236 C 
HETATM   25  C   UNL     1       6.037  26.756  55.706  1.00  0.00     0.042 C 
BRANCH  22  26
HETATM   26  C   UNL     1       6.864  23.803  53.405  1.00  0.00     0.273 C 
BRANCH  26  27
HETATM   27  C   UNL     1       7.519  22.576  53.974  1.00  0.00    -0.033 A 
HETATM   28  C   UNL     1       7.646  22.407  55.360  1.00  0.00     0.009 A 
HETATM   29  C   UNL     1       8.259  21.263  55.875  1.00  0.00     0.001 A 
HETATM   30  C   UNL     1       8.751  20.285  55.014  1.00  0.00     0.000 A 
HETATM   31  C   UNL     1       8.630  20.444  53.637  1.00  0.00     0.001 A 
HETATM   32  C   UNL     1       8.018  21.583  53.116  1.00  0.00     0.009 A 
ENDBRANCH  26  27
ENDBRANCH  22  26
ENDBRANCH   2  19
TORSDOF 8
ENDMDL
MODEL 9
REMARK VINA RESULT:      -8.6      5.697      9.532
REMARK  8 active torsions:
REMARK  status: ('A' for Active; 'I' for Inactive)
REMARK    1  A    between atoms: O_2  and  C_3 
REMARK    2  A    between atoms: C_4  and  N_5 
REMARK    3  A    between atoms: N_5  and  C_6 
REMARK    4  A    between atoms: C_6  and  N_7 
REMARK    5  A    between atoms: N_7  and  N_8 
REMARK       I    between atoms: N_8  and  C_9 
REMARK    6  A    between atoms: C_9  and  C_10 
REMARK    7  A    between atoms: N_13  and  C_15 
REMARK    8  A    between atoms: C_15  and  C_16 
ROOT
HETATM    1  N   UNL     1       5.057  27.153  50.597  1.00  0.00    -0.268 N 
HETATM    2  C   UNL     1       5.322  27.578  51.881  1.00  0.00     0.240 C 
HETATM    3  O   UNL     1       6.093  28.503  52.129  1.00  0.00    -0.271 OA
HETATM    4  H   UNL     1       4.252  26.587  50.344  1.00  0.00     0.190 HD
ENDROOT
BRANCH   1   5
HETATM    5  N   UNL     1       5.715  27.807  49.529  1.00  0.00    -0.274 N 
HETATM    6  H   UNL     1       6.255  27.179  48.933  1.00  0.00     0.189 HD
BRANCH   5   7
HETATM    7  C   UNL     1       5.093  28.822  48.826  1.00  0.00     0.191 C 
HETATM    8  S   UNL     1       4.907  30.406  49.346  1.00  0.00    -0.039 SA
BRANCH   7   9
HETATM    9  N   UNL     1       4.538  28.475  47.627  1.00  0.00    -0.330 N 
HETATM   10  H   UNL     1       5.204  28.283  46.882  1.00  0.00     0.168 HD
BRANCH   9  11
HETATM   11  C   UNL     1       3.195  28.270  47.239  1.00  0.00     0.068 A 
HETATM   12  C   UNL     1       2.709  26.945  47.279  1.00  0.00     0.095 A 
HETATM   13  C   UNL     1       1.371  26.690  46.970  1.00  0.00     0.039 A 
HETATM   14  C   UNL     1       0.518  27.740  46.627  1.00  0.00     0.003 A 
HETATM   15  C   UNL     1       0.993  29.048  46.601  1.00  0.00     0.002 A 
HETATM   16  C   UNL     1       2.328  29.315  46.909  1.00  0.00     0.032 A 
BRANCH  12  17
HETATM   17  O   UNL     1       3.628  25.987  47.637  1.00  0.00    -0.354 OA
HETATM   18  C   UNL     1       3.110  24.721  48.034  1.00  0.00     0.210 C 
ENDBRANCH  12  17
ENDBRANCH   9  11
ENDBRANCH   7   9
ENDBRANCH   5   7
ENDBRANCH   1   5
BRANCH   2  19
HETATM   19  C   UNL     1       4.599  26.824  53.003  1.00  0.00     0.082 C 
HETATM   20  C   UNL     1       5.333  27.055  54.333  1.00  0.00     0.042 C 
HETATM   21  C   UNL     1       6.730  26.435  54.320  1.00  0.00     0.236 C 
HETATM   22  N   UNL     1       6.643  24.954  54.012  1.00  0.00    -0.067 N 
HETATM   23  H   UNL     1       6.204  24.505  54.824  1.00  0.00     0.280 HD
HETATM   24  C   UNL     1       5.837  24.621  52.784  1.00  0.00     0.236 C 
HETATM   25  C   UNL     1       4.484  25.314  52.788  1.00  0.00     0.042 C 
BRANCH  22  26
HETATM   26  C   UNL     1       8.026  24.326  53.873  1.00  0.00     0.273 C 
BRANCH  26  27
HETATM   27  C   UNL     1       8.078  22.863  54.215  1.00  0.00    -0.033 A 
HETATM   28  C   UNL     1       7.930  22.429  55.539  1.00  0.00     0.009 A 
HETATM   29  C   UNL     1       7.983  21.067  55.843  1.00  0.00     0.001 A 
HETATM   30  C   UNL     1       8.188  20.133  54.830  1.00  0.00     0.000 A 
HETATM   31  C   UNL     1       8.337  20.554  53.512  1.00  0.00     0.001 A 
HETATM   32  C   UNL     1       8.284  21.912  53.202  1.00  0.00     0.009 A 
ENDBRANCH  26  27
ENDBRANCH  22  26
ENDBRANCH   2  19
TORSDOF 8
ENDMDL
MODEL 10
REMARK VINA RESULT:      -8.5      2.433      3.459
REMARK  8 active torsions:
REMARK  status: ('A' for Active; 'I' for Inactive)
REMARK    1  A    between atoms: O_2  and  C_3 
REMARK    2  A    between atoms: C_4  and  N_5 
REMARK    3  A    between atoms: N_5  and  C_6 
REMARK    4  A    between atoms: C_6  and  N_7 
REMARK    5  A    between atoms: N_7  and  N_8 
REMARK       I    between atoms: N_8  and  C_9 
REMARK    6  A    between atoms: C_9  and  C_10 
REMARK    7  A    between atoms: N_13  and  C_15 
REMARK    8  A    between atoms: C_15  and  C_16 
ROOT
HETATM    1  N   UNL     1       4.665  28.011  54.171  1.00  0.00    -0.268 N 
HETATM    2  C   UNL     1       5.428  27.634  53.087  1.00  0.00     0.240 C 
HETATM    3  O   UNL     1       6.391  28.288  52.692  1.00  0.00    -0.271 OA
HETATM    4  H   UNL     1       4.046  27.381  54.672  1.00  0.00     0.190 HD
ENDROOT
BRANCH   1   5
HETATM    5  N   UNL     1       5.006  29.208  54.843  1.00  0.00    -0.274 N 
HETATM    6  H   UNL     1       4.836  30.051  54.293  1.00  0.00     0.189 HD
BRANCH   5   7
HETATM    7  C   UNL     1       4.732  29.373  56.188  1.00  0.00     0.191 C 
HETATM    8  S   UNL     1       3.425  30.207  56.829  1.00  0.00    -0.039 SA
BRANCH   7   9
HETATM    9  N   UNL     1       5.644  28.850  57.059  1.00  0.00    -0.330 N 
HETATM   10  H   UNL     1       5.409  27.933  57.433  1.00  0.00     0.168 HD
BRANCH   9  11
HETATM   11  C   UNL     1       6.902  29.324  57.497  1.00  0.00     0.068 A 
HETATM   12  C   UNL     1       8.038  28.575  57.121  1.00  0.00     0.095 A 
HETATM   13  C   UNL     1       9.312  29.031  57.469  1.00  0.00     0.039 A 
HETATM   14  C   UNL     1       9.461  30.222  58.180  1.00  0.00     0.003 A 
HETATM   15  C   UNL     1       8.341  30.967  58.540  1.00  0.00     0.002 A 
HETATM   16  C   UNL     1       7.064  30.523  58.197  1.00  0.00     0.032 A 
BRANCH  12  17
HETATM   17  O   UNL     1       7.782  27.424  56.414  1.00  0.00    -0.354 OA
HETATM   18  C   UNL     1       7.985  26.193  57.101  1.00  0.00     0.210 C 
ENDBRANCH  12  17
ENDBRANCH   9  11
ENDBRANCH   7   9
ENDBRANCH   5   7
ENDBRANCH   1   5
BRANCH   2  19
HETATM   19  C   UNL     1       5.005  26.339  52.383  1.00  0.00     0.082 C 
HETATM   20  C   UNL     1       4.649  25.277  53.435  1.00  0.00     0.042 C 
HETATM   21  C   UNL     1       5.872  24.862  54.253  1.00  0.00     0.236 C 
HETATM   22  N   UNL     1       6.968  24.357  53.337  1.00  0.00    -0.067 N 
HETATM   23  H   UNL     1       6.644  23.464  52.948  1.00  0.00     0.280 HD
HETATM   24  C   UNL     1       7.305  25.285  52.199  1.00  0.00     0.236 C 
HETATM   25  C   UNL     1       6.061  25.741  51.453  1.00  0.00     0.042 C 
BRANCH  22  26
HETATM   26  C   UNL     1       8.247  24.046  54.109  1.00  0.00     0.273 C 
BRANCH  26  27
HETATM   27  C   UNL     1       8.308  22.653  54.668  1.00  0.00    -0.033 A 
HETATM   28  C   UNL     1       8.340  21.539  53.818  1.00  0.00     0.009 A 
HETATM   29  C   UNL     1       8.395  20.249  54.351  1.00  0.00     0.001 A 
HETATM   30  C   UNL     1       8.414  20.063  55.732  1.00  0.00     0.000 A 
HETATM   31  C   UNL     1       8.382  21.163  56.584  1.00  0.00     0.001 A 
HETATM   32  C   UNL     1       8.329  22.453  56.058  1.00  0.00     0.009 A 
ENDBRANCH  26  27
ENDBRANCH  22  26
ENDBRANCH   2  19
TORSDOF 8
ENDMDL
