MODEL 1
REMARK VINA RESULT:      -9.9      0.000      0.000
REMARK  6 active torsions:
REMARK  status: ('A' for Active; 'I' for Inactive)
REMARK    1  A    between atoms: C_9  and  C_10 
REMARK    2  A    between atoms: C_10  and  N_11 
REMARK       I    between atoms: N_11  and  C_12 
REMARK    3  A    between atoms: N_11  and  C_22 
REMARK    4  A    between atoms: C_12  and  C_13 
REMARK    5  A    between atoms: C_15  and  O_16 
REMARK    6  A    between atoms: C_22  and  C_23 
ROOT
HETATM    1  N   UNL     1       6.852  27.942  56.415  1.00  0.00    -0.341 N 
HETATM    2  C   UNL     1       7.773  27.948  57.471  1.00  0.00     0.254 C 
HETATM    3  O   UNL     1       7.894  27.010  58.259  1.00  0.00    -0.267 OA
ENDROOT
BRANCH   1   4
HETATM    4  C   UNL     1       5.882  26.836  56.410  1.00  0.00     0.170 C 
BRANCH   4   5
HETATM    5  C   UNL     1       6.357  25.614  55.666  1.00  0.00     0.029 A 
HETATM    6  C   UNL     1       6.117  25.696  54.188  1.00  0.00     0.253 A 
HETATM    7  N   UNL     1       6.479  24.619  53.429  1.00  0.00    -0.322 N 
HETATM    8  O   UNL     1       5.626  26.694  53.666  1.00  0.00    -0.268 OA
HETATM    9  C   UNL     1       7.065  23.464  53.951  1.00  0.00     0.045 A 
HETATM   10  H   UNL     1       6.295  24.698  52.439  1.00  0.00     0.169 HD
HETATM   11  C   UNL     1       7.312  23.385  55.325  1.00  0.00    -0.008 A 
HETATM   12  C   UNL     1       7.399  22.410  53.103  1.00  0.00     0.031 A 
HETATM   13  C   UNL     1       7.898  22.228  55.850  1.00  0.00     0.020 A 
HETATM   14  C   UNL     1       6.939  24.514  56.180  1.00  0.00     0.028 A 
HETATM   15  C   UNL     1       8.225  21.153  55.009  1.00  0.00    -0.061 A 
HETATM   16  C   UNL     1       8.878  19.920  55.563  1.00  0.00     0.048 C 
HETATM   17  C   UNL     1       7.982  21.258  53.632  1.00  0.00     0.009 A 
ENDBRANCH   4   5
ENDBRANCH   1   4
BRANCH   1  18
HETATM   18  C   UNL     1       6.476  29.130  55.628  1.00  0.00     0.158 C 
BRANCH  18  19
HETATM   19  C   UNL     1       5.036  29.617  55.895  1.00  0.00     0.139 C 
HETATM   20  O   UNL     1       4.698  30.665  54.965  1.00  0.00    -0.384 OA
HETATM   21  C   UNL     1       4.668  31.921  55.657  1.00  0.00     0.168 C 
HETATM   22  C   UNL     1       5.245  31.681  57.034  1.00  0.00     0.029 C 
HETATM   23  C   UNL     1       4.887  30.236  57.278  1.00  0.00     0.035 C 
ENDBRANCH  18  19
ENDBRANCH   1  18
BRANCH   2  24
HETATM   24  C   UNL     1       8.638  29.124  57.719  1.00  0.00     0.034 A 
HETATM   25  C   UNL     1       8.250  30.005  58.739  1.00  0.00     0.053 A 
HETATM   26  C   UNL     1       9.049  31.101  59.056  1.00  0.00     0.069 A 
HETATM   27  C   UNL     1      10.218  31.332  58.327  1.00  0.00     0.037 A 
HETATM   28  C   UNL     1      10.625  30.436  57.334  1.00  0.00     0.004 A 
HETATM   29  C   UNL     1       9.848  29.315  57.046  1.00  0.00     0.017 A 
BRANCH  26  30
HETATM   30  O   UNL     1       8.782  32.014  60.039  1.00  0.00    -0.356 OA
HETATM   31  C   UNL     1       9.472  31.813  61.270  1.00  0.00     0.210 C 
ENDBRANCH  26  30
ENDBRANCH   2  24
TORSDOF 6
ENDMDL
MODEL 2
REMARK VINA RESULT:      -9.0      3.835      7.416
REMARK  6 active torsions:
REMARK  status: ('A' for Active; 'I' for Inactive)
REMARK    1  A    between atoms: C_9  and  C_10 
REMARK    2  A    between atoms: C_10  and  N_11 
REMARK       I    between atoms: N_11  and  C_12 
REMARK    3  A    between atoms: N_11  and  C_22 
REMARK    4  A    between atoms: C_12  and  C_13 
REMARK    5  A    between atoms: C_15  and  O_16 
REMARK    6  A    between atoms: C_22  and  C_23 
ROOT
HETATM    1  N   UNL     1       6.773  26.430  53.683  1.00  0.00    -0.341 N 
HETATM    2  C   UNL     1       7.769  25.605  53.143  1.00  0.00     0.254 C 
HETATM    3  O   UNL     1       8.584  25.999  52.308  1.00  0.00    -0.267 OA
ENDROOT
BRANCH   1   4
HETATM    4  C   UNL     1       6.613  27.749  53.050  1.00  0.00     0.170 C 
BRANCH   4   5
HETATM    5  C   UNL     1       5.553  27.784  51.980  1.00  0.00     0.029 A 
HETATM    6  C   UNL     1       4.580  28.913  52.154  1.00  0.00     0.253 A 
HETATM    7  N   UNL     1       3.557  29.009  51.253  1.00  0.00    -0.322 N 
HETATM    8  O   UNL     1       4.698  29.735  53.059  1.00  0.00    -0.268 OA
HETATM    9  C   UNL     1       3.377  28.127  50.186  1.00  0.00     0.045 A 
HETATM   10  H   UNL     1       2.911  29.771  51.402  1.00  0.00     0.169 HD
HETATM   11  C   UNL     1       4.289  27.082  50.003  1.00  0.00    -0.008 A 
HETATM   12  C   UNL     1       2.301  28.296  49.318  1.00  0.00     0.031 A 
HETATM   13  C   UNL     1       4.110  26.196  48.935  1.00  0.00     0.020 A 
HETATM   14  C   UNL     1       5.402  26.938  50.944  1.00  0.00     0.028 A 
HETATM   15  C   UNL     1       3.022  26.347  48.062  1.00  0.00    -0.061 A 
HETATM   16  C   UNL     1       2.840  25.415  46.900  1.00  0.00     0.048 C 
HETATM   17  C   UNL     1       2.127  27.409  48.255  1.00  0.00     0.009 A 
ENDBRANCH   4   5
ENDBRANCH   1   4
BRANCH   1  18
HETATM   18  C   UNL     1       5.619  25.945  54.460  1.00  0.00     0.158 C 
BRANCH  18  19
HETATM   19  C   UNL     1       5.459  26.643  55.828  1.00  0.00     0.139 C 
HETATM   20  O   UNL     1       6.709  27.248  56.212  1.00  0.00    -0.384 OA
HETATM   21  C   UNL     1       7.294  26.492  57.280  1.00  0.00     0.168 C 
HETATM   22  C   UNL     1       6.489  25.217  57.412  1.00  0.00     0.029 C 
HETATM   23  C   UNL     1       5.126  25.656  56.939  1.00  0.00     0.035 C 
ENDBRANCH  18  19
ENDBRANCH   1  18
BRANCH   2  24
HETATM   24  C   UNL     1       7.870  24.180  53.531  1.00  0.00     0.034 A 
HETATM   25  C   UNL     1       8.307  23.898  54.834  1.00  0.00     0.053 A 
HETATM   26  C   UNL     1       8.373  22.579  55.277  1.00  0.00     0.069 A 
HETATM   27  C   UNL     1       8.034  21.543  54.403  1.00  0.00     0.037 A 
HETATM   28  C   UNL     1       7.565  21.823  53.117  1.00  0.00     0.004 A 
HETATM   29  C   UNL     1       7.457  23.145  52.687  1.00  0.00     0.017 A 
BRANCH  26  30
HETATM   30  O   UNL     1       8.766  22.186  56.527  1.00  0.00    -0.356 OA
HETATM   31  C   UNL     1       8.352  20.880  56.920  1.00  0.00     0.210 C 
ENDBRANCH  26  30
ENDBRANCH   2  24
TORSDOF 6
ENDMDL
MODEL 3
REMARK VINA RESULT:      -8.6      2.563      4.354
REMARK  6 active torsions:
REMARK  status: ('A' for Active; 'I' for Inactive)
REMARK    1  A    between atoms: C_9  and  C_10 
REMARK    2  A    between atoms: C_10  and  N_11 
REMARK       I    between atoms: N_11  and  C_12 
REMARK    3  A    between atoms: N_11  and  C_22 
REMARK    4  A    between atoms: C_12  and  C_13 
REMARK    5  A    between atoms: C_15  and  O_16 
REMARK    6  A    between atoms: C_22  and  C_23 
ROOT
HETATM    1  N   UNL     1       6.775  27.922  55.580  1.00  0.00    -0.341 N 
HETATM    2  C   UNL     1       6.650  29.210  56.117  1.00  0.00     0.254 C 
HETATM    3  O   UNL     1       7.605  29.843  56.566  1.00  0.00    -0.267 OA
ENDROOT
BRANCH   1   4
HETATM    4  C   UNL     1       8.081  27.269  55.765  1.00  0.00     0.170 C 
BRANCH   4   5
HETATM    5  C   UNL     1       8.012  25.764  55.767  1.00  0.00     0.029 A 
HETATM    6  C   UNL     1       7.910  25.182  57.146  1.00  0.00     0.253 A 
HETATM    7  N   UNL     1       7.880  23.820  57.257  1.00  0.00    -0.322 N 
HETATM    8  O   UNL     1       7.840  25.894  58.145  1.00  0.00    -0.268 OA
HETATM    9  C   UNL     1       7.928  22.952  56.164  1.00  0.00     0.045 A 
HETATM   10  H   UNL     1       7.823  23.457  58.198  1.00  0.00     0.169 HD
HETATM   11  C   UNL     1       8.004  23.484  54.873  1.00  0.00    -0.008 A 
HETATM   12  C   UNL     1       7.898  21.575  56.370  1.00  0.00     0.031 A 
HETATM   13  C   UNL     1       8.054  22.615  53.777  1.00  0.00     0.020 A 
HETATM   14  C   UNL     1       8.041  24.938  54.705  1.00  0.00     0.028 A 
HETATM   15  C   UNL     1       8.039  21.225  53.971  1.00  0.00    -0.061 A 
HETATM   16  C   UNL     1       8.066  20.289  52.798  1.00  0.00     0.048 C 
HETATM   17  C   UNL     1       7.949  20.713  55.273  1.00  0.00     0.009 A 
ENDBRANCH   4   5
ENDBRANCH   1   4
BRANCH   1  18
HETATM   18  C   UNL     1       5.643  27.024  55.291  1.00  0.00     0.158 C 
BRANCH  18  19
HETATM   19  C   UNL     1       5.004  27.263  53.906  1.00  0.00     0.139 C 
HETATM   20  O   UNL     1       4.441  26.031  53.413  1.00  0.00    -0.384 OA
HETATM   21  C   UNL     1       5.256  25.530  52.344  1.00  0.00     0.168 C 
HETATM   22  C   UNL     1       6.519  26.363  52.325  1.00  0.00     0.029 C 
HETATM   23  C   UNL     1       6.033  27.685  52.865  1.00  0.00     0.035 C 
ENDBRANCH  18  19
ENDBRANCH   1  18
BRANCH   2  24
HETATM   24  C   UNL     1       5.328  29.872  56.204  1.00  0.00     0.034 A 
HETATM   25  C   UNL     1       4.767  30.021  57.481  1.00  0.00     0.053 A 
HETATM   26  C   UNL     1       3.551  30.682  57.636  1.00  0.00     0.069 A 
HETATM   27  C   UNL     1       2.882  31.162  56.508  1.00  0.00     0.037 A 
HETATM   28  C   UNL     1       3.456  31.046  55.239  1.00  0.00     0.004 A 
HETATM   29  C   UNL     1       4.694  30.423  55.088  1.00  0.00     0.017 A 
BRANCH  26  30
HETATM   30  O   UNL     1       2.919  30.902  58.829  1.00  0.00    -0.356 OA
HETATM   31  C   UNL     1       3.516  31.885  59.670  1.00  0.00     0.210 C 
ENDBRANCH  26  30
ENDBRANCH   2  24
TORSDOF 6
ENDMDL
MODEL 4
REMARK VINA RESULT:      -8.5      1.838      2.690
REMARK  6 active torsions:
REMARK  status: ('A' for Active; 'I' for Inactive)
REMARK    1  A    between atoms: C_9  and  C_10 
REMARK    2  A    between atoms: C_10  and  N_11 
REMARK       I    between atoms: N_11  and  C_12 
REMARK    3  A    between atoms: N_11  and  C_22 
REMARK    4  A    between atoms: C_12  and  C_13 
REMARK    5  A    between atoms: C_15  and  O_16 
REMARK    6  A    between atoms: C_22  and  C_23 
ROOT
HETATM    1  N   UNL     1       5.539  27.400  54.939  1.00  0.00    -0.341 N 
HETATM    2  C   UNL     1       5.416  27.505  56.331  1.00  0.00     0.254 C 
HETATM    3  O   UNL     1       4.968  26.599  57.033  1.00  0.00    -0.267 OA
ENDROOT
BRANCH   1   4
HETATM    4  C   UNL     1       4.912  26.221  54.322  1.00  0.00     0.170 C 
BRANCH   4   5
HETATM    5  C   UNL     1       5.857  25.065  54.122  1.00  0.00     0.029 A 
HETATM    6  C   UNL     1       6.228  24.851  52.685  1.00  0.00     0.253 A 
HETATM    7  N   UNL     1       7.053  23.801  52.396  1.00  0.00    -0.322 N 
HETATM    8  O   UNL     1       5.825  25.595  51.794  1.00  0.00    -0.268 OA
HETATM    9  C   UNL     1       7.571  22.932  53.359  1.00  0.00     0.045 A 
HETATM   10  H   UNL     1       7.277  23.674  51.419  1.00  0.00     0.169 HD
HETATM   11  C   UNL     1       7.247  23.135  54.704  1.00  0.00    -0.008 A 
HETATM   12  C   UNL     1       8.402  21.883  52.973  1.00  0.00     0.031 A 
HETATM   13  C   UNL     1       7.763  22.265  55.671  1.00  0.00     0.020 A 
HETATM   14  C   UNL     1       6.364  24.246  55.063  1.00  0.00     0.028 A 
HETATM   15  C   UNL     1       8.589  21.194  55.295  1.00  0.00    -0.061 A 
HETATM   16  C   UNL     1       9.167  20.274  56.330  1.00  0.00     0.048 C 
HETATM   17  C   UNL     1       8.913  21.018  53.942  1.00  0.00     0.009 A 
ENDBRANCH   4   5
ENDBRANCH   1   4
BRANCH   1  18
HETATM   18  C   UNL     1       5.802  28.536  54.037  1.00  0.00     0.158 C 
BRANCH  18  19
HETATM   19  C   UNL     1       4.708  28.738  52.965  1.00  0.00     0.139 C 
HETATM   20  O   UNL     1       5.208  29.594  51.919  1.00  0.00    -0.384 OA
HETATM   21  C   UNL     1       4.581  30.880  52.017  1.00  0.00     0.168 C 
HETATM   22  C   UNL     1       3.830  30.906  53.330  1.00  0.00     0.029 C 
HETATM   23  C   UNL     1       3.484  29.450  53.524  1.00  0.00     0.035 C 
ENDBRANCH  18  19
ENDBRANCH   1  18
BRANCH   2  24
HETATM   24  C   UNL     1       5.794  28.751  57.036  1.00  0.00     0.034 A 
HETATM   25  C   UNL     1       7.068  28.797  57.620  1.00  0.00     0.053 A 
HETATM   26  C   UNL     1       7.504  29.960  58.253  1.00  0.00     0.069 A 
HETATM   27  C   UNL     1       6.648  31.062  58.329  1.00  0.00     0.037 A 
HETATM   28  C   UNL     1       5.392  31.030  57.718  1.00  0.00     0.004 A 
HETATM   29  C   UNL     1       4.973  29.882  57.046  1.00  0.00     0.017 A 
BRANCH  26  30
HETATM   30  O   UNL     1       8.727  30.127  58.840  1.00  0.00    -0.356 OA
HETATM   31  C   UNL     1       9.798  30.442  57.954  1.00  0.00     0.210 C 
ENDBRANCH  26  30
ENDBRANCH   2  24
TORSDOF 6
ENDMDL
MODEL 5
REMARK VINA RESULT:      -8.4      5.287      8.407
REMARK  6 active torsions:
REMARK  status: ('A' for Active; 'I' for Inactive)
REMARK    1  A    between atoms: C_9  and  C_10 
REMARK    2  A    between atoms: C_10  and  N_11 
REMARK       I    between atoms: N_11  and  C_12 
REMARK    3  A    between atoms: N_11  and  C_22 
REMARK    4  A    between atoms: C_12  and  C_13 
REMARK    5  A    between atoms: C_15  and  O_16 
REMARK    6  A    between atoms: C_22  and  C_23 
ROOT
HETATM    1  N   UNL     1       5.009  33.406  61.638  1.00  0.00    -0.341 N 
HETATM    2  C   UNL     1       5.035  32.618  62.797  1.00  0.00     0.254 C 
HETATM    3  O   UNL     1       4.638  31.453  62.822  1.00  0.00    -0.267 OA
ENDROOT
BRANCH   1   4
HETATM    4  C   UNL     1       4.289  32.839  60.487  1.00  0.00     0.170 C 
BRANCH   4   5
HETATM    5  C   UNL     1       5.161  32.023  59.568  1.00  0.00     0.029 A 
HETATM    6  C   UNL     1       4.376  31.148  58.636  1.00  0.00     0.253 A 
HETATM    7  N   UNL     1       5.078  30.340  57.787  1.00  0.00    -0.322 N 
HETATM    8  O   UNL     1       3.147  31.160  58.619  1.00  0.00    -0.268 OA
HETATM    9  C   UNL     1       6.472  30.295  57.734  1.00  0.00     0.045 A 
HETATM   10  H   UNL     1       4.522  29.753  57.180  1.00  0.00     0.169 HD
HETATM   11  C   UNL     1       7.214  31.121  58.584  1.00  0.00    -0.008 A 
HETATM   12  C   UNL     1       7.106  29.436  56.839  1.00  0.00     0.031 A 
HETATM   13  C   UNL     1       8.612  31.076  58.533  1.00  0.00     0.020 A 
HETATM   14  C   UNL     1       6.506  32.003  59.514  1.00  0.00     0.028 A 
HETATM   15  C   UNL     1       9.263  30.204  57.647  1.00  0.00    -0.061 A 
HETATM   16  C   UNL     1      10.762  30.171  57.570  1.00  0.00     0.048 C 
HETATM   17  C   UNL     1       8.500  29.395  56.793  1.00  0.00     0.009 A 
ENDBRANCH   4   5
ENDBRANCH   1   4
BRANCH   1  18
HETATM   18  C   UNL     1       5.207  34.866  61.618  1.00  0.00     0.158 C 
BRANCH  18  19
HETATM   19  C   UNL     1       3.888  35.668  61.668  1.00  0.00     0.139 C 
HETATM   20  O   UNL     1       3.867  36.634  60.600  1.00  0.00    -0.384 OA
HETATM   21  C   UNL     1       4.049  37.948  61.144  1.00  0.00     0.168 C 
HETATM   22  C   UNL     1       4.440  37.774  62.596  1.00  0.00     0.029 C 
HETATM   23  C   UNL     1       3.758  36.477  62.952  1.00  0.00     0.035 C 
ENDBRANCH  18  19
ENDBRANCH   1  18
BRANCH   2  24
HETATM   24  C   UNL     1       5.517  33.171  64.083  1.00  0.00     0.034 A 
HETATM   25  C   UNL     1       4.548  33.570  65.015  1.00  0.00     0.053 A 
HETATM   26  C   UNL     1       4.937  34.049  66.264  1.00  0.00     0.069 A 
HETATM   27  C   UNL     1       6.297  34.161  66.563  1.00  0.00     0.037 A 
HETATM   28  C   UNL     1       7.264  33.732  65.649  1.00  0.00     0.004 A 
HETATM   29  C   UNL     1       6.874  33.211  64.416  1.00  0.00     0.017 A 
BRANCH  26  30
HETATM   30  O   UNL     1       4.084  34.449  67.255  1.00  0.00    -0.356 OA
HETATM   31  C   UNL     1       3.076  35.377  66.863  1.00  0.00     0.210 C 
ENDBRANCH  26  30
ENDBRANCH   2  24
TORSDOF 6
ENDMDL
MODEL 6
REMARK VINA RESULT:      -8.3      3.161      5.304
REMARK  6 active torsions:
REMARK  status: ('A' for Active; 'I' for Inactive)
REMARK    1  A    between atoms: C_9  and  C_10 
REMARK    2  A    between atoms: C_10  and  N_11 
REMARK       I    between atoms: N_11  and  C_12 
REMARK    3  A    between atoms: N_11  and  C_22 
REMARK    4  A    between atoms: C_12  and  C_13 
REMARK    5  A    between atoms: C_15  and  O_16 
REMARK    6  A    between atoms: C_22  and  C_23 
ROOT
HETATM    1  N   UNL     1       5.930  32.144  59.006  1.00  0.00    -0.341 N 
HETATM    2  C   UNL     1       7.209  32.217  59.574  1.00  0.00     0.254 C 
HETATM    3  O   UNL     1       8.241  32.112  58.912  1.00  0.00    -0.267 OA
ENDROOT
BRANCH   1   4
HETATM    4  C   UNL     1       5.872  31.727  57.596  1.00  0.00     0.170 C 
BRANCH   4   5
HETATM    5  C   UNL     1       5.858  30.233  57.404  1.00  0.00     0.029 A 
HETATM    6  C   UNL     1       4.508  29.701  57.025  1.00  0.00     0.253 A 
HETATM    7  N   UNL     1       4.383  28.350  56.865  1.00  0.00    -0.322 N 
HETATM    8  O   UNL     1       3.546  30.445  56.848  1.00  0.00    -0.268 OA
HETATM    9  C   UNL     1       5.439  27.449  57.024  1.00  0.00     0.045 A 
HETATM   10  H   UNL     1       3.460  28.020  56.621  1.00  0.00     0.169 HD
HETATM   11  C   UNL     1       6.706  27.936  57.358  1.00  0.00    -0.008 A 
HETATM   12  C   UNL     1       5.220  26.085  56.846  1.00  0.00     0.031 A 
HETATM   13  C   UNL     1       7.765  27.035  57.519  1.00  0.00     0.020 A 
HETATM   14  C   UNL     1       6.888  29.377  57.542  1.00  0.00     0.028 A 
HETATM   15  C   UNL     1       7.555  25.657  57.358  1.00  0.00    -0.061 A 
HETATM   16  C   UNL     1       8.692  24.688  57.504  1.00  0.00     0.048 C 
HETATM   17  C   UNL     1       6.280  25.191  57.009  1.00  0.00     0.009 A 
ENDBRANCH   4   5
ENDBRANCH   1   4
BRANCH   1  18
HETATM   18  C   UNL     1       4.683  31.985  59.775  1.00  0.00     0.158 C 
BRANCH  18  19
HETATM   19  C   UNL     1       3.590  33.008  59.396  1.00  0.00     0.139 C 
HETATM   20  O   UNL     1       4.204  34.252  59.006  1.00  0.00    -0.384 OA
HETATM   21  C   UNL     1       3.992  35.228  60.035  1.00  0.00     0.168 C 
HETATM   22  C   UNL     1       3.422  34.495  61.229  1.00  0.00     0.029 C 
HETATM   23  C   UNL     1       2.690  33.349  60.576  1.00  0.00     0.035 C 
ENDBRANCH  18  19
ENDBRANCH   1  18
BRANCH   2  24
HETATM   24  C   UNL     1       7.384  32.392  61.034  1.00  0.00     0.034 A 
HETATM   25  C   UNL     1       6.761  33.500  61.627  1.00  0.00     0.053 A 
HETATM   26  C   UNL     1       6.844  33.692  63.005  1.00  0.00     0.069 A 
HETATM   27  C   UNL     1       7.580  32.792  63.780  1.00  0.00     0.037 A 
HETATM   28  C   UNL     1       8.171  31.669  63.196  1.00  0.00     0.004 A 
HETATM   29  C   UNL     1       8.052  31.453  61.823  1.00  0.00     0.017 A 
BRANCH  26  30
HETATM   30  O   UNL     1       6.265  34.722  63.694  1.00  0.00    -0.356 OA
HETATM   31  C   UNL     1       5.714  34.380  64.963  1.00  0.00     0.210 C 
ENDBRANCH  26  30
ENDBRANCH   2  24
TORSDOF 6
ENDMDL
MODEL 7
REMARK VINA RESULT:      -8.3      3.806      7.758
REMARK  6 active torsions:
REMARK  status: ('A' for Active; 'I' for Inactive)
REMARK    1  A    between atoms: C_9  and  C_10 
REMARK    2  A    between atoms: C_10  and  N_11 
REMARK       I    between atoms: N_11  and  C_12 
REMARK    3  A    between atoms: N_11  and  C_22 
REMARK    4  A    between atoms: C_12  and  C_13 
REMARK    5  A    between atoms: C_15  and  O_16 
REMARK    6  A    between atoms: C_22  and  C_23 
ROOT
HETATM    1  N   UNL     1       5.788  26.644  53.897  1.00  0.00    -0.341 N 
HETATM    2  C   UNL     1       5.565  25.279  53.675  1.00  0.00     0.254 C 
HETATM    3  O   UNL     1       4.468  24.825  53.348  1.00  0.00    -0.267 OA
ENDROOT
BRANCH   1   4
HETATM    4  C   UNL     1       4.591  27.499  53.921  1.00  0.00     0.170 C 
BRANCH   4   5
HETATM    5  C   UNL     1       4.563  28.536  52.828  1.00  0.00     0.029 A 
HETATM    6  C   UNL     1       4.419  29.935  53.348  1.00  0.00     0.253 A 
HETATM    7  N   UNL     1       4.346  30.946  52.431  1.00  0.00    -0.322 N 
HETATM    8  O   UNL     1       4.383  30.177  54.552  1.00  0.00    -0.268 OA
HETATM    9  C   UNL     1       4.408  30.746  51.051  1.00  0.00     0.045 A 
HETATM   10  H   UNL     1       4.237  31.876  52.810  1.00  0.00     0.169 HD
HETATM   11  C   UNL     1       4.562  29.448  50.555  1.00  0.00    -0.008 A 
HETATM   12  C   UNL     1       4.320  31.836  50.187  1.00  0.00     0.031 A 
HETATM   13  C   UNL     1       4.623  29.246  49.172  1.00  0.00     0.020 A 
HETATM   14  C   UNL     1       4.643  28.332  51.500  1.00  0.00     0.028 A 
HETATM   15  C   UNL     1       4.520  30.333  48.290  1.00  0.00    -0.061 A 
HETATM   16  C   UNL     1       4.611  30.125  46.806  1.00  0.00     0.048 C 
HETATM   17  C   UNL     1       4.380  31.628  48.808  1.00  0.00     0.009 A 
ENDBRANCH   4   5
ENDBRANCH   1   4
BRANCH   1  18
HETATM   18  C   UNL     1       6.988  27.198  54.550  1.00  0.00     0.158 C 
BRANCH  18  19
HETATM   19  C   UNL     1       6.693  27.881  55.903  1.00  0.00     0.139 C 
HETATM   20  O   UNL     1       7.215  29.225  55.891  1.00  0.00    -0.384 OA
HETATM   21  C   UNL     1       8.375  29.292  56.731  1.00  0.00     0.168 C 
HETATM   22  C   UNL     1       8.736  27.869  57.098  1.00  0.00     0.029 C 
HETATM   23  C   UNL     1       7.393  27.184  57.061  1.00  0.00     0.035 C 
ENDBRANCH  18  19
ENDBRANCH   1  18
BRANCH   2  24
HETATM   24  C   UNL     1       6.651  24.290  53.861  1.00  0.00     0.034 A 
HETATM   25  C   UNL     1       6.887  23.833  55.166  1.00  0.00     0.053 A 
HETATM   26  C   UNL     1       7.860  22.863  55.401  1.00  0.00     0.069 A 
HETATM   27  C   UNL     1       8.618  22.379  54.332  1.00  0.00     0.037 A 
HETATM   28  C   UNL     1       8.361  22.807  53.027  1.00  0.00     0.004 A 
HETATM   29  C   UNL     1       7.358  23.745  52.786  1.00  0.00     0.017 A 
BRANCH  26  30
HETATM   30  O   UNL     1       8.164  22.331  56.623  1.00  0.00    -0.356 OA
HETATM   31  C   UNL     1       8.361  20.920  56.649  1.00  0.00     0.210 C 
ENDBRANCH  26  30
ENDBRANCH   2  24
TORSDOF 6
ENDMDL
MODEL 8
REMARK VINA RESULT:      -8.3      2.667      8.777
REMARK  6 active torsions:
REMARK  status: ('A' for Active; 'I' for Inactive)
REMARK    1  A    between atoms: C_9  and  C_10 
REMARK    2  A    between atoms: C_10  and  N_11 
REMARK       I    between atoms: N_11  and  C_12 
REMARK    3  A    between atoms: N_11  and  C_22 
REMARK    4  A    between atoms: C_12  and  C_13 
REMARK    5  A    between atoms: C_15  and  O_16 
REMARK    6  A    between atoms: C_22  and  C_23 
ROOT
HETATM    1  N   UNL     1       7.358  29.652  57.869  1.00  0.00    -0.341 N 
HETATM    2  C   UNL     1       8.118  28.600  57.340  1.00  0.00     0.254 C 
HETATM    3  O   UNL     1       9.341  28.655  57.217  1.00  0.00    -0.267 OA
ENDROOT
BRANCH   1   4
HETATM    4  C   UNL     1       8.073  30.920  58.085  1.00  0.00     0.170 C 
BRANCH   4   5
HETATM    5  C   UNL     1       7.947  31.457  59.487  1.00  0.00     0.029 A 
HETATM    6  C   UNL     1       8.913  30.829  60.446  1.00  0.00     0.253 A 
HETATM    7  N   UNL     1       8.852  31.223  61.753  1.00  0.00    -0.322 N 
HETATM    8  O   UNL     1       9.744  30.001  60.079  1.00  0.00    -0.268 OA
HETATM    9  C   UNL     1       7.954  32.177  62.235  1.00  0.00     0.045 A 
HETATM   10  H   UNL     1       9.507  30.775  62.378  1.00  0.00     0.169 HD
HETATM   11  C   UNL     1       7.061  32.784  61.345  1.00  0.00    -0.008 A 
HETATM   12  C   UNL     1       7.957  32.515  63.586  1.00  0.00     0.031 A 
HETATM   13  C   UNL     1       6.159  33.739  61.826  1.00  0.00     0.020 A 
HETATM   14  C   UNL     1       7.087  32.392  59.935  1.00  0.00     0.028 A 
HETATM   15  C   UNL     1       6.142  34.078  63.188  1.00  0.00    -0.061 A 
HETATM   16  C   UNL     1       5.194  35.121  63.704  1.00  0.00     0.048 C 
HETATM   17  C   UNL     1       7.054  33.468  64.060  1.00  0.00     0.009 A 
ENDBRANCH   4   5
ENDBRANCH   1   4
BRANCH   1  18
HETATM   18  C   UNL     1       5.890  29.748  57.781  1.00  0.00     0.158 C 
BRANCH  18  19
HETATM   19  C   UNL     1       5.395  30.471  56.510  1.00  0.00     0.139 C 
HETATM   20  O   UNL     1       5.006  31.819  56.840  1.00  0.00    -0.384 OA
HETATM   21  C   UNL     1       3.577  31.926  56.797  1.00  0.00     0.168 C 
HETATM   22  C   UNL     1       3.033  30.520  56.667  1.00  0.00     0.029 C 
HETATM   23  C   UNL     1       4.147  29.819  55.929  1.00  0.00     0.035 C 
ENDBRANCH  18  19
ENDBRANCH   1  18
BRANCH   2  24
HETATM   24  C   UNL     1       7.468  27.359  56.860  1.00  0.00     0.034 A 
HETATM   25  C   UNL     1       7.170  27.277  55.492  1.00  0.00     0.053 A 
HETATM   26  C   UNL     1       6.606  26.115  54.970  1.00  0.00     0.069 A 
HETATM   27  C   UNL     1       6.311  25.051  55.825  1.00  0.00     0.037 A 
HETATM   28  C   UNL     1       6.640  25.116  57.181  1.00  0.00     0.004 A 
HETATM   29  C   UNL     1       7.245  26.262  57.697  1.00  0.00     0.017 A 
BRANCH  26  30
HETATM   30  O   UNL     1       6.290  25.915  53.654  1.00  0.00    -0.356 OA
HETATM   31  C   UNL     1       5.064  25.228  53.413  1.00  0.00     0.210 C 
ENDBRANCH  26  30
ENDBRANCH   2  24
TORSDOF 6
ENDMDL
MODEL 9
REMARK VINA RESULT:      -8.3      2.833      5.325
REMARK  6 active torsions:
REMARK  status: ('A' for Active; 'I' for Inactive)
REMARK    1  A    between atoms: C_9  and  C_10 
REMARK    2  A    between atoms: C_10  and  N_11 
REMARK       I    between atoms: N_11  and  C_12 
REMARK    3  A    between atoms: N_11  and  C_22 
REMARK    4  A    between atoms: C_12  and  C_13 
REMARK    5  A    between atoms: C_15  and  O_16 
REMARK    6  A    between atoms: C_22  and  C_23 
ROOT
HETATM    1  N   UNL     1       6.095  27.673  55.057  1.00  0.00    -0.341 N 
HETATM    2  C   UNL     1       6.250  27.914  53.686  1.00  0.00     0.254 C 
HETATM    3  O   UNL     1       7.290  27.665  53.076  1.00  0.00    -0.267 OA
ENDROOT
BRANCH   1   4
HETATM    4  C   UNL     1       7.314  27.293  55.788  1.00  0.00     0.170 C 
BRANCH   4   5
HETATM    5  C   UNL     1       7.553  25.806  55.840  1.00  0.00     0.029 A 
HETATM    6  C   UNL     1       7.792  25.297  57.230  1.00  0.00     0.253 A 
HETATM    7  N   UNL     1       8.057  23.964  57.378  1.00  0.00    -0.322 N 
HETATM    8  O   UNL     1       7.741  26.039  58.209  1.00  0.00    -0.268 OA
HETATM    9  C   UNL     1       8.104  23.060  56.315  1.00  0.00     0.045 A 
HETATM   10  H   UNL     1       8.226  23.653  58.324  1.00  0.00     0.169 HD
HETATM   11  C   UNL     1       7.862  23.520  55.017  1.00  0.00    -0.008 A 
HETATM   12  C   UNL     1       8.386  21.718  56.558  1.00  0.00     0.031 A 
HETATM   13  C   UNL     1       7.911  22.616  53.951  1.00  0.00     0.020 A 
HETATM   14  C   UNL     1       7.577  24.941  54.808  1.00  0.00     0.028 A 
HETATM   15  C   UNL     1       8.209  21.263  54.179  1.00  0.00    -0.061 A 
HETATM   16  C   UNL     1       8.237  20.284  53.042  1.00  0.00     0.048 C 
HETATM   17  C   UNL     1       8.434  20.821  55.490  1.00  0.00     0.009 A 
ENDBRANCH   4   5
ENDBRANCH   1   4
BRANCH   1  18
HETATM   18  C   UNL     1       4.991  28.202  55.878  1.00  0.00     0.158 C 
BRANCH  18  19
HETATM   19  C   UNL     1       5.292  29.583  56.499  1.00  0.00     0.139 C 
HETATM   20  O   UNL     1       4.522  29.749  57.707  1.00  0.00    -0.384 OA
HETATM   21  C   UNL     1       3.468  30.692  57.472  1.00  0.00     0.168 C 
HETATM   22  C   UNL     1       3.430  30.950  55.982  1.00  0.00     0.029 C 
HETATM   23  C   UNL     1       4.868  30.726  55.586  1.00  0.00     0.035 C 
ENDBRANCH  18  19
ENDBRANCH   1  18
BRANCH   2  24
HETATM   24  C   UNL     1       5.160  28.527  52.893  1.00  0.00     0.034 A 
HETATM   25  C   UNL     1       5.527  29.432  51.887  1.00  0.00     0.053 A 
HETATM   26  C   UNL     1       4.552  30.003  51.071  1.00  0.00     0.069 A 
HETATM   27  C   UNL     1       3.208  29.691  51.289  1.00  0.00     0.037 A 
HETATM   28  C   UNL     1       2.842  28.763  52.267  1.00  0.00     0.004 A 
HETATM   29  C   UNL     1       3.821  28.158  53.054  1.00  0.00     0.017 A 
BRANCH  26  30
HETATM   30  O   UNL     1       4.793  30.881  50.051  1.00  0.00    -0.356 OA
HETATM   31  C   UNL     1       4.627  32.259  50.373  1.00  0.00     0.210 C 
ENDBRANCH  26  30
ENDBRANCH   2  24
TORSDOF 6
ENDMDL
MODEL 10
REMARK VINA RESULT:      -8.2      3.643      6.842
REMARK  6 active torsions:
REMARK  status: ('A' for Active; 'I' for Inactive)
REMARK    1  A    between atoms: C_9  and  C_10 
REMARK    2  A    between atoms: C_10  and  N_11 
REMARK       I    between atoms: N_11  and  C_12 
REMARK    3  A    between atoms: N_11  and  C_22 
REMARK    4  A    between atoms: C_12  and  C_13 
REMARK    5  A    between atoms: C_15  and  O_16 
REMARK    6  A    between atoms: C_22  and  C_23 
ROOT
HETATM    1  N   UNL     1       5.081  27.799  53.063  1.00  0.00    -0.341 N 
HETATM    2  C   UNL     1       5.067  27.790  51.662  1.00  0.00     0.254 C 
HETATM    3  O   UNL     1       6.046  27.478  50.985  1.00  0.00    -0.267 OA
ENDROOT
BRANCH   1   4
HETATM    4  C   UNL     1       6.396  27.614  53.697  1.00  0.00     0.170 C 
BRANCH   4   5
HETATM    5  C   UNL     1       6.681  26.190  54.101  1.00  0.00     0.029 A 
HETATM    6  C   UNL     1       6.532  25.957  55.575  1.00  0.00     0.253 A 
HETATM    7  N   UNL     1       6.805  24.704  56.047  1.00  0.00    -0.322 N 
HETATM    8  O   UNL     1       6.164  26.847  56.337  1.00  0.00    -0.268 OA
HETATM    9  C   UNL     1       7.202  23.639  55.235  1.00  0.00     0.045 A 
HETATM   10  H   UNL     1       6.708  24.579  57.044  1.00  0.00     0.169 HD
HETATM   11  C   UNL     1       7.325  23.840  53.857  1.00  0.00    -0.008 A 
HETATM   12  C   UNL     1       7.466  22.394  55.803  1.00  0.00     0.031 A 
HETATM   13  C   UNL     1       7.724  22.774  53.043  1.00  0.00     0.020 A 
HETATM   14  C   UNL     1       7.044  25.167  53.305  1.00  0.00     0.028 A 
HETATM   15  C   UNL     1       8.007  21.520  53.603  1.00  0.00    -0.061 A 
HETATM   16  C   UNL     1       8.410  20.366  52.731  1.00  0.00     0.048 C 
HETATM   17  C   UNL     1       7.864  21.335  54.985  1.00  0.00     0.009 A 
ENDBRANCH   4   5
ENDBRANCH   1   4
BRANCH   1  18
HETATM   18  C   UNL     1       4.044  28.422  53.904  1.00  0.00     0.158 C 
BRANCH  18  19
HETATM   19  C   UNL     1       4.580  29.552  54.809  1.00  0.00     0.139 C 
HETATM   20  O   UNL     1       3.872  29.545  56.065  1.00  0.00    -0.384 OA
HETATM   21  C   UNL     1       2.983  30.669  56.115  1.00  0.00     0.168 C 
HETATM   22  C   UNL     1       2.960  31.276  54.729  1.00  0.00     0.029 C 
HETATM   23  C   UNL     1       4.334  30.930  54.211  1.00  0.00     0.035 C 
ENDBRANCH  18  19
ENDBRANCH   1  18
BRANCH   2  24
HETATM   24  C   UNL     1       3.857  28.198  50.911  1.00  0.00     0.034 A 
HETATM   25  C   UNL     1       3.677  27.645  49.635  1.00  0.00     0.053 A 
HETATM   26  C   UNL     1       2.533  27.948  48.899  1.00  0.00     0.069 A 
HETATM   27  C   UNL     1       1.590  28.831  49.429  1.00  0.00     0.037 A 
HETATM   28  C   UNL     1       1.750  29.355  50.715  1.00  0.00     0.004 A 
HETATM   29  C   UNL     1       2.873  29.018  51.470  1.00  0.00     0.017 A 
BRANCH  26  30
HETATM   30  O   UNL     1       2.242  27.457  47.656  1.00  0.00    -0.356 OA
HETATM   31  C   UNL     1       2.932  26.266  47.288  1.00  0.00     0.210 C 
ENDBRANCH  26  30
ENDBRANCH   2  24
TORSDOF 6
ENDMDL
