MODEL 1
REMARK VINA RESULT:     -10.6      0.000      0.000
REMARK  1 active torsions:
REMARK  status: ('A' for Active; 'I' for Inactive)
REMARK    1  A    between atoms: C_8  and  C_9 
ROOT
HETATM    1  C   UNL     1       7.668  24.467  52.030  1.00  0.00     0.049 C 
HETATM    2  C   UNL     1       7.754  23.609  53.265  1.00  0.00    -0.050 A 
HETATM    3  C   UNL     1       7.738  24.152  54.565  1.00  0.00    -0.002 A 
HETATM    4  C   UNL     1       7.851  23.296  55.677  1.00  0.00     0.051 A 
HETATM    5  N   UNL     1       7.889  23.865  56.960  1.00  0.00    -0.322 N 
HETATM    6  C   UNL     1       7.821  25.205  57.212  1.00  0.00     0.255 A 
HETATM    7  O   UNL     1       7.913  25.632  58.361  1.00  0.00    -0.268 OA
HETATM    8  C   UNL     1       7.603  26.121  56.057  1.00  0.00     0.048 A 
HETATM    9  C   UNL     1       7.594  25.593  54.817  1.00  0.00     0.030 A 
HETATM   10  C   UNL     1       7.945  21.903  55.519  1.00  0.00    -0.034 A 
HETATM   11  C   UNL     1       8.032  20.965  56.689  1.00  0.00     0.050 C 
HETATM   12  C   UNL     1       7.942  21.377  54.222  1.00  0.00     0.009 A 
HETATM   13  C   UNL     1       7.854  22.218  53.111  1.00  0.00     0.008 A 
HETATM   14  H   UNL     1       8.008  23.280  57.774  1.00  0.00     0.169 HD
ENDROOT
BRANCH   8  15
HETATM   15  C   UNL     1       7.462  27.591  56.386  1.00  0.00     0.202 C 
HETATM   16  N   UNL     1       8.461  28.030  57.316  1.00  0.00    -0.336 N 
HETATM   17  C   UNL     1       8.439  29.328  57.766  1.00  0.00     0.255 C 
HETATM   18  H   UNL     1       9.412  27.721  57.120  1.00  0.00     0.164 HD
HETATM   19  O   UNL     1       9.451  29.905  58.139  1.00  0.00    -0.268 OA
HETATM   20  C   UNL     1       7.109  29.967  57.808  1.00  0.00     0.053 A 
HETATM   21  C   UNL     1       6.009  29.195  57.415  1.00  0.00     0.026 A 
HETATM   22  C   UNL     1       6.948  31.271  58.284  1.00  0.00     0.019 A 
HETATM   23  N   UNL     1       6.164  27.842  57.021  1.00  0.00    -0.266 NA
HETATM   24  C   UNL     1       4.727  29.718  57.589  1.00  0.00     0.024 A 
HETATM   25  H   UNL     1       6.139  27.291  57.880  1.00  0.00     0.130 HD
HETATM   26  C   UNL     1       4.555  31.020  58.067  1.00  0.00     0.002 A 
HETATM   27  C   UNL     1       5.663  31.799  58.405  1.00  0.00     0.001 A 
ENDBRANCH   8  15
TORSDOF 1
ENDMDL
MODEL 2
REMARK VINA RESULT:     -10.6      1.368      2.153
REMARK  1 active torsions:
REMARK  status: ('A' for Active; 'I' for Inactive)
REMARK    1  A    between atoms: C_8  and  C_9 
ROOT
HETATM    1  C   UNL     1       7.148  25.167  52.395  1.00  0.00     0.049 C 
HETATM    2  C   UNL     1       7.677  24.073  53.283  1.00  0.00    -0.050 A 
HETATM    3  C   UNL     1       7.916  24.265  54.658  1.00  0.00    -0.002 A 
HETATM    4  C   UNL     1       8.439  23.208  55.427  1.00  0.00     0.051 A 
HETATM    5  N   UNL     1       8.720  23.440  56.783  1.00  0.00    -0.322 N 
HETATM    6  C   UNL     1       8.520  24.631  57.419  1.00  0.00     0.255 A 
HETATM    7  O   UNL     1       8.840  24.773  58.597  1.00  0.00    -0.268 OA
HETATM    8  C   UNL     1       7.876  25.733  56.650  1.00  0.00     0.048 A 
HETATM    9  C   UNL     1       7.627  25.534  55.340  1.00  0.00     0.030 A 
HETATM   10  C   UNL     1       8.696  21.949  54.858  1.00  0.00    -0.034 A 
HETATM   11  C   UNL     1       9.222  20.795  55.663  1.00  0.00     0.050 C 
HETATM   12  C   UNL     1       8.438  21.769  53.494  1.00  0.00     0.009 A 
HETATM   13  C   UNL     1       7.942  22.817  52.717  1.00  0.00     0.008 A 
HETATM   14  H   UNL     1       9.132  22.713  57.350  1.00  0.00     0.169 HD
ENDROOT
BRANCH   8  15
HETATM   15  C   UNL     1       7.607  27.012  57.410  1.00  0.00     0.202 C 
HETATM   16  N   UNL     1       6.461  27.707  56.899  1.00  0.00    -0.336 N 
HETATM   17  C   UNL     1       6.114  28.921  57.442  1.00  0.00     0.255 C 
HETATM   18  H   UNL     1       5.641  27.133  56.719  1.00  0.00     0.164 HD
HETATM   19  O   UNL     1       4.962  29.333  57.430  1.00  0.00    -0.268 OA
HETATM   20  C   UNL     1       7.226  29.714  58.002  1.00  0.00     0.053 A 
HETATM   21  C   UNL     1       8.514  29.174  57.908  1.00  0.00     0.026 A 
HETATM   22  C   UNL     1       7.008  30.983  58.546  1.00  0.00     0.019 A 
HETATM   23  N   UNL     1       8.744  27.928  57.272  1.00  0.00    -0.266 NA
HETATM   24  C   UNL     1       9.601  29.963  58.288  1.00  0.00     0.024 A 
HETATM   25  H   UNL     1       8.847  28.131  56.277  1.00  0.00     0.130 HD
HETATM   26  C   UNL     1       9.394  31.235  58.831  1.00  0.00     0.002 A 
HETATM   27  C   UNL     1       8.100  31.740  58.968  1.00  0.00     0.001 A 
ENDBRANCH   8  15
TORSDOF 1
ENDMDL
MODEL 3
REMARK VINA RESULT:     -10.4      1.818      7.469
REMARK  1 active torsions:
REMARK  status: ('A' for Active; 'I' for Inactive)
REMARK    1  A    between atoms: C_8  and  C_9 
ROOT
HETATM    1  C   UNL     1      11.366  29.720  57.258  1.00  0.00     0.049 C 
HETATM    2  C   UNL     1      10.090  30.265  57.844  1.00  0.00    -0.050 A 
HETATM    3  C   UNL     1       8.860  29.586  57.739  1.00  0.00    -0.002 A 
HETATM    4  C   UNL     1       7.697  30.166  58.283  1.00  0.00     0.051 A 
HETATM    5  N   UNL     1       6.475  29.497  58.117  1.00  0.00    -0.322 N 
HETATM    6  C   UNL     1       6.327  28.310  57.459  1.00  0.00     0.255 A 
HETATM    7  O   UNL     1       5.214  27.811  57.310  1.00  0.00    -0.268 OA
HETATM    8  C   UNL     1       7.557  27.631  56.961  1.00  0.00     0.048 A 
HETATM    9  C   UNL     1       8.735  28.275  57.087  1.00  0.00     0.030 A 
HETATM   10  C   UNL     1       7.745  31.395  58.962  1.00  0.00    -0.034 A 
HETATM   11  C   UNL     1       6.526  32.017  59.582  1.00  0.00     0.050 C 
HETATM   12  C   UNL     1       8.977  32.048  59.074  1.00  0.00     0.009 A 
HETATM   13  C   UNL     1      10.131  31.495  58.517  1.00  0.00     0.008 A 
HETATM   14  H   UNL     1       5.619  29.906  58.463  1.00  0.00     0.169 HD
ENDROOT
BRANCH   8  15
HETATM   15  C   UNL     1       7.359  26.285  56.302  1.00  0.00     0.202 C 
HETATM   16  N   UNL     1       8.123  25.256  56.944  1.00  0.00    -0.336 N 
HETATM   17  C   UNL     1       8.102  23.981  56.431  1.00  0.00     0.255 C 
HETATM   18  H   UNL     1       8.083  25.247  57.961  1.00  0.00     0.164 HD
HETATM   19  O   UNL     1       8.297  22.995  57.129  1.00  0.00    -0.268 OA
HETATM   20  C   UNL     1       7.871  23.882  54.976  1.00  0.00     0.053 A 
HETATM   21  C   UNL     1       7.721  25.078  54.263  1.00  0.00     0.026 A 
HETATM   22  C   UNL     1       7.867  22.644  54.327  1.00  0.00     0.019 A 
HETATM   23  N   UNL     1       7.818  26.335  54.909  1.00  0.00    -0.266 NA
HETATM   24  C   UNL     1       7.655  25.023  52.870  1.00  0.00     0.024 A 
HETATM   25  H   UNL     1       8.812  26.569  54.929  1.00  0.00     0.130 HD
HETATM   26  C   UNL     1       7.653  23.790  52.211  1.00  0.00     0.002 A 
HETATM   27  C   UNL     1       7.750  22.602  52.939  1.00  0.00     0.001 A 
ENDBRANCH   8  15
TORSDOF 1
ENDMDL
MODEL 4
REMARK VINA RESULT:      -9.9      2.469      7.713
REMARK  1 active torsions:
REMARK  status: ('A' for Active; 'I' for Inactive)
REMARK    1  A    between atoms: C_8  and  C_9 
ROOT
HETATM    1  C   UNL     1       7.667  28.761  58.026  1.00  0.00     0.049 C 
HETATM    2  C   UNL     1       6.624  29.031  56.975  1.00  0.00    -0.050 A 
HETATM    3  C   UNL     1       6.137  28.025  56.117  1.00  0.00    -0.002 A 
HETATM    4  C   UNL     1       5.182  28.351  55.135  1.00  0.00     0.051 A 
HETATM    5  N   UNL     1       4.754  27.344  54.256  1.00  0.00    -0.322 N 
HETATM    6  C   UNL     1       5.200  26.055  54.284  1.00  0.00     0.255 A 
HETATM    7  O   UNL     1       4.817  25.241  53.447  1.00  0.00    -0.268 OA
HETATM    8  C   UNL     1       6.137  25.664  55.375  1.00  0.00     0.048 A 
HETATM    9  C   UNL     1       6.579  26.627  56.209  1.00  0.00     0.030 A 
HETATM   10  C   UNL     1       4.675  29.656  55.016  1.00  0.00    -0.034 A 
HETATM   11  C   UNL     1       3.630  30.023  54.000  1.00  0.00     0.050 C 
HETATM   12  C   UNL     1       5.155  30.641  55.887  1.00  0.00     0.009 A 
HETATM   13  C   UNL     1       6.120  30.334  56.848  1.00  0.00     0.008 A 
HETATM   14  H   UNL     1       4.099  27.557  53.517  1.00  0.00     0.169 HD
ENDROOT
BRANCH   8  15
HETATM   15  C   UNL     1       6.552  24.211  55.414  1.00  0.00     0.202 C 
HETATM   16  N   UNL     1       7.524  23.959  56.438  1.00  0.00    -0.336 N 
HETATM   17  C   UNL     1       8.052  22.697  56.569  1.00  0.00     0.255 C 
HETATM   18  H   UNL     1       7.326  24.374  57.346  1.00  0.00     0.164 HD
HETATM   19  O   UNL     1       8.477  22.277  57.636  1.00  0.00    -0.268 OA
HETATM   20  C   UNL     1       8.112  21.897  55.329  1.00  0.00     0.053 A 
HETATM   21  C   UNL     1       7.655  22.499  54.151  1.00  0.00     0.026 A 
HETATM   22  C   UNL     1       8.665  20.613  55.323  1.00  0.00     0.019 A 
HETATM   23  N   UNL     1       7.181  23.834  54.143  1.00  0.00    -0.266 NA
HETATM   24  C   UNL     1       7.840  21.827  52.941  1.00  0.00     0.024 A 
HETATM   25  H   UNL     1       8.004  24.427  54.028  1.00  0.00     0.130 HD
HETATM   26  C   UNL     1       8.394  20.544  52.923  1.00  0.00     0.002 A 
HETATM   27  C   UNL     1       8.797  19.934  54.112  1.00  0.00     0.001 A 
ENDBRANCH   8  15
TORSDOF 1
ENDMDL
MODEL 5
REMARK VINA RESULT:      -9.9      1.851      2.980
REMARK  1 active torsions:
REMARK  status: ('A' for Active; 'I' for Inactive)
REMARK    1  A    between atoms: C_8  and  C_9 
ROOT
HETATM    1  C   UNL     1       8.399  21.675  58.148  1.00  0.00     0.049 C 
HETATM    2  C   UNL     1       8.344  21.455  56.660  1.00  0.00    -0.050 A 
HETATM    3  C   UNL     1       8.025  22.488  55.755  1.00  0.00    -0.002 A 
HETATM    4  C   UNL     1       7.961  22.209  54.376  1.00  0.00     0.051 A 
HETATM    5  N   UNL     1       7.587  23.240  53.501  1.00  0.00    -0.322 N 
HETATM    6  C   UNL     1       7.277  24.510  53.892  1.00  0.00     0.255 A 
HETATM    7  O   UNL     1       6.907  25.346  53.071  1.00  0.00    -0.268 OA
HETATM    8  C   UNL     1       7.432  24.853  55.334  1.00  0.00     0.048 A 
HETATM    9  C   UNL     1       7.763  23.866  56.191  1.00  0.00     0.030 A 
HETATM   10  C   UNL     1       8.245  20.926  53.878  1.00  0.00    -0.034 A 
HETATM   11  C   UNL     1       8.218  20.611  52.409  1.00  0.00     0.050 C 
HETATM   12  C   UNL     1       8.578  19.916  54.787  1.00  0.00     0.009 A 
HETATM   13  C   UNL     1       8.620  20.175  56.158  1.00  0.00     0.008 A 
HETATM   14  H   UNL     1       7.495  23.060  52.511  1.00  0.00     0.169 HD
ENDROOT
BRANCH   8  15
HETATM   15  C   UNL     1       7.148  26.288  55.716  1.00  0.00     0.202 C 
HETATM   16  N   UNL     1       7.603  26.590  57.041  1.00  0.00    -0.336 N 
HETATM   17  C   UNL     1       7.368  27.839  57.566  1.00  0.00     0.255 C 
HETATM   18  H   UNL     1       8.538  26.261  57.272  1.00  0.00     0.164 HD
HETATM   19  O   UNL     1       8.091  28.331  58.422  1.00  0.00    -0.268 OA
HETATM   20  C   UNL     1       6.165  28.528  57.061  1.00  0.00     0.053 A 
HETATM   21  C   UNL     1       5.374  27.847  56.128  1.00  0.00     0.026 A 
HETATM   22  C   UNL     1       5.795  29.786  57.546  1.00  0.00     0.019 A 
HETATM   23  N   UNL     1       5.702  26.534  55.707  1.00  0.00    -0.266 NA
HETATM   24  C   UNL     1       4.153  28.406  55.749  1.00  0.00     0.024 A 
HETATM   25  H   UNL     1       5.286  25.903  56.395  1.00  0.00     0.130 HD
HETATM   26  C   UNL     1       3.772  29.662  56.230  1.00  0.00     0.002 A 
HETATM   27  C   UNL     1       4.596  30.355  57.120  1.00  0.00     0.001 A 
ENDBRANCH   8  15
TORSDOF 1
ENDMDL
MODEL 6
REMARK VINA RESULT:      -9.8      1.930      3.332
REMARK  1 active torsions:
REMARK  status: ('A' for Active; 'I' for Inactive)
REMARK    1  A    between atoms: C_8  and  C_9 
ROOT
HETATM    1  C   UNL     1       8.303  22.759  57.203  1.00  0.00     0.049 C 
HETATM    2  C   UNL     1       8.140  23.276  55.798  1.00  0.00    -0.050 A 
HETATM    3  C   UNL     1       7.888  24.634  55.517  1.00  0.00    -0.002 A 
HETATM    4  C   UNL     1       7.716  25.047  54.182  1.00  0.00     0.051 A 
HETATM    5  N   UNL     1       7.411  26.394  53.932  1.00  0.00    -0.322 N 
HETATM    6  C   UNL     1       7.267  27.346  54.899  1.00  0.00     0.255 A 
HETATM    7  O   UNL     1       6.947  28.495  54.605  1.00  0.00    -0.268 OA
HETATM    8  C   UNL     1       7.540  26.952  56.310  1.00  0.00     0.048 A 
HETATM    9  C   UNL     1       7.806  25.656  56.570  1.00  0.00     0.030 A 
HETATM   10  C   UNL     1       7.828  24.137  53.117  1.00  0.00    -0.034 A 
HETATM   11  C   UNL     1       7.683  24.558  51.682  1.00  0.00     0.050 C 
HETATM   12  C   UNL     1       8.096  22.795  53.411  1.00  0.00     0.009 A 
HETATM   13  C   UNL     1       8.243  22.370  54.732  1.00  0.00     0.008 A 
HETATM   14  H   UNL     1       7.245  26.712  52.988  1.00  0.00     0.169 HD
ENDROOT
BRANCH   8  15
HETATM   15  C   UNL     1       7.439  28.051  57.344  1.00  0.00     0.202 C 
HETATM   16  N   UNL     1       6.328  28.922  57.093  1.00  0.00    -0.336 N 
HETATM   17  C   UNL     1       6.129  30.011  57.908  1.00  0.00     0.255 C 
HETATM   18  H   UNL     1       5.449  28.461  56.868  1.00  0.00     0.164 HD
HETATM   19  O   UNL     1       5.020  30.497  58.083  1.00  0.00    -0.268 OA
HETATM   20  C   UNL     1       7.344  30.579  58.525  1.00  0.00     0.053 A 
HETATM   21  C   UNL     1       8.569  29.981  58.207  1.00  0.00     0.026 A 
HETATM   22  C   UNL     1       7.279  31.711  59.341  1.00  0.00     0.019 A 
HETATM   23  N   UNL     1       8.642  28.890  57.305  1.00  0.00    -0.266 NA
HETATM   24  C   UNL     1       9.746  30.587  58.650  1.00  0.00     0.024 A 
HETATM   25  H   UNL     1       8.694  29.297  56.370  1.00  0.00     0.130 HD
HETATM   26  C   UNL     1       9.691  31.722  59.465  1.00  0.00     0.002 A 
HETATM   27  C   UNL     1       8.460  32.277  59.817  1.00  0.00     0.001 A 
ENDBRANCH   8  15
TORSDOF 1
ENDMDL
MODEL 7
REMARK VINA RESULT:      -9.8      2.025      7.611
REMARK  1 active torsions:
REMARK  status: ('A' for Active; 'I' for Inactive)
REMARK    1  A    between atoms: C_8  and  C_9 
ROOT
HETATM    1  C   UNL     1       9.749  29.890  57.794  1.00  0.00     0.049 C 
HETATM    2  C   UNL     1       8.247  29.996  57.758  1.00  0.00    -0.050 A 
HETATM    3  C   UNL     1       7.438  29.049  57.100  1.00  0.00    -0.002 A 
HETATM    4  C   UNL     1       6.041  29.223  57.079  1.00  0.00     0.051 A 
HETATM    5  N   UNL     1       5.261  28.296  56.370  1.00  0.00    -0.322 N 
HETATM    6  C   UNL     1       5.763  27.224  55.690  1.00  0.00     0.255 A 
HETATM    7  O   UNL     1       5.020  26.486  55.048  1.00  0.00    -0.268 OA
HETATM    8  C   UNL     1       7.228  26.966  55.780  1.00  0.00     0.048 A 
HETATM    9  C   UNL     1       7.994  27.863  56.433  1.00  0.00     0.030 A 
HETATM   10  C   UNL     1       5.431  30.306  57.734  1.00  0.00    -0.034 A 
HETATM   11  C   UNL     1       3.941  30.496  57.756  1.00  0.00     0.050 C 
HETATM   12  C   UNL     1       6.247  31.229  58.399  1.00  0.00     0.009 A 
HETATM   13  C   UNL     1       7.635  31.080  58.405  1.00  0.00     0.008 A 
HETATM   14  H   UNL     1       4.260  28.416  56.305  1.00  0.00     0.169 HD
ENDROOT
BRANCH   8  15
HETATM   15  C   UNL     1       7.735  25.730  55.073  1.00  0.00     0.202 C 
HETATM   16  N   UNL     1       7.344  25.703  53.694  1.00  0.00    -0.336 N 
HETATM   17  C   UNL     1       7.674  24.616  52.920  1.00  0.00     0.255 C 
HETATM   18  H   UNL     1       7.471  26.574  53.182  1.00  0.00     0.164 HD
HETATM   19  O   UNL     1       7.820  24.699  51.709  1.00  0.00    -0.268 OA
HETATM   20  C   UNL     1       7.800  23.334  53.641  1.00  0.00     0.053 A 
HETATM   21  C   UNL     1       7.550  23.341  55.019  1.00  0.00     0.026 A 
HETATM   22  C   UNL     1       8.091  22.148  52.962  1.00  0.00     0.019 A 
HETATM   23  N   UNL     1       7.164  24.528  55.690  1.00  0.00    -0.266 NA
HETATM   24  C   UNL     1       7.511  22.122  55.699  1.00  0.00     0.024 A 
HETATM   25  H   UNL     1       6.150  24.592  55.591  1.00  0.00     0.130 HD
HETATM   26  C   UNL     1       7.799  20.930  55.028  1.00  0.00     0.002 A 
HETATM   27  C   UNL     1       8.097  20.943  53.664  1.00  0.00     0.001 A 
ENDBRANCH   8  15
TORSDOF 1
ENDMDL
MODEL 8
REMARK VINA RESULT:      -9.6      5.485      7.126
REMARK  1 active torsions:
REMARK  status: ('A' for Active; 'I' for Inactive)
REMARK    1  A    between atoms: C_8  and  C_9 
ROOT
HETATM    1  C   UNL     1       8.045  23.579  52.483  1.00  0.00     0.049 C 
HETATM    2  C   UNL     1       7.263  24.114  53.652  1.00  0.00    -0.050 A 
HETATM    3  C   UNL     1       6.305  25.139  53.514  1.00  0.00    -0.002 A 
HETATM    4  C   UNL     1       5.629  25.616  54.654  1.00  0.00     0.051 A 
HETATM    5  N   UNL     1       4.721  26.675  54.499  1.00  0.00    -0.322 N 
HETATM    6  C   UNL     1       4.440  27.285  53.311  1.00  0.00     0.255 A 
HETATM    7  O   UNL     1       3.671  28.242  53.264  1.00  0.00    -0.268 OA
HETATM    8  C   UNL     1       5.071  26.733  52.079  1.00  0.00     0.048 A 
HETATM    9  C   UNL     1       5.967  25.735  52.214  1.00  0.00     0.030 A 
HETATM   10  C   UNL     1       5.862  25.064  55.925  1.00  0.00    -0.034 A 
HETATM   11  C   UNL     1       5.129  25.530  57.150  1.00  0.00     0.050 C 
HETATM   12  C   UNL     1       6.803  24.034  56.042  1.00  0.00     0.009 A 
HETATM   13  C   UNL     1       7.498  23.571  54.924  1.00  0.00     0.008 A 
HETATM   14  H   UNL     1       4.249  27.063  55.304  1.00  0.00     0.169 HD
ENDROOT
BRANCH   8  15
HETATM   15  C   UNL     1       4.681  27.390  50.774  1.00  0.00     0.202 C 
HETATM   16  N   UNL     1       5.181  26.670  49.640  1.00  0.00    -0.336 N 
HETATM   17  C   UNL     1       4.965  27.167  48.377  1.00  0.00     0.255 C 
HETATM   18  H   UNL     1       5.054  25.660  49.668  1.00  0.00     0.164 HD
HETATM   19  O   UNL     1       4.912  26.442  47.393  1.00  0.00    -0.268 OA
HETATM   20  C   UNL     1       4.843  28.635  48.280  1.00  0.00     0.053 A 
HETATM   21  C   UNL     1       4.981  29.373  49.462  1.00  0.00     0.026 A 
HETATM   22  C   UNL     1       4.662  29.266  47.047  1.00  0.00     0.019 A 
HETATM   23  N   UNL     1       5.257  28.737  50.698  1.00  0.00    -0.266 NA
HETATM   24  C   UNL     1       5.023  30.766  49.381  1.00  0.00     0.024 A 
HETATM   25  H   UNL     1       6.271  28.633  50.743  1.00  0.00     0.130 HD
HETATM   26  C   UNL     1       4.846  31.407  48.151  1.00  0.00     0.002 A 
HETATM   27  C   UNL     1       4.656  30.659  46.987  1.00  0.00     0.001 A 
ENDBRANCH   8  15
TORSDOF 1
ENDMDL
MODEL 9
REMARK VINA RESULT:      -9.5      3.143      7.361
REMARK  1 active torsions:
REMARK  status: ('A' for Active; 'I' for Inactive)
REMARK    1  A    between atoms: C_8  and  C_9 
ROOT
HETATM    1  C   UNL     1       4.941  26.554  50.131  1.00  0.00     0.049 C 
HETATM    2  C   UNL     1       4.606  27.499  51.254  1.00  0.00    -0.050 A 
HETATM    3  C   UNL     1       4.840  27.177  52.607  1.00  0.00    -0.002 A 
HETATM    4  C   UNL     1       4.477  28.094  53.612  1.00  0.00     0.051 A 
HETATM    5  N   UNL     1       4.669  27.728  54.953  1.00  0.00    -0.322 N 
HETATM    6  C   UNL     1       5.189  26.534  55.361  1.00  0.00     0.255 A 
HETATM    7  O   UNL     1       5.278  26.264  56.556  1.00  0.00    -0.268 OA
HETATM    8  C   UNL     1       5.670  25.589  54.313  1.00  0.00     0.048 A 
HETATM    9  C   UNL     1       5.466  25.914  53.021  1.00  0.00     0.030 A 
HETATM   10  C   UNL     1       3.917  29.343  53.293  1.00  0.00    -0.034 A 
HETATM   11  C   UNL     1       3.553  30.352  54.344  1.00  0.00     0.050 C 
HETATM   12  C   UNL     1       3.707  29.654  51.945  1.00  0.00     0.009 A 
HETATM   13  C   UNL     1       4.041  28.744  50.941  1.00  0.00     0.008 A 
HETATM   14  H   UNL     1       4.383  28.348  55.697  1.00  0.00     0.169 HD
ENDROOT
BRANCH   8  15
HETATM   15  C   UNL     1       6.305  24.308  54.806  1.00  0.00     0.202 C 
HETATM   16  N   UNL     1       7.354  24.559  55.750  1.00  0.00    -0.336 N 
HETATM   17  C   UNL     1       8.076  23.503  56.253  1.00  0.00     0.255 C 
HETATM   18  H   UNL     1       7.141  25.241  56.476  1.00  0.00     0.164 HD
HETATM   19  O   UNL     1       8.613  23.545  57.351  1.00  0.00    -0.268 OA
HETATM   20  C   UNL     1       8.194  22.329  55.365  1.00  0.00     0.053 A 
HETATM   21  C   UNL     1       7.591  22.412  54.104  1.00  0.00     0.026 A 
HETATM   22  C   UNL     1       8.935  21.207  55.743  1.00  0.00     0.019 A 
HETATM   23  N   UNL     1       6.918  23.587  53.686  1.00  0.00    -0.266 NA
HETATM   24  C   UNL     1       7.814  21.384  53.186  1.00  0.00     0.024 A 
HETATM   25  H   UNL     1       7.634  24.198  53.291  1.00  0.00     0.130 HD
HETATM   26  C   UNL     1       8.556  20.258  53.554  1.00  0.00     0.002 A 
HETATM   27  C   UNL     1       9.108  20.165  54.833  1.00  0.00     0.001 A 
ENDBRANCH   8  15
TORSDOF 1
ENDMDL
MODEL 10
REMARK VINA RESULT:      -9.5      3.396      5.518
REMARK  1 active torsions:
REMARK  status: ('A' for Active; 'I' for Inactive)
REMARK    1  A    between atoms: C_8  and  C_9 
ROOT
HETATM    1  C   UNL     1       8.063  26.031  57.365  1.00  0.00     0.049 C 
HETATM    2  C   UNL     1       7.290  26.886  56.396  1.00  0.00    -0.050 A 
HETATM    3  C   UNL     1       6.996  28.241  56.652  1.00  0.00    -0.002 A 
HETATM    4  C   UNL     1       6.243  28.977  55.718  1.00  0.00     0.051 A 
HETATM    5  N   UNL     1       5.917  30.308  56.020  1.00  0.00    -0.322 N 
HETATM    6  C   UNL     1       6.281  30.951  57.168  1.00  0.00     0.255 A 
HETATM    7  O   UNL     1       5.913  32.102  57.385  1.00  0.00    -0.268 OA
HETATM    8  C   UNL     1       7.161  30.222  58.125  1.00  0.00     0.048 A 
HETATM    9  C   UNL     1       7.458  28.933  57.863  1.00  0.00     0.030 A 
HETATM   10  C   UNL     1       5.806  28.398  54.514  1.00  0.00    -0.034 A 
HETATM   11  C   UNL     1       5.031  29.171  53.485  1.00  0.00     0.050 C 
HETATM   12  C   UNL     1       6.120  27.057  54.267  1.00  0.00     0.009 A 
HETATM   13  C   UNL     1       6.846  26.310  55.197  1.00  0.00     0.008 A 
HETATM   14  H   UNL     1       5.345  30.850  55.387  1.00  0.00     0.169 HD
ENDROOT
BRANCH   8  15
HETATM   15  C   UNL     1       7.600  30.992  59.350  1.00  0.00     0.202 C 
HETATM   16  N   UNL     1       8.326  30.165  60.270  1.00  0.00    -0.336 N 
HETATM   17  C   UNL     1       8.747  30.697  61.466  1.00  0.00     0.255 C 
HETATM   18  H   UNL     1       9.040  29.568  59.859  1.00  0.00     0.164 HD
HETATM   19  O   UNL     1       9.727  30.268  62.060  1.00  0.00    -0.268 OA
HETATM   20  C   UNL     1       7.916  31.792  62.007  1.00  0.00     0.053 A 
HETATM   21  C   UNL     1       6.782  32.162  61.275  1.00  0.00     0.026 A 
HETATM   22  C   UNL     1       8.216  32.388  63.234  1.00  0.00     0.019 A 
HETATM   23  N   UNL     1       6.429  31.493  60.077  1.00  0.00    -0.266 NA
HETATM   24  C   UNL     1       5.896  33.085  61.834  1.00  0.00     0.024 A 
HETATM   25  H   UNL     1       5.879  30.680  60.357  1.00  0.00     0.130 HD
HETATM   26  C   UNL     1       6.185  33.685  63.063  1.00  0.00     0.002 A 
HETATM   27  C   UNL     1       7.347  33.345  63.757  1.00  0.00     0.001 A 
ENDBRANCH   8  15
TORSDOF 1
ENDMDL
