MODEL 1
REMARK VINA RESULT:     -11.8      0.000      0.000
REMARK  8 active torsions:
REMARK  status: ('A' for Active; 'I' for Inactive)
REMARK    1  A    between atoms: C_4  and  C_5 
REMARK    2  A    between atoms: C_5  and  N_6 
REMARK    3  A    between atoms: C_5  and  C_32 
REMARK       I    between atoms: N_10  and  C_11 
REMARK    4  A    between atoms: C_11  and  C_12 
REMARK    5  A    between atoms: C_13  and  N_14 
REMARK    6  A    between atoms: N_14  and  C_15 
REMARK    7  A    between atoms: C_15  and  N_16 
REMARK       I    between atoms: N_16  and  C_17 
REMARK    8  A    between atoms: C_17  and  C_18 
ROOT
HETATM    1  N   UNL     1       7.004  25.229  55.558  1.00  0.00    -0.056 N 
HETATM    2  H   UNL     1       6.804  24.459  56.205  1.00  0.00     0.281 HD
HETATM    3  C   UNL     1       8.216  25.971  56.124  1.00  0.00     0.256 C 
HETATM    4  C   UNL     1       7.893  26.508  57.528  1.00  0.00     0.154 C 
HETATM    5  N   UNL     1       6.697  27.351  57.475  1.00  0.00    -0.345 N 
HETATM    6  C   UNL     1       6.735  28.731  57.193  1.00  0.00     0.256 C 
HETATM    7  O   UNL     1       5.757  29.312  56.730  1.00  0.00    -0.267 OA
HETATM    8  C   UNL     1       5.504  26.628  57.017  1.00  0.00     0.154 C 
HETATM    9  C   UNL     1       5.739  26.098  55.583  1.00  0.00     0.256 C 
ENDROOT
BRANCH   6  10
HETATM   10  C   UNL     1       8.027  29.459  57.276  1.00  0.00     0.058 A 
HETATM   11  C   UNL     1       8.495  30.145  58.412  1.00  0.00     0.049 A 
HETATM   12  C   UNL     1       9.840  30.539  58.453  1.00  0.00     0.030 A 
HETATM   13  C   UNL     1      10.677  30.343  57.352  1.00  0.00     0.002 A 
HETATM   14  C   UNL     1      10.186  29.735  56.200  1.00  0.00     0.001 A 
HETATM   15  C   UNL     1       8.868  29.285  56.163  1.00  0.00     0.019 A 
BRANCH  11  16
HETATM   16  N   UNL     1       7.730  30.427  59.564  1.00  0.00    -0.337 N 
HETATM   17  H   UNL     1       7.464  29.635  60.140  1.00  0.00     0.168 HD
BRANCH  16  18
HETATM   18  C   UNL     1       7.301  31.623  60.034  1.00  0.00     0.157 C 
HETATM   19  S   UNL     1       5.873  32.256  59.435  1.00  0.00    -0.047 SA
BRANCH  18  20
HETATM   20  N   UNL     1       7.929  32.262  61.060  1.00  0.00    -0.199 NA
HETATM   21  C   UNL     1       8.003  31.714  62.337  1.00  0.00     0.261 C 
HETATM   22  O   UNL     1       8.670  30.726  62.625  1.00  0.00    -0.271 OA
HETATM   23  H   UNL     1       7.589  33.219  61.099  1.00  0.00     0.139 HD
BRANCH  21  24
HETATM   24  C   UNL     1       7.248  32.454  63.330  1.00  0.00     0.137 A 
HETATM   25  O   UNL     1       5.878  32.398  63.313  1.00  0.00    -0.318 OA
HETATM   26  C   UNL     1       5.437  33.124  64.372  1.00  0.00     0.143 A 
HETATM   27  C   UNL     1       6.496  33.654  65.070  1.00  0.00     0.027 A 
HETATM   28  C   UNL     1       7.664  33.229  64.395  1.00  0.00     0.044 A 
ENDBRANCH  21  24
ENDBRANCH  18  20
ENDBRANCH  16  18
ENDBRANCH  11  16
ENDBRANCH   6  10
BRANCH   1  29
HETATM   29  C   UNL     1       7.333  24.539  54.231  1.00  0.00     0.254 C 
BRANCH  29  30
HETATM   30  C   UNL     1       6.495  24.994  53.039  1.00  0.00    -0.023 A 
HETATM   31  C   UNL     1       6.890  26.146  52.327  1.00  0.00     0.009 A 
HETATM   32  C   UNL     1       6.131  26.636  51.262  1.00  0.00     0.001 A 
HETATM   33  C   UNL     1       4.965  25.984  50.880  1.00  0.00     0.000 A 
HETATM   34  C   UNL     1       4.559  24.839  51.560  1.00  0.00     0.001 A 
HETATM   35  C   UNL     1       5.315  24.350  52.629  1.00  0.00     0.009 A 
ENDBRANCH  29  30
BRANCH  29  36
HETATM   36  C   UNL     1       7.619  23.049  54.405  1.00  0.00    -0.023 A 
HETATM   37  C   UNL     1       8.021  22.311  53.268  1.00  0.00     0.009 A 
HETATM   38  C   UNL     1       8.292  20.944  53.348  1.00  0.00     0.001 A 
HETATM   39  C   UNL     1       8.168  20.283  54.563  1.00  0.00     0.000 A 
HETATM   40  C   UNL     1       7.775  20.989  55.696  1.00  0.00     0.001 A 
HETATM   41  C   UNL     1       7.504  22.359  55.620  1.00  0.00     0.009 A 
ENDBRANCH  29  36
ENDBRANCH   1  29
TORSDOF 8
ENDMDL
MODEL 2
REMARK VINA RESULT:     -11.0      0.765      3.223
REMARK  8 active torsions:
REMARK  status: ('A' for Active; 'I' for Inactive)
REMARK    1  A    between atoms: C_4  and  C_5 
REMARK    2  A    between atoms: C_5  and  N_6 
REMARK    3  A    between atoms: C_5  and  C_32 
REMARK       I    between atoms: N_10  and  C_11 
REMARK    4  A    between atoms: C_11  and  C_12 
REMARK    5  A    between atoms: C_13  and  N_14 
REMARK    6  A    between atoms: N_14  and  C_15 
REMARK    7  A    between atoms: C_15  and  N_16 
REMARK       I    between atoms: N_16  and  C_17 
REMARK    8  A    between atoms: C_17  and  C_18 
ROOT
HETATM    1  N   UNL     1       5.950  25.466  55.676  1.00  0.00    -0.056 N 
HETATM    2  H   UNL     1       5.611  24.829  56.403  1.00  0.00     0.281 HD
HETATM    3  C   UNL     1       7.323  25.961  56.133  1.00  0.00     0.256 C 
HETATM    4  C   UNL     1       7.194  26.690  57.481  1.00  0.00     0.154 C 
HETATM    5  N   UNL     1       6.220  27.776  57.367  1.00  0.00    -0.345 N 
HETATM    6  C   UNL     1       6.557  29.077  56.942  1.00  0.00     0.256 C 
HETATM    7  O   UNL     1       5.716  29.820  56.442  1.00  0.00    -0.267 OA
HETATM    8  C   UNL     1       4.874  27.307  57.013  1.00  0.00     0.154 C 
HETATM    9  C   UNL     1       4.918  26.601  55.638  1.00  0.00     0.256 C 
ENDROOT
BRANCH   6  10
HETATM   10  C   UNL     1       7.982  29.492  56.919  1.00  0.00     0.058 A 
HETATM   11  C   UNL     1       8.719  29.907  58.043  1.00  0.00     0.049 A 
HETATM   12  C   UNL     1      10.115  29.993  57.939  1.00  0.00     0.030 A 
HETATM   13  C   UNL     1      10.756  29.768  56.718  1.00  0.00     0.002 A 
HETATM   14  C   UNL     1      10.013  29.436  55.589  1.00  0.00     0.001 A 
HETATM   15  C   UNL     1       8.631  29.289  55.689  1.00  0.00     0.019 A 
BRANCH  11  16
HETATM   16  N   UNL     1       8.174  30.194  59.313  1.00  0.00    -0.337 N 
HETATM   17  H   UNL     1       8.076  29.413  59.954  1.00  0.00     0.168 HD
BRANCH  16  18
HETATM   18  C   UNL     1       7.765  31.383  59.820  1.00  0.00     0.157 C 
HETATM   19  S   UNL     1       6.397  32.101  59.178  1.00  0.00    -0.047 SA
BRANCH  18  20
HETATM   20  N   UNL     1       8.360  31.944  60.909  1.00  0.00    -0.199 NA
HETATM   21  C   UNL     1       8.250  31.387  62.180  1.00  0.00     0.261 C 
HETATM   22  O   UNL     1       8.774  30.330  62.516  1.00  0.00    -0.271 OA
HETATM   23  H   UNL     1       8.125  32.933  60.929  1.00  0.00     0.139 HD
BRANCH  21  24
HETATM   24  C   UNL     1       7.491  32.204  63.107  1.00  0.00     0.137 A 
HETATM   25  O   UNL     1       6.123  32.108  63.123  1.00  0.00    -0.318 OA
HETATM   26  C   UNL     1       5.678  32.927  64.111  1.00  0.00     0.143 A 
HETATM   27  C   UNL     1       6.733  33.554  64.731  1.00  0.00     0.027 A 
HETATM   28  C   UNL     1       7.902  33.094  64.080  1.00  0.00     0.044 A 
ENDBRANCH  21  24
ENDBRANCH  18  20
ENDBRANCH  16  18
ENDBRANCH  11  16
ENDBRANCH   6  10
BRANCH   1  29
HETATM   29  C   UNL     1       6.054  24.594  54.421  1.00  0.00     0.254 C 
BRANCH  29  30
HETATM   30  C   UNL     1       7.140  23.521  54.465  1.00  0.00    -0.023 A 
HETATM   31  C   UNL     1       7.328  22.791  55.657  1.00  0.00     0.009 A 
HETATM   32  C   UNL     1       8.341  21.836  55.771  1.00  0.00     0.001 A 
HETATM   33  C   UNL     1       9.183  21.585  54.694  1.00  0.00     0.000 A 
HETATM   34  C   UNL     1       9.011  22.284  53.504  1.00  0.00     0.001 A 
HETATM   35  C   UNL     1       8.002  23.244  53.391  1.00  0.00     0.009 A 
ENDBRANCH  29  30
BRANCH  29  36
HETATM   36  C   UNL     1       5.866  25.398  53.135  1.00  0.00    -0.023 A 
HETATM   37  C   UNL     1       4.940  24.920  52.180  1.00  0.00     0.009 A 
HETATM   38  C   UNL     1       4.721  25.596  50.979  1.00  0.00     0.001 A 
HETATM   39  C   UNL     1       5.419  26.765  50.705  1.00  0.00     0.000 A 
HETATM   40  C   UNL     1       6.334  27.256  51.631  1.00  0.00     0.001 A 
HETATM   41  C   UNL     1       6.556  26.581  52.836  1.00  0.00     0.009 A 
ENDBRANCH  29  36
ENDBRANCH   1  29
TORSDOF 8
ENDMDL
MODEL 3
REMARK VINA RESULT:     -11.0      1.765      2.951
REMARK  8 active torsions:
REMARK  status: ('A' for Active; 'I' for Inactive)
REMARK    1  A    between atoms: C_4  and  C_5 
REMARK    2  A    between atoms: C_5  and  N_6 
REMARK    3  A    between atoms: C_5  and  C_32 
REMARK       I    between atoms: N_10  and  C_11 
REMARK    4  A    between atoms: C_11  and  C_12 
REMARK    5  A    between atoms: C_13  and  N_14 
REMARK    6  A    between atoms: N_14  and  C_15 
REMARK    7  A    between atoms: C_15  and  N_16 
REMARK       I    between atoms: N_16  and  C_17 
REMARK    8  A    between atoms: C_17  and  C_18 
ROOT
HETATM    1  N   UNL     1       7.066  25.202  55.510  1.00  0.00    -0.056 N 
HETATM    2  H   UNL     1       6.889  24.412  56.139  1.00  0.00     0.281 HD
HETATM    3  C   UNL     1       8.293  25.931  56.059  1.00  0.00     0.256 C 
HETATM    4  C   UNL     1       8.013  26.423  57.489  1.00  0.00     0.154 C 
HETATM    5  N   UNL     1       6.814  27.263  57.499  1.00  0.00    -0.345 N 
HETATM    6  C   UNL     1       6.839  28.651  57.259  1.00  0.00     0.256 C 
HETATM    7  O   UNL     1       5.845  29.242  56.845  1.00  0.00    -0.267 OA
HETATM    8  C   UNL     1       5.609  26.550  57.057  1.00  0.00     0.154 C 
HETATM    9  C   UNL     1       5.800  26.064  55.602  1.00  0.00     0.256 C 
ENDROOT
BRANCH   6  10
HETATM   10  C   UNL     1       8.130  29.381  57.323  1.00  0.00     0.058 A 
HETATM   11  C   UNL     1       8.682  29.945  58.488  1.00  0.00     0.049 A 
HETATM   12  C   UNL     1      10.025  30.348  58.470  1.00  0.00     0.030 A 
HETATM   13  C   UNL     1      10.775  30.284  57.294  1.00  0.00     0.002 A 
HETATM   14  C   UNL     1      10.200  29.799  56.123  1.00  0.00     0.001 A 
HETATM   15  C   UNL     1       8.884  29.340  56.137  1.00  0.00     0.019 A 
BRANCH  11  16
HETATM   16  N   UNL     1       8.007  30.090  59.719  1.00  0.00    -0.337 N 
HETATM   17  H   UNL     1       7.574  29.256  60.103  1.00  0.00     0.168 HD
BRANCH  16  18
HETATM   18  C   UNL     1       7.859  31.196  60.488  1.00  0.00     0.157 C 
HETATM   19  S   UNL     1       8.645  31.259  61.964  1.00  0.00    -0.047 SA
BRANCH  18  20
HETATM   20  N   UNL     1       7.195  32.299  60.043  1.00  0.00    -0.199 NA
HETATM   21  C   UNL     1       5.812  32.419  60.142  1.00  0.00     0.261 C 
HETATM   22  O   UNL     1       5.206  32.556  61.199  1.00  0.00    -0.271 OA
HETATM   23  H   UNL     1       7.507  32.502  59.097  1.00  0.00     0.139 HD
BRANCH  21  24
HETATM   24  C   UNL     1       5.138  32.418  58.857  1.00  0.00     0.137 A 
HETATM   25  O   UNL     1       5.745  33.009  57.779  1.00  0.00    -0.318 OA
HETATM   26  C   UNL     1       4.932  32.813  56.708  1.00  0.00     0.143 A 
HETATM   27  C   UNL     1       3.809  32.111  57.076  1.00  0.00     0.027 A 
HETATM   28  C   UNL     1       3.937  31.861  58.463  1.00  0.00     0.044 A 
ENDBRANCH  21  24
ENDBRANCH  18  20
ENDBRANCH  16  18
ENDBRANCH  11  16
ENDBRANCH   6  10
BRANCH   1  29
HETATM   29  C   UNL     1       7.355  24.553  54.153  1.00  0.00     0.254 C 
BRANCH  29  30
HETATM   30  C   UNL     1       6.495  25.059  52.997  1.00  0.00    -0.023 A 
HETATM   31  C   UNL     1       5.324  24.351  52.657  1.00  0.00     0.009 A 
HETATM   32  C   UNL     1       4.529  24.739  51.576  1.00  0.00     0.001 A 
HETATM   33  C   UNL     1       4.883  25.846  50.814  1.00  0.00     0.000 A 
HETATM   34  C   UNL     1       6.029  26.568  51.135  1.00  0.00     0.001 A 
HETATM   35  C   UNL     1       6.828  26.178  52.214  1.00  0.00     0.009 A 
ENDBRANCH  29  30
BRANCH  29  36
HETATM   36  C   UNL     1       7.625  23.055  54.269  1.00  0.00    -0.023 A 
HETATM   37  C   UNL     1       7.490  22.450  55.539  1.00  0.00     0.009 A 
HETATM   38  C   UNL     1       7.728  21.087  55.725  1.00  0.00     0.001 A 
HETATM   39  C   UNL     1       8.104  20.297  54.646  1.00  0.00     0.000 A 
HETATM   40  C   UNL     1       8.242  20.870  53.385  1.00  0.00     0.001 A 
HETATM   41  C   UNL     1       8.004  22.235  53.196  1.00  0.00     0.009 A 
ENDBRANCH  29  36
ENDBRANCH   1  29
TORSDOF 8
ENDMDL
MODEL 4
REMARK VINA RESULT:     -10.5      2.111      4.281
REMARK  8 active torsions:
REMARK  status: ('A' for Active; 'I' for Inactive)
REMARK    1  A    between atoms: C_4  and  C_5 
REMARK    2  A    between atoms: C_5  and  N_6 
REMARK    3  A    between atoms: C_5  and  C_32 
REMARK       I    between atoms: N_10  and  C_11 
REMARK    4  A    between atoms: C_11  and  C_12 
REMARK    5  A    between atoms: C_13  and  N_14 
REMARK    6  A    between atoms: N_14  and  C_15 
REMARK    7  A    between atoms: C_15  and  N_16 
REMARK       I    between atoms: N_16  and  C_17 
REMARK    8  A    between atoms: C_17  and  C_18 
ROOT
HETATM    1  N   UNL     1       6.610  24.376  56.073  1.00  0.00    -0.056 N 
HETATM    2  H   UNL     1       6.667  23.678  56.822  1.00  0.00     0.281 HD
HETATM    3  C   UNL     1       7.888  25.212  56.157  1.00  0.00     0.256 C 
HETATM    4  C   UNL     1       7.979  25.893  57.533  1.00  0.00     0.154 C 
HETATM    5  N   UNL     1       6.775  26.689  57.775  1.00  0.00    -0.345 N 
HETATM    6  C   UNL     1       6.638  28.029  57.362  1.00  0.00     0.256 C 
HETATM    7  O   UNL     1       5.530  28.526  57.174  1.00  0.00    -0.267 OA
HETATM    8  C   UNL     1       5.546  25.885  57.785  1.00  0.00     0.154 C 
HETATM    9  C   UNL     1       5.362  25.205  56.408  1.00  0.00     0.256 C 
ENDROOT
BRANCH   6  10
HETATM   10  C   UNL     1       7.844  28.800  56.966  1.00  0.00     0.058 A 
HETATM   11  C   UNL     1       8.681  29.499  57.854  1.00  0.00     0.049 A 
HETATM   12  C   UNL     1       9.932  29.938  57.395  1.00  0.00     0.030 A 
HETATM   13  C   UNL     1      10.301  29.771  56.058  1.00  0.00     0.002 A 
HETATM   14  C   UNL     1       9.435  29.149  55.165  1.00  0.00     0.001 A 
HETATM   15  C   UNL     1       8.213  28.655  55.617  1.00  0.00     0.019 A 
BRANCH  11  16
HETATM   16  N   UNL     1       8.396  29.754  59.213  1.00  0.00    -0.337 N 
HETATM   17  H   UNL     1       8.302  28.945  59.818  1.00  0.00     0.168 HD
BRANCH  16  18
HETATM   18  C   UNL     1       8.236  30.942  59.844  1.00  0.00     0.157 C 
HETATM   19  S   UNL     1       9.089  31.221  61.257  1.00  0.00    -0.047 SA
BRANCH  18  20
HETATM   20  N   UNL     1       7.503  31.954  59.302  1.00  0.00    -0.199 NA
HETATM   21  C   UNL     1       6.141  32.097  59.553  1.00  0.00     0.261 C 
HETATM   22  O   UNL     1       5.671  32.420  60.638  1.00  0.00    -0.271 OA
HETATM   23  H   UNL     1       7.690  31.987  58.303  1.00  0.00     0.139 HD
BRANCH  21  24
HETATM   24  C   UNL     1       5.311  31.875  58.384  1.00  0.00     0.137 A 
HETATM   25  O   UNL     1       4.021  31.441  58.549  1.00  0.00    -0.318 OA
HETATM   26  C   UNL     1       3.463  31.375  57.312  1.00  0.00     0.143 A 
HETATM   27  C   UNL     1       4.371  31.752  56.351  1.00  0.00     0.027 A 
HETATM   28  C   UNL     1       5.565  32.067  57.040  1.00  0.00     0.044 A 
ENDBRANCH  21  24
ENDBRANCH  18  20
ENDBRANCH  16  18
ENDBRANCH  11  16
ENDBRANCH   6  10
BRANCH   1  29
HETATM   29  C   UNL     1       6.558  23.552  54.783  1.00  0.00     0.254 C 
BRANCH  29  30
HETATM   30  C   UNL     1       7.489  22.342  54.750  1.00  0.00    -0.023 A 
HETATM   31  C   UNL     1       7.870  21.809  53.500  1.00  0.00     0.009 A 
HETATM   32  C   UNL     1       8.676  20.672  53.412  1.00  0.00     0.001 A 
HETATM   33  C   UNL     1       9.124  20.046  54.569  1.00  0.00     0.000 A 
HETATM   34  C   UNL     1       8.771  20.558  55.814  1.00  0.00     0.001 A 
HETATM   35  C   UNL     1       7.960  21.693  55.904  1.00  0.00     0.009 A 
ENDBRANCH  29  30
BRANCH  29  36
HETATM   36  C   UNL     1       6.444  24.428  53.537  1.00  0.00    -0.023 A 
HETATM   37  C   UNL     1       5.190  24.507  52.890  1.00  0.00     0.009 A 
HETATM   38  C   UNL     1       5.011  25.280  51.742  1.00  0.00     0.001 A 
HETATM   39  C   UNL     1       6.080  25.993  51.215  1.00  0.00     0.000 A 
HETATM   40  C   UNL     1       7.324  25.932  51.835  1.00  0.00     0.001 A 
HETATM   41  C   UNL     1       7.506  25.159  52.986  1.00  0.00     0.009 A 
ENDBRANCH  29  36
ENDBRANCH   1  29
TORSDOF 8
ENDMDL
MODEL 5
REMARK VINA RESULT:     -10.0      3.570      7.269
REMARK  8 active torsions:
REMARK  status: ('A' for Active; 'I' for Inactive)
REMARK    1  A    between atoms: C_4  and  C_5 
REMARK    2  A    between atoms: C_5  and  N_6 
REMARK    3  A    between atoms: C_5  and  C_32 
REMARK       I    between atoms: N_10  and  C_11 
REMARK    4  A    between atoms: C_11  and  C_12 
REMARK    5  A    between atoms: C_13  and  N_14 
REMARK    6  A    between atoms: N_14  and  C_15 
REMARK    7  A    between atoms: C_15  and  N_16 
REMARK       I    between atoms: N_16  and  C_17 
REMARK    8  A    between atoms: C_17  and  C_18 
ROOT
HETATM    1  N   UNL     1       4.802  28.299  50.910  1.00  0.00    -0.056 N 
HETATM    2  H   UNL     1       3.855  28.573  51.190  1.00  0.00     0.281 HD
HETATM    3  C   UNL     1       4.961  26.825  51.288  1.00  0.00     0.256 C 
HETATM    4  C   UNL     1       4.769  26.650  52.803  1.00  0.00     0.154 C 
HETATM    5  N   UNL     1       5.702  27.516  53.526  1.00  0.00    -0.345 N 
HETATM    6  C   UNL     1       7.013  27.126  53.867  1.00  0.00     0.256 C 
HETATM    7  O   UNL     1       7.894  27.961  54.060  1.00  0.00    -0.267 OA
HETATM    8  C   UNL     1       5.504  28.942  53.240  1.00  0.00     0.154 C 
HETATM    9  C   UNL     1       5.730  29.203  51.733  1.00  0.00     0.256 C 
ENDROOT
BRANCH   6  10
HETATM   10  C   UNL     1       7.388  25.691  53.807  1.00  0.00     0.058 A 
HETATM   11  C   UNL     1       7.226  24.770  54.859  1.00  0.00     0.049 A 
HETATM   12  C   UNL     1       7.349  23.401  54.581  1.00  0.00     0.030 A 
HETATM   13  C   UNL     1       7.720  22.961  53.308  1.00  0.00     0.002 A 
HETATM   14  C   UNL     1       7.957  23.881  52.291  1.00  0.00     0.001 A 
HETATM   15  C   UNL     1       7.783  25.242  52.535  1.00  0.00     0.019 A 
BRANCH  11  16
HETATM   16  N   UNL     1       6.885  25.105  56.188  1.00  0.00    -0.337 N 
HETATM   17  H   UNL     1       5.895  25.176  56.400  1.00  0.00     0.168 HD
BRANCH  16  18
HETATM   18  C   UNL     1       7.699  25.337  57.246  1.00  0.00     0.157 C 
HETATM   19  S   UNL     1       9.044  24.363  57.455  1.00  0.00    -0.047 SA
BRANCH  18  20
HETATM   20  N   UNL     1       7.522  26.408  58.069  1.00  0.00    -0.199 NA
HETATM   21  C   UNL     1       7.162  27.662  57.584  1.00  0.00     0.261 C 
HETATM   22  O   UNL     1       6.064  27.926  57.106  1.00  0.00    -0.271 OA
HETATM   23  H   UNL     1       8.330  26.478  58.682  1.00  0.00     0.139 HD
BRANCH  21  24
HETATM   24  C   UNL     1       8.200  28.663  57.739  1.00  0.00     0.137 A 
HETATM   25  O   UNL     1       8.167  29.503  58.822  1.00  0.00    -0.318 OA
HETATM   26  C   UNL     1       9.273  30.289  58.749  1.00  0.00     0.143 A 
HETATM   27  C   UNL     1      10.017  29.975  57.637  1.00  0.00     0.027 A 
HETATM   28  C   UNL     1       9.322  28.932  56.980  1.00  0.00     0.044 A 
ENDBRANCH  21  24
ENDBRANCH  18  20
ENDBRANCH  16  18
ENDBRANCH  11  16
ENDBRANCH   6  10
BRANCH   1  29
HETATM   29  C   UNL     1       4.825  28.497  49.391  1.00  0.00     0.254 C 
BRANCH  29  30
HETATM   30  C   UNL     1       5.087  29.929  48.928  1.00  0.00    -0.023 A 
HETATM   31  C   UNL     1       4.577  30.347  47.681  1.00  0.00     0.009 A 
HETATM   32  C   UNL     1       4.831  31.627  47.185  1.00  0.00     0.001 A 
HETATM   33  C   UNL     1       5.595  32.521  47.927  1.00  0.00     0.000 A 
HETATM   34  C   UNL     1       6.101  32.137  49.165  1.00  0.00     0.001 A 
HETATM   35  C   UNL     1       5.851  30.854  49.660  1.00  0.00     0.009 A 
ENDBRANCH  29  30
BRANCH  29  36
HETATM   36  C   UNL     1       3.747  27.680  48.681  1.00  0.00    -0.023 A 
HETATM   37  C   UNL     1       4.155  26.571  47.906  1.00  0.00     0.009 A 
HETATM   38  C   UNL     1       3.229  25.782  47.222  1.00  0.00     0.001 A 
HETATM   39  C   UNL     1       1.875  26.081  47.298  1.00  0.00     0.000 A 
HETATM   40  C   UNL     1       1.449  27.168  48.056  1.00  0.00     0.001 A 
HETATM   41  C   UNL     1       2.374  27.960  48.743  1.00  0.00     0.009 A 
ENDBRANCH  29  36
ENDBRANCH   1  29
TORSDOF 8
ENDMDL
MODEL 6
REMARK VINA RESULT:      -9.8      1.681      2.419
REMARK  8 active torsions:
REMARK  status: ('A' for Active; 'I' for Inactive)
REMARK    1  A    between atoms: C_4  and  C_5 
REMARK    2  A    between atoms: C_5  and  N_6 
REMARK    3  A    between atoms: C_5  and  C_32 
REMARK       I    between atoms: N_10  and  C_11 
REMARK    4  A    between atoms: C_11  and  C_12 
REMARK    5  A    between atoms: C_13  and  N_14 
REMARK    6  A    between atoms: N_14  and  C_15 
REMARK    7  A    between atoms: C_15  and  N_16 
REMARK       I    between atoms: N_16  and  C_17 
REMARK    8  A    between atoms: C_17  and  C_18 
ROOT
HETATM    1  N   UNL     1       7.797  25.355  55.186  1.00  0.00    -0.056 N 
HETATM    2  H   UNL     1       8.734  25.271  55.593  1.00  0.00     0.281 HD
HETATM    3  C   UNL     1       7.593  26.836  54.860  1.00  0.00     0.256 C 
HETATM    4  C   UNL     1       7.708  27.674  56.144  1.00  0.00     0.154 C 
HETATM    5  N   UNL     1       6.756  27.186  57.144  1.00  0.00    -0.345 N 
HETATM    6  C   UNL     1       5.424  27.636  57.228  1.00  0.00     0.256 C 
HETATM    7  O   UNL     1       4.551  26.942  57.743  1.00  0.00    -0.267 OA
HETATM    8  C   UNL     1       6.995  25.790  57.532  1.00  0.00     0.154 C 
HETATM    9  C   UNL     1       6.847  24.877  56.293  1.00  0.00     0.256 C 
ENDROOT
BRANCH   6  10
HETATM   10  C   UNL     1       5.026  28.880  56.521  1.00  0.00     0.058 A 
HETATM   11  C   UNL     1       5.451  30.176  56.866  1.00  0.00     0.049 A 
HETATM   12  C   UNL     1       5.238  31.220  55.954  1.00  0.00     0.030 A 
HETATM   13  C   UNL     1       4.531  31.000  54.769  1.00  0.00     0.002 A 
HETATM   14  C   UNL     1       4.043  29.732  54.470  1.00  0.00     0.001 A 
HETATM   15  C   UNL     1       4.297  28.671  55.337  1.00  0.00     0.019 A 
BRANCH  11  16
HETATM   16  N   UNL     1       6.141  30.518  58.049  1.00  0.00    -0.337 N 
HETATM   17  H   UNL     1       6.888  29.894  58.338  1.00  0.00     0.168 HD
BRANCH  16  18
HETATM   18  C   UNL     1       5.960  31.583  58.867  1.00  0.00     0.157 C 
HETATM   19  S   UNL     1       4.400  32.095  59.186  1.00  0.00    -0.047 SA
BRANCH  18  20
HETATM   20  N   UNL     1       6.997  32.167  59.530  1.00  0.00    -0.199 NA
HETATM   21  C   UNL     1       7.706  31.501  60.526  1.00  0.00     0.261 C 
HETATM   22  O   UNL     1       8.453  30.550  60.322  1.00  0.00    -0.271 OA
HETATM   23  H   UNL     1       6.697  33.083  59.853  1.00  0.00     0.139 HD
BRANCH  21  24
HETATM   24  C   UNL     1       7.522  32.072  61.847  1.00  0.00     0.137 A 
HETATM   25  O   UNL     1       6.252  32.293  62.313  1.00  0.00    -0.318 OA
HETATM   26  C   UNL     1       6.370  32.771  63.579  1.00  0.00     0.143 A 
HETATM   27  C   UNL     1       7.694  32.867  63.937  1.00  0.00     0.027 A 
HETATM   28  C   UNL     1       8.438  32.424  62.819  1.00  0.00     0.044 A 
ENDBRANCH  21  24
ENDBRANCH  18  20
ENDBRANCH  16  18
ENDBRANCH  11  16
ENDBRANCH   6  10
BRANCH   1  29
HETATM   29  C   UNL     1       7.852  24.500  53.916  1.00  0.00     0.254 C 
BRANCH  29  30
HETATM   30  C   UNL     1       6.778  24.814  52.877  1.00  0.00    -0.023 A 
HETATM   31  C   UNL     1       7.132  25.559  51.733  1.00  0.00     0.009 A 
HETATM   32  C   UNL     1       6.179  25.919  50.778  1.00  0.00     0.001 A 
HETATM   33  C   UNL     1       4.852  25.537  50.941  1.00  0.00     0.000 A 
HETATM   34  C   UNL     1       4.479  24.792  52.056  1.00  0.00     0.001 A 
HETATM   35  C   UNL     1       5.431  24.436  53.015  1.00  0.00     0.009 A 
ENDBRANCH  29  30
BRANCH  29  36
HETATM   36  C   UNL     1       8.188  23.040  54.211  1.00  0.00    -0.023 A 
HETATM   37  C   UNL     1       7.961  22.085  53.193  1.00  0.00     0.009 A 
HETATM   38  C   UNL     1       8.236  20.731  53.392  1.00  0.00     0.001 A 
HETATM   39  C   UNL     1       8.744  20.300  54.610  1.00  0.00     0.000 A 
HETATM   40  C   UNL     1       8.976  21.221  55.626  1.00  0.00     0.001 A 
HETATM   41  C   UNL     1       8.703  22.579  55.431  1.00  0.00     0.009 A 
ENDBRANCH  29  36
ENDBRANCH   1  29
TORSDOF 8
ENDMDL
MODEL 7
REMARK VINA RESULT:      -9.6      4.377      9.274
REMARK  8 active torsions:
REMARK  status: ('A' for Active; 'I' for Inactive)
REMARK    1  A    between atoms: C_4  and  C_5 
REMARK    2  A    between atoms: C_5  and  N_6 
REMARK    3  A    between atoms: C_5  and  C_32 
REMARK       I    between atoms: N_10  and  C_11 
REMARK    4  A    between atoms: C_11  and  C_12 
REMARK    5  A    between atoms: C_13  and  N_14 
REMARK    6  A    between atoms: N_14  and  C_15 
REMARK    7  A    between atoms: C_15  and  N_16 
REMARK       I    between atoms: N_16  and  C_17 
REMARK    8  A    between atoms: C_17  and  C_18 
ROOT
HETATM    1  N   UNL     1       6.029  28.799  56.884  1.00  0.00    -0.056 N 
HETATM    2  H   UNL     1       5.677  29.301  57.706  1.00  0.00     0.281 HD
HETATM    3  C   UNL     1       6.313  29.857  55.816  1.00  0.00     0.256 C 
HETATM    4  C   UNL     1       5.022  30.621  55.479  1.00  0.00     0.154 C 
HETATM    5  N   UNL     1       3.980  29.679  55.067  1.00  0.00    -0.345 N 
HETATM    6  C   UNL     1       3.812  29.243  53.738  1.00  0.00     0.256 C 
HETATM    7  O   UNL     1       3.262  28.174  53.485  1.00  0.00    -0.267 OA
HETATM    8  C   UNL     1       3.633  28.711  56.115  1.00  0.00     0.154 C 
HETATM    9  C   UNL     1       4.880  27.868  56.474  1.00  0.00     0.256 C 
ENDROOT
BRANCH   6  10
HETATM   10  C   UNL     1       4.471  29.988  52.635  1.00  0.00     0.058 A 
HETATM   11  C   UNL     1       5.368  29.429  51.707  1.00  0.00     0.049 A 
HETATM   12  C   UNL     1       5.690  30.162  50.556  1.00  0.00     0.030 A 
HETATM   13  C   UNL     1       5.209  31.461  50.378  1.00  0.00     0.002 A 
HETATM   14  C   UNL     1       4.386  32.040  51.339  1.00  0.00     0.001 A 
HETATM   15  C   UNL     1       4.009  31.304  52.461  1.00  0.00     0.019 A 
BRANCH  11  16
HETATM   16  N   UNL     1       5.940  28.142  51.803  1.00  0.00    -0.337 N 
HETATM   17  H   UNL     1       6.822  28.071  52.301  1.00  0.00     0.168 HD
BRANCH  16  18
HETATM   18  C   UNL     1       5.472  26.961  51.331  1.00  0.00     0.157 C 
HETATM   19  S   UNL     1       6.379  25.578  51.587  1.00  0.00    -0.047 SA
BRANCH  18  20
HETATM   20  N   UNL     1       4.237  26.849  50.767  1.00  0.00    -0.199 NA
HETATM   21  C   UNL     1       4.022  27.070  49.410  1.00  0.00     0.261 C 
HETATM   22  O   UNL     1       4.428  26.332  48.519  1.00  0.00    -0.271 OA
HETATM   23  H   UNL     1       3.579  27.383  51.328  1.00  0.00     0.139 HD
BRANCH  21  24
HETATM   24  C   UNL     1       3.216  28.245  49.136  1.00  0.00     0.137 A 
HETATM   25  O   UNL     1       3.428  28.949  47.979  1.00  0.00    -0.318 OA
HETATM   26  C   UNL     1       2.510  29.951  47.950  1.00  0.00     0.143 A 
HETATM   27  C   UNL     1       1.713  29.909  49.069  1.00  0.00     0.027 A 
HETATM   28  C   UNL     1       2.172  28.814  49.838  1.00  0.00     0.044 A 
ENDBRANCH  21  24
ENDBRANCH  18  20
ENDBRANCH  16  18
ENDBRANCH  11  16
ENDBRANCH   6  10
BRANCH   1  29
HETATM   29  C   UNL     1       7.317  28.125  57.367  1.00  0.00     0.254 C 
BRANCH  29  30
HETATM   30  C   UNL     1       8.519  29.055  57.513  1.00  0.00    -0.023 A 
HETATM   31  C   UNL     1       8.507  30.030  58.532  1.00  0.00     0.009 A 
HETATM   32  C   UNL     1       9.556  30.941  58.677  1.00  0.00     0.001 A 
HETATM   33  C   UNL     1      10.643  30.893  57.812  1.00  0.00     0.000 A 
HETATM   34  C   UNL     1      10.684  29.933  56.806  1.00  0.00     0.001 A 
HETATM   35  C   UNL     1       9.632  29.025  56.656  1.00  0.00     0.009 A 
ENDBRANCH  29  30
BRANCH  29  36
HETATM   36  C   UNL     1       7.523  26.747  56.740  1.00  0.00    -0.023 A 
HETATM   37  C   UNL     1       7.799  25.659  57.600  1.00  0.00     0.009 A 
HETATM   38  C   UNL     1       8.007  24.373  57.100  1.00  0.00     0.001 A 
HETATM   39  C   UNL     1       7.943  24.143  55.732  1.00  0.00     0.000 A 
HETATM   40  C   UNL     1       7.672  25.199  54.866  1.00  0.00     0.001 A 
HETATM   41  C   UNL     1       7.462  26.488  55.364  1.00  0.00     0.009 A 
ENDBRANCH  29  36
ENDBRANCH   1  29
TORSDOF 8
ENDMDL
MODEL 8
REMARK VINA RESULT:      -9.5      1.532      2.113
REMARK  8 active torsions:
REMARK  status: ('A' for Active; 'I' for Inactive)
REMARK    1  A    between atoms: C_4  and  C_5 
REMARK    2  A    between atoms: C_5  and  N_6 
REMARK    3  A    between atoms: C_5  and  C_32 
REMARK       I    between atoms: N_10  and  C_11 
REMARK    4  A    between atoms: C_11  and  C_12 
REMARK    5  A    between atoms: C_13  and  N_14 
REMARK    6  A    between atoms: N_14  and  C_15 
REMARK    7  A    between atoms: C_15  and  N_16 
REMARK       I    between atoms: N_16  and  C_17 
REMARK    8  A    between atoms: C_17  and  C_18 
ROOT
HETATM    1  N   UNL     1       5.863  26.909  54.765  1.00  0.00    -0.056 N 
HETATM    2  H   UNL     1       5.241  26.169  55.107  1.00  0.00     0.281 HD
HETATM    3  C   UNL     1       6.875  27.179  55.881  1.00  0.00     0.256 C 
HETATM    4  C   UNL     1       6.141  27.628  57.155  1.00  0.00     0.154 C 
HETATM    5  N   UNL     1       5.307  28.795  56.864  1.00  0.00    -0.345 N 
HETATM    6  C   UNL     1       5.780  30.121  56.930  1.00  0.00     0.256 C 
HETATM    7  O   UNL     1       5.244  31.020  56.287  1.00  0.00    -0.267 OA
HETATM    8  C   UNL     1       4.272  28.526  55.857  1.00  0.00     0.154 C 
HETATM    9  C   UNL     1       4.942  28.113  54.525  1.00  0.00     0.256 C 
ENDROOT
BRANCH   6  10
HETATM   10  C   UNL     1       7.056  30.407  57.633  1.00  0.00     0.058 A 
HETATM   11  C   UNL     1       7.160  30.894  58.949  1.00  0.00     0.049 A 
HETATM   12  C   UNL     1       8.408  30.847  59.588  1.00  0.00     0.030 A 
HETATM   13  C   UNL     1       9.546  30.418  58.901  1.00  0.00     0.002 A 
HETATM   14  C   UNL     1       9.452  30.013  57.573  1.00  0.00     0.001 A 
HETATM   15  C   UNL     1       8.209  29.998  56.942  1.00  0.00     0.019 A 
BRANCH  11  16
HETATM   16  N   UNL     1       6.085  31.381  59.724  1.00  0.00    -0.337 N 
HETATM   17  H   UNL     1       5.449  30.689  60.107  1.00  0.00     0.168 HD
BRANCH  16  18
HETATM   18  C   UNL     1       5.777  32.660  60.050  1.00  0.00     0.157 C 
HETATM   19  S   UNL     1       4.660  33.480  59.113  1.00  0.00    -0.047 SA
BRANCH  18  20
HETATM   20  N   UNL     1       6.254  33.250  61.181  1.00  0.00    -0.199 NA
HETATM   21  C   UNL     1       6.201  32.621  62.422  1.00  0.00     0.261 C 
HETATM   22  O   UNL     1       6.870  31.639  62.726  1.00  0.00    -0.271 OA
HETATM   23  H   UNL     1       5.871  34.190  61.239  1.00  0.00     0.139 HD
BRANCH  21  24
HETATM   24  C   UNL     1       5.305  33.268  63.361  1.00  0.00     0.137 A 
HETATM   25  O   UNL     1       4.162  33.868  62.897  1.00  0.00    -0.318 OA
HETATM   26  C   UNL     1       3.490  34.335  63.981  1.00  0.00     0.143 A 
HETATM   27  C   UNL     1       4.179  34.053  65.136  1.00  0.00     0.027 A 
HETATM   28  C   UNL     1       5.353  33.371  64.738  1.00  0.00     0.044 A 
ENDBRANCH  21  24
ENDBRANCH  18  20
ENDBRANCH  16  18
ENDBRANCH  11  16
ENDBRANCH   6  10
BRANCH   1  29
HETATM   29  C   UNL     1       6.535  26.304  53.529  1.00  0.00     0.254 C 
BRANCH  29  30
HETATM   30  C   UNL     1       5.847  26.615  52.201  1.00  0.00    -0.023 A 
HETATM   31  C   UNL     1       5.137  25.588  51.544  1.00  0.00     0.009 A 
HETATM   32  C   UNL     1       4.535  25.802  50.302  1.00  0.00     0.001 A 
HETATM   33  C   UNL     1       4.622  27.048  49.693  1.00  0.00     0.000 A 
HETATM   34  C   UNL     1       5.308  28.081  50.325  1.00  0.00     0.001 A 
HETATM   35  C   UNL     1       5.916  27.866  51.565  1.00  0.00     0.009 A 
ENDBRANCH  29  30
BRANCH  29  36
HETATM   36  C   UNL     1       7.047  24.887  53.779  1.00  0.00    -0.023 A 
HETATM   37  C   UNL     1       7.822  24.271  52.769  1.00  0.00     0.009 A 
HETATM   38  C   UNL     1       8.318  22.975  52.923  1.00  0.00     0.001 A 
HETATM   39  C   UNL     1       8.053  22.267  54.088  1.00  0.00     0.000 A 
HETATM   40  C   UNL     1       7.294  22.853  55.096  1.00  0.00     0.001 A 
HETATM   41  C   UNL     1       6.796  24.151  54.945  1.00  0.00     0.009 A 
ENDBRANCH  29  36
ENDBRANCH   1  29
TORSDOF 8
ENDMDL
MODEL 9
REMARK VINA RESULT:      -9.4      5.180     11.507
REMARK  8 active torsions:
REMARK  status: ('A' for Active; 'I' for Inactive)
REMARK    1  A    between atoms: C_4  and  C_5 
REMARK    2  A    between atoms: C_5  and  N_6 
REMARK    3  A    between atoms: C_5  and  C_32 
REMARK       I    between atoms: N_10  and  C_11 
REMARK    4  A    between atoms: C_11  and  C_12 
REMARK    5  A    between atoms: C_13  and  N_14 
REMARK    6  A    between atoms: N_14  and  C_15 
REMARK    7  A    between atoms: C_15  and  N_16 
REMARK       I    between atoms: N_16  and  C_17 
REMARK    8  A    between atoms: C_17  and  C_18 
ROOT
HETATM    1  N   UNL     1       3.947  35.936  62.505  1.00  0.00    -0.056 N 
HETATM    2  H   UNL     1       3.239  36.578  62.876  1.00  0.00     0.281 HD
HETATM    3  C   UNL     1       4.196  36.353  61.054  1.00  0.00     0.256 C 
HETATM    4  C   UNL     1       2.891  36.252  60.249  1.00  0.00     0.154 C 
HETATM    5  N   UNL     1       2.345  34.897  60.354  1.00  0.00    -0.345 N 
HETATM    6  C   UNL     1       2.708  33.848  59.487  1.00  0.00     0.256 C 
HETATM    7  O   UNL     1       2.603  32.673  59.832  1.00  0.00    -0.267 OA
HETATM    8  C   UNL     1       2.018  34.514  61.733  1.00  0.00     0.154 C 
HETATM    9  C   UNL     1       3.301  34.547  62.597  1.00  0.00     0.256 C 
ENDROOT
BRANCH   6  10
HETATM   10  C   UNL     1       3.402  34.159  58.211  1.00  0.00     0.058 A 
HETATM   11  C   UNL     1       4.634  33.612  57.809  1.00  0.00     0.049 A 
HETATM   12  C   UNL     1       5.033  33.763  56.473  1.00  0.00     0.030 A 
HETATM   13  C   UNL     1       4.273  34.525  55.582  1.00  0.00     0.002 A 
HETATM   14  C   UNL     1       3.096  35.132  56.007  1.00  0.00     0.001 A 
HETATM   15  C   UNL     1       2.654  34.943  57.315  1.00  0.00     0.019 A 
BRANCH  11  16
HETATM   16  N   UNL     1       5.496  32.855  58.631  1.00  0.00    -0.337 N 
HETATM   17  H   UNL     1       5.997  33.362  59.354  1.00  0.00     0.168 HD
BRANCH  16  18
HETATM   18  C   UNL     1       5.750  31.525  58.608  1.00  0.00     0.157 C 
HETATM   19  S   UNL     1       4.718  30.525  57.751  1.00  0.00    -0.047 SA
BRANCH  18  20
HETATM   20  N   UNL     1       6.880  30.997  59.156  1.00  0.00    -0.199 NA
HETATM   21  C   UNL     1       8.137  31.553  58.935  1.00  0.00     0.261 C 
HETATM   22  O   UNL     1       8.500  32.636  59.382  1.00  0.00    -0.271 OA
HETATM   23  H   UNL     1       6.892  29.998  58.969  1.00  0.00     0.139 HD
BRANCH  21  24
HETATM   24  C   UNL     1       9.018  30.703  58.156  1.00  0.00     0.137 A 
HETATM   25  O   UNL     1      10.305  31.110  57.915  1.00  0.00    -0.318 OA
HETATM   26  C   UNL     1      10.914  30.112  57.223  1.00  0.00     0.143 A 
HETATM   27  C   UNL     1      10.043  29.071  57.008  1.00  0.00     0.027 A 
HETATM   28  C   UNL     1       8.817  29.454  57.602  1.00  0.00     0.044 A 
ENDBRANCH  21  24
ENDBRANCH  18  20
ENDBRANCH  16  18
ENDBRANCH  11  16
ENDBRANCH   6  10
BRANCH   1  29
HETATM   29  C   UNL     1       5.180  36.177  63.381  1.00  0.00     0.254 C 
BRANCH  29  30
HETATM   30  C   UNL     1       5.838  37.545  63.212  1.00  0.00    -0.023 A 
HETATM   31  C   UNL     1       5.766  38.472  64.272  1.00  0.00     0.009 A 
HETATM   32  C   UNL     1       6.304  39.755  64.152  1.00  0.00     0.001 A 
HETATM   33  C   UNL     1       6.931  40.138  62.972  1.00  0.00     0.000 A 
HETATM   34  C   UNL     1       7.025  39.238  61.915  1.00  0.00     0.001 A 
HETATM   35  C   UNL     1       6.482  37.956  62.032  1.00  0.00     0.009 A 
ENDBRANCH  29  30
BRANCH  29  36
HETATM   36  C   UNL     1       6.070  34.940  63.486  1.00  0.00    -0.023 A 
HETATM   37  C   UNL     1       6.448  34.499  64.775  1.00  0.00     0.009 A 
HETATM   38  C   UNL     1       7.266  33.382  64.950  1.00  0.00     0.001 A 
HETATM   39  C   UNL     1       7.723  32.679  63.843  1.00  0.00     0.000 A 
HETATM   40  C   UNL     1       7.363  33.093  62.565  1.00  0.00     0.001 A 
HETATM   41  C   UNL     1       6.543  34.211  62.386  1.00  0.00     0.009 A 
ENDBRANCH  29  36
ENDBRANCH   1  29
TORSDOF 8
ENDMDL
MODEL 10
REMARK VINA RESULT:      -9.4      3.532     10.340
REMARK  8 active torsions:
REMARK  status: ('A' for Active; 'I' for Inactive)
REMARK    1  A    between atoms: C_4  and  C_5 
REMARK    2  A    between atoms: C_5  and  N_6 
REMARK    3  A    between atoms: C_5  and  C_32 
REMARK       I    between atoms: N_10  and  C_11 
REMARK    4  A    between atoms: C_11  and  C_12 
REMARK    5  A    between atoms: C_13  and  N_14 
REMARK    6  A    between atoms: N_14  and  C_15 
REMARK    7  A    between atoms: C_15  and  N_16 
REMARK       I    between atoms: N_16  and  C_17 
REMARK    8  A    between atoms: C_17  and  C_18 
ROOT
HETATM    1  N   UNL     1       5.818  30.514  58.281  1.00  0.00    -0.056 N 
HETATM    2  H   UNL     1       5.425  29.988  59.068  1.00  0.00     0.281 HD
HETATM    3  C   UNL     1       4.703  30.646  57.242  1.00  0.00     0.256 C 
HETATM    4  C   UNL     1       4.242  29.251  56.791  1.00  0.00     0.154 C 
HETATM    5  N   UNL     1       5.385  28.488  56.287  1.00  0.00    -0.345 N 
HETATM    6  C   UNL     1       5.821  28.539  54.949  1.00  0.00     0.256 C 
HETATM    7  O   UNL     1       6.981  28.269  54.648  1.00  0.00    -0.267 OA
HETATM    8  C   UNL     1       6.427  28.277  57.301  1.00  0.00     0.154 C 
HETATM    9  C   UNL     1       6.975  29.645  57.770  1.00  0.00     0.256 C 
ENDROOT
BRANCH   6  10
HETATM   10  C   UNL     1       4.926  29.108  53.909  1.00  0.00     0.058 A 
HETATM   11  C   UNL     1       3.931  28.390  53.221  1.00  0.00     0.049 A 
HETATM   12  C   UNL     1       2.974  29.103  52.484  1.00  0.00     0.030 A 
HETATM   13  C   UNL     1       3.062  30.491  52.354  1.00  0.00     0.002 A 
HETATM   14  C   UNL     1       4.096  31.188  52.971  1.00  0.00     0.001 A 
HETATM   15  C   UNL     1       5.021  30.502  53.755  1.00  0.00     0.019 A 
BRANCH  11  16
HETATM   16  N   UNL     1       3.769  26.988  53.254  1.00  0.00    -0.337 N 
HETATM   17  H   UNL     1       2.910  26.638  53.667  1.00  0.00     0.168 HD
BRANCH  16  18
HETATM   18  C   UNL     1       4.599  26.021  52.797  1.00  0.00     0.157 C 
HETATM   19  S   UNL     1       5.542  26.341  51.452  1.00  0.00    -0.047 SA
BRANCH  18  20
HETATM   20  N   UNL     1       4.778  24.848  53.467  1.00  0.00    -0.199 NA
HETATM   21  C   UNL     1       5.722  24.714  54.481  1.00  0.00     0.261 C 
HETATM   22  O   UNL     1       5.638  25.256  55.578  1.00  0.00    -0.271 OA
HETATM   23  H   UNL     1       4.874  24.100  52.786  1.00  0.00     0.139 HD
BRANCH  21  24
HETATM   24  C   UNL     1       6.813  23.819  54.143  1.00  0.00     0.137 A 
HETATM   25  O   UNL     1       7.143  22.805  55.005  1.00  0.00    -0.318 OA
HETATM   26  C   UNL     1       8.144  22.096  54.421  1.00  0.00     0.143 A 
HETATM   27  C   UNL     1       8.469  22.636  53.199  1.00  0.00     0.027 A 
HETATM   28  C   UNL     1       7.617  23.751  53.022  1.00  0.00     0.044 A 
ENDBRANCH  21  24
ENDBRANCH  18  20
ENDBRANCH  16  18
ENDBRANCH  11  16
ENDBRANCH   6  10
BRANCH   1  29
HETATM   29  C   UNL     1       6.196  31.873  58.879  1.00  0.00     0.254 C 
BRANCH  29  30
HETATM   30  C   UNL     1       7.378  31.850  59.845  1.00  0.00    -0.023 A 
HETATM   31  C   UNL     1       7.127  31.694  61.225  1.00  0.00     0.009 A 
HETATM   32  C   UNL     1       8.166  31.719  62.158  1.00  0.00     0.001 A 
HETATM   33  C   UNL     1       9.478  31.894  61.734  1.00  0.00     0.000 A 
HETATM   34  C   UNL     1       9.753  32.038  60.378  1.00  0.00     0.001 A 
HETATM   35  C   UNL     1       8.714  32.019  59.443  1.00  0.00     0.009 A 
ENDBRANCH  29  30
BRANCH  29  36
HETATM   36  C   UNL     1       4.971  32.714  59.233  1.00  0.00    -0.023 A 
HETATM   37  C   UNL     1       4.750  33.908  58.509  1.00  0.00     0.009 A 
HETATM   38  C   UNL     1       3.657  34.732  58.782  1.00  0.00     0.001 A 
HETATM   39  C   UNL     1       2.759  34.382  59.782  1.00  0.00     0.000 A 
HETATM   40  C   UNL     1       2.955  33.211  60.507  1.00  0.00     0.001 A 
HETATM   41  C   UNL     1       4.049  32.383  60.236  1.00  0.00     0.009 A 
ENDBRANCH  29  36
ENDBRANCH   1  29
TORSDOF 8
ENDMDL
