MODEL 1
REMARK VINA RESULT:      -9.6      0.000      0.000
REMARK  6 active torsions:
REMARK  status: ('A' for Active; 'I' for Inactive)
REMARK    1  A    between atoms: O_2  and  C_3 
REMARK    2  A    between atoms: C_5  and  C_6 
REMARK    3  A    between atoms: C_12  and  C_13 
REMARK       I    between atoms: C_13  and  N_14 
REMARK    4  A    between atoms: N_14  and  C_15 
REMARK    5  A    between atoms: C_17  and  O_18 
REMARK    6  A    between atoms: C_23  and  C_24 
ROOT
HETATM    1  C   UNL     1       6.827  27.504  57.486  1.00  0.00     0.118 C 
HETATM    2  N   UNL     1       6.950  26.503  56.423  1.00  0.00    -0.365 N 
HETATM    3  C   UNL     1       6.289  26.652  55.243  1.00  0.00     0.138 A 
HETATM    4  N   UNL     1       5.332  27.620  55.073  1.00  0.00    -0.240 N 
HETATM    5  N   UNL     1       4.767  27.610  53.856  1.00  0.00    -0.181 NA
HETATM    6  C   UNL     1       5.448  26.661  53.206  1.00  0.00     0.160 A 
HETATM    7  C   UNL     1       6.392  26.000  54.027  1.00  0.00     0.096 A 
HETATM    8  C   UNL     1       4.932  28.580  56.082  1.00  0.00     0.221 C 
HETATM    9  C   UNL     1       5.432  28.148  57.473  1.00  0.00     0.066 C 
HETATM   10  H   UNL     1       7.871  26.059  56.422  1.00  0.00     0.161 HD
ENDROOT
BRANCH   7  11
HETATM   11  C   UNL     1       7.277  24.911  53.652  1.00  0.00     0.261 C 
HETATM   12  N   UNL     1       6.913  23.704  54.218  1.00  0.00    -0.323 N 
HETATM   13  H   UNL     1       5.999  23.691  54.656  1.00  0.00     0.169 HD
HETATM   14  O   UNL     1       8.215  25.095  52.888  1.00  0.00    -0.267 OA
BRANCH  12  15
HETATM   15  C   UNL     1       7.629  22.492  54.210  1.00  0.00     0.037 A 
HETATM   16  C   UNL     1       8.253  21.954  55.338  1.00  0.00     0.066 A 
HETATM   17  C   UNL     1       8.902  20.724  55.247  1.00  0.00     0.067 A 
HETATM   18  C   UNL     1       8.949  20.022  54.049  1.00  0.00     0.036 A 
HETATM   19  C   UNL     1       8.333  20.555  52.920  1.00  0.00     0.005 A 
HETATM   20  C   UNL     1       7.671  21.782  53.002  1.00  0.00     0.029 A 
BRANCH  17  21
HETATM   21  O   UNL     1       9.507  20.161  56.334  1.00  0.00    -0.361 OA
HETATM   22  H   UNL     1       8.815  19.852  56.945  1.00  0.00     0.217 HD
ENDBRANCH  17  21
ENDBRANCH  12  15
ENDBRANCH   7  11
BRANCH   1  23
HETATM   23  C   UNL     1       8.000  28.465  57.522  1.00  0.00    -0.033 A 
HETATM   24  C   UNL     1       8.015  29.481  58.495  1.00  0.00     0.046 A 
HETATM   25  C   UNL     1       9.090  30.370  58.615  1.00  0.00     0.068 A 
HETATM   26  C   UNL     1      10.165  30.261  57.737  1.00  0.00     0.037 A 
HETATM   27  C   UNL     1      10.169  29.266  56.760  1.00  0.00     0.003 A 
HETATM   28  C   UNL     1       9.101  28.372  56.658  1.00  0.00     0.009 A 
BRANCH  25  29
HETATM   29  O   UNL     1       8.964  31.284  59.623  1.00  0.00    -0.356 OA
HETATM   30  C   UNL     1       8.873  30.769  60.946  1.00  0.00     0.210 C 
ENDBRANCH  25  29
ENDBRANCH   1  23
BRANCH   8  31
HETATM   31  C   UNL     1       5.359  29.979  55.690  1.00  0.00     0.409 C 
HETATM   32  F   UNL     1       6.589  30.040  55.151  1.00  0.00    -0.169 F 
HETATM   33  F   UNL     1       4.502  30.548  54.812  1.00  0.00    -0.169 F 
HETATM   34  F   UNL     1       5.364  30.785  56.784  1.00  0.00    -0.169 F 
ENDBRANCH   8  31
TORSDOF 6
ENDMDL
MODEL 2
REMARK VINA RESULT:      -9.5      3.321      6.945
REMARK  6 active torsions:
REMARK  status: ('A' for Active; 'I' for Inactive)
REMARK    1  A    between atoms: O_2  and  C_3 
REMARK    2  A    between atoms: C_5  and  C_6 
REMARK    3  A    between atoms: C_12  and  C_13 
REMARK       I    between atoms: C_13  and  N_14 
REMARK    4  A    between atoms: N_14  and  C_15 
REMARK    5  A    between atoms: C_17  and  O_18 
REMARK    6  A    between atoms: C_23  and  C_24 
ROOT
HETATM    1  C   UNL     1       5.495  24.644  55.416  1.00  0.00     0.118 C 
HETATM    2  N   UNL     1       4.941  25.678  54.538  1.00  0.00    -0.365 N 
HETATM    3  C   UNL     1       5.253  26.990  54.721  1.00  0.00     0.138 A 
HETATM    4  N   UNL     1       5.920  27.420  55.839  1.00  0.00    -0.240 N 
HETATM    5  N   UNL     1       6.125  28.747  55.867  1.00  0.00    -0.181 NA
HETATM    6  C   UNL     1       5.648  29.158  54.688  1.00  0.00     0.160 A 
HETATM    7  C   UNL     1       5.058  28.113  53.937  1.00  0.00     0.096 A 
HETATM    8  C   UNL     1       6.375  26.565  56.917  1.00  0.00     0.221 C 
HETATM    9  C   UNL     1       5.697  25.185  56.840  1.00  0.00     0.066 C 
HETATM   10  H   UNL     1       4.794  25.333  53.587  1.00  0.00     0.161 HD
ENDROOT
BRANCH   7  11
HETATM   11  C   UNL     1       4.427  28.213  52.633  1.00  0.00     0.261 C 
HETATM   12  N   UNL     1       5.237  27.761  51.608  1.00  0.00    -0.323 N 
HETATM   13  H   UNL     1       6.067  27.258  51.904  1.00  0.00     0.169 HD
HETATM   14  O   UNL     1       3.284  28.635  52.515  1.00  0.00    -0.267 OA
BRANCH  12  15
HETATM   15  C   UNL     1       5.020  27.865  50.222  1.00  0.00     0.037 A 
HETATM   16  C   UNL     1       4.615  26.796  49.419  1.00  0.00     0.066 A 
HETATM   17  C   UNL     1       4.379  27.004  48.061  1.00  0.00     0.067 A 
HETATM   18  C   UNL     1       4.548  28.256  47.485  1.00  0.00     0.036 A 
HETATM   19  C   UNL     1       4.956  29.325  48.278  1.00  0.00     0.005 A 
HETATM   20  C   UNL     1       5.185  29.131  49.642  1.00  0.00     0.029 A 
BRANCH  17  21
HETATM   21  O   UNL     1       3.966  25.985  47.251  1.00  0.00    -0.361 OA
HETATM   22  H   UNL     1       4.715  25.380  47.112  1.00  0.00     0.217 HD
ENDBRANCH  17  21
ENDBRANCH  12  15
ENDBRANCH   7  11
BRANCH   1  23
HETATM   23  C   UNL     1       6.685  23.932  54.802  1.00  0.00    -0.033 A 
HETATM   24  C   UNL     1       7.408  23.016  55.588  1.00  0.00     0.046 A 
HETATM   25  C   UNL     1       8.486  22.290  55.069  1.00  0.00     0.068 A 
HETATM   26  C   UNL     1       8.869  22.491  53.746  1.00  0.00     0.037 A 
HETATM   27  C   UNL     1       8.172  23.399  52.949  1.00  0.00     0.003 A 
HETATM   28  C   UNL     1       7.087  24.107  53.469  1.00  0.00     0.009 A 
BRANCH  25  29
HETATM   29  O   UNL     1       9.069  21.424  55.952  1.00  0.00    -0.356 OA
HETATM   30  C   UNL     1       8.301  21.062  57.093  1.00  0.00     0.210 C 
ENDBRANCH  25  29
ENDBRANCH   1  23
BRANCH   8  31
HETATM   31  C   UNL     1       7.888  26.498  56.945  1.00  0.00     0.409 C 
HETATM   32  F   UNL     1       8.467  27.554  57.543  1.00  0.00    -0.169 F 
HETATM   33  F   UNL     1       8.339  25.383  57.564  1.00  0.00    -0.169 F 
HETATM   34  F   UNL     1       8.373  26.444  55.677  1.00  0.00    -0.169 F 
ENDBRANCH   8  31
TORSDOF 6
ENDMDL
MODEL 3
REMARK VINA RESULT:      -9.5      3.741      7.194
REMARK  6 active torsions:
REMARK  status: ('A' for Active; 'I' for Inactive)
REMARK    1  A    between atoms: O_2  and  C_3 
REMARK    2  A    between atoms: C_5  and  C_6 
REMARK    3  A    between atoms: C_12  and  C_13 
REMARK       I    between atoms: C_13  and  N_14 
REMARK    4  A    between atoms: N_14  and  C_15 
REMARK    5  A    between atoms: C_17  and  O_18 
REMARK    6  A    between atoms: C_23  and  C_24 
ROOT
HETATM    1  C   UNL     1       5.389  25.377  55.300  1.00  0.00     0.118 C 
HETATM    2  N   UNL     1       4.911  25.728  53.960  1.00  0.00    -0.365 N 
HETATM    3  C   UNL     1       5.225  26.927  53.399  1.00  0.00     0.138 A 
HETATM    4  N   UNL     1       5.819  27.927  54.126  1.00  0.00    -0.240 N 
HETATM    5  N   UNL     1       6.038  29.048  53.421  1.00  0.00    -0.181 NA
HETATM    6  C   UNL     1       5.649  28.718  52.186  1.00  0.00     0.160 A 
HETATM    7  C   UNL     1       5.099  27.416  52.111  1.00  0.00     0.096 A 
HETATM    8  C   UNL     1       6.188  27.832  55.524  1.00  0.00     0.221 C 
HETATM    9  C   UNL     1       5.500  26.626  56.188  1.00  0.00     0.066 C 
HETATM   10  H   UNL     1       4.825  24.908  53.358  1.00  0.00     0.161 HD
ENDROOT
BRANCH   7  11
HETATM   11  C   UNL     1       4.561  26.753  50.936  1.00  0.00     0.261 C 
HETATM   12  N   UNL     1       3.866  27.611  50.106  1.00  0.00    -0.323 N 
HETATM   13  H   UNL     1       3.975  28.598  50.316  1.00  0.00     0.169 HD
HETATM   14  O   UNL     1       4.758  25.561  50.738  1.00  0.00    -0.267 OA
BRANCH  12  15
HETATM   15  C   UNL     1       3.079  27.286  48.985  1.00  0.00     0.037 A 
HETATM   16  C   UNL     1       3.410  26.279  48.074  1.00  0.00     0.066 A 
HETATM   17  C   UNL     1       2.546  25.995  47.017  1.00  0.00     0.067 A 
HETATM   18  C   UNL     1       1.362  26.701  46.845  1.00  0.00     0.036 A 
HETATM   19  C   UNL     1       1.029  27.708  47.747  1.00  0.00     0.005 A 
HETATM   20  C   UNL     1       1.882  27.995  48.816  1.00  0.00     0.029 A 
BRANCH  17  21
HETATM   21  O   UNL     1       2.829  25.007  46.119  1.00  0.00    -0.361 OA
HETATM   22  H   UNL     1       2.010  24.518  45.932  1.00  0.00     0.217 HD
ENDBRANCH  17  21
ENDBRANCH  12  15
ENDBRANCH   7  11
BRANCH   1  23
HETATM   23  C   UNL     1       6.610  24.477  55.267  1.00  0.00    -0.033 A 
HETATM   24  C   UNL     1       6.847  23.696  54.121  1.00  0.00     0.046 A 
HETATM   25  C   UNL     1       7.980  22.883  54.006  1.00  0.00     0.068 A 
HETATM   26  C   UNL     1       8.889  22.826  55.059  1.00  0.00     0.037 A 
HETATM   27  C   UNL     1       8.671  23.586  56.208  1.00  0.00     0.003 A 
HETATM   28  C   UNL     1       7.547  24.409  56.308  1.00  0.00     0.009 A 
BRANCH  25  29
HETATM   29  O   UNL     1       8.078  22.205  52.823  1.00  0.00    -0.356 OA
HETATM   30  C   UNL     1       8.029  20.785  52.894  1.00  0.00     0.210 C 
ENDBRANCH  25  29
ENDBRANCH   1  23
BRANCH   8  31
HETATM   31  C   UNL     1       7.694  27.835  55.682  1.00  0.00     0.409 C 
HETATM   32  F   UNL     1       8.121  27.279  56.830  1.00  0.00    -0.169 F 
HETATM   33  F   UNL     1       8.316  27.195  54.665  1.00  0.00    -0.169 F 
HETATM   34  F   UNL     1       8.160  29.112  55.661  1.00  0.00    -0.169 F 
ENDBRANCH   8  31
TORSDOF 6
ENDMDL
MODEL 4
REMARK VINA RESULT:      -9.0      3.256      6.736
REMARK  6 active torsions:
REMARK  status: ('A' for Active; 'I' for Inactive)
REMARK    1  A    between atoms: O_2  and  C_3 
REMARK    2  A    between atoms: C_5  and  C_6 
REMARK    3  A    between atoms: C_12  and  C_13 
REMARK       I    between atoms: C_13  and  N_14 
REMARK    4  A    between atoms: N_14  and  C_15 
REMARK    5  A    between atoms: C_17  and  O_18 
REMARK    6  A    between atoms: C_23  and  C_24 
ROOT
HETATM    1  C   UNL     1       5.441  25.146  56.142  1.00  0.00     0.118 C 
HETATM    2  N   UNL     1       4.869  26.004  55.101  1.00  0.00    -0.365 N 
HETATM    3  C   UNL     1       5.179  27.327  55.040  1.00  0.00     0.138 A 
HETATM    4  N   UNL     1       5.864  27.953  56.050  1.00  0.00    -0.240 N 
HETATM    5  N   UNL     1       6.064  29.262  55.835  1.00  0.00    -0.181 NA
HETATM    6  C   UNL     1       5.566  29.454  54.610  1.00  0.00     0.160 A 
HETATM    7  C   UNL     1       4.967  28.291  54.070  1.00  0.00     0.096 A 
HETATM    8  C   UNL     1       6.341  27.306  57.257  1.00  0.00     0.221 C 
HETATM    9  C   UNL     1       5.666  25.934  57.441  1.00  0.00     0.066 C 
HETATM   10  H   UNL     1       4.707  25.493  54.231  1.00  0.00     0.161 HD
ENDROOT
BRANCH   7  11
HETATM   11  C   UNL     1       4.314  28.154  52.780  1.00  0.00     0.261 C 
HETATM   12  N   UNL     1       5.179  27.757  51.778  1.00  0.00    -0.323 N 
HETATM   13  H   UNL     1       6.089  27.440  52.095  1.00  0.00     0.169 HD
HETATM   14  O   UNL     1       3.112  28.353  52.657  1.00  0.00    -0.267 OA
BRANCH  12  15
HETATM   15  C   UNL     1       4.931  27.691  50.395  1.00  0.00     0.037 A 
HETATM   16  C   UNL     1       4.978  28.799  49.546  1.00  0.00     0.066 A 
HETATM   17  C   UNL     1       4.763  28.630  48.179  1.00  0.00     0.067 A 
HETATM   18  C   UNL     1       4.493  27.378  47.642  1.00  0.00     0.036 A 
HETATM   19  C   UNL     1       4.439  26.270  48.483  1.00  0.00     0.005 A 
HETATM   20  C   UNL     1       4.664  26.425  49.853  1.00  0.00     0.029 A 
BRANCH  17  21
HETATM   21  O   UNL     1       4.820  29.689  47.318  1.00  0.00    -0.361 OA
HETATM   22  H   UNL     1       4.511  29.391  46.445  1.00  0.00     0.217 HD
ENDBRANCH  17  21
ENDBRANCH  12  15
ENDBRANCH   7  11
BRANCH   1  23
HETATM   23  C   UNL     1       6.624  24.335  55.646  1.00  0.00    -0.033 A 
HETATM   24  C   UNL     1       6.953  24.381  54.279  1.00  0.00     0.046 A 
HETATM   25  C   UNL     1       8.061  23.696  53.765  1.00  0.00     0.068 A 
HETATM   26  C   UNL     1       8.847  22.932  54.622  1.00  0.00     0.037 A 
HETATM   27  C   UNL     1       8.536  22.865  55.980  1.00  0.00     0.003 A 
HETATM   28  C   UNL     1       7.440  23.565  56.488  1.00  0.00     0.009 A 
BRANCH  25  29
HETATM   29  O   UNL     1       8.260  23.860  52.422  1.00  0.00    -0.356 OA
HETATM   30  C   UNL     1       7.581  24.946  51.803  1.00  0.00     0.210 C 
ENDBRANCH  25  29
ENDBRANCH   1  23
BRANCH   8  31
HETATM   31  C   UNL     1       7.854  27.246  57.270  1.00  0.00     0.409 C 
HETATM   32  F   UNL     1       8.349  26.185  57.933  1.00  0.00    -0.169 F 
HETATM   33  F   UNL     1       8.376  27.225  56.022  1.00  0.00    -0.169 F 
HETATM   34  F   UNL     1       8.356  28.358  57.867  1.00  0.00    -0.169 F 
ENDBRANCH   8  31
TORSDOF 6
ENDMDL
MODEL 5
REMARK VINA RESULT:      -8.9      2.526      7.562
REMARK  6 active torsions:
REMARK  status: ('A' for Active; 'I' for Inactive)
REMARK    1  A    between atoms: O_2  and  C_3 
REMARK    2  A    between atoms: C_5  and  C_6 
REMARK    3  A    between atoms: C_12  and  C_13 
REMARK       I    between atoms: C_13  and  N_14 
REMARK    4  A    between atoms: N_14  and  C_15 
REMARK    5  A    between atoms: C_17  and  O_18 
REMARK    6  A    between atoms: C_23  and  C_24 
ROOT
HETATM    1  C   UNL     1       7.964  25.887  53.322  1.00  0.00     0.118 C 
HETATM    2  N   UNL     1       7.953  26.822  54.450  1.00  0.00    -0.365 N 
HETATM    3  C   UNL     1       6.792  27.385  54.879  1.00  0.00     0.138 A 
HETATM    4  N   UNL     1       5.628  27.268  54.162  1.00  0.00    -0.240 N 
HETATM    5  N   UNL     1       4.585  27.902  54.720  1.00  0.00    -0.181 NA
HETATM    6  C   UNL     1       5.084  28.364  55.871  1.00  0.00     0.160 A 
HETATM    7  C   UNL     1       6.467  28.103  56.017  1.00  0.00     0.096 A 
HETATM    8  C   UNL     1       5.490  26.544  52.914  1.00  0.00     0.221 C 
HETATM    9  C   UNL     1       6.871  26.245  52.302  1.00  0.00     0.066 C 
HETATM   10  H   UNL     1       8.679  26.603  55.135  1.00  0.00     0.161 HD
ENDROOT
BRANCH   7  11
HETATM   11  C   UNL     1       7.323  28.483  57.126  1.00  0.00     0.261 C 
HETATM   12  N   UNL     1       7.179  29.809  57.487  1.00  0.00    -0.323 N 
HETATM   13  H   UNL     1       6.386  30.285  57.071  1.00  0.00     0.169 HD
HETATM   14  O   UNL     1       8.057  27.664  57.667  1.00  0.00    -0.267 OA
BRANCH  12  15
HETATM   15  C   UNL     1       7.960  30.551  58.392  1.00  0.00     0.037 A 
HETATM   16  C   UNL     1       7.513  30.948  59.654  1.00  0.00     0.066 A 
HETATM   17  C   UNL     1       8.373  31.642  60.504  1.00  0.00     0.067 A 
HETATM   18  C   UNL     1       9.670  31.956  60.116  1.00  0.00     0.036 A 
HETATM   19  C   UNL     1      10.120  31.566  58.858  1.00  0.00     0.005 A 
HETATM   20  C   UNL     1       9.271  30.861  58.002  1.00  0.00     0.029 A 
BRANCH  17  21
HETATM   21  O   UNL     1       7.975  32.031  61.751  1.00  0.00    -0.361 OA
HETATM   22  H   UNL     1       8.205  32.968  61.869  1.00  0.00     0.217 HD
ENDBRANCH  17  21
ENDBRANCH  12  15
ENDBRANCH   7  11
BRANCH   1  23
HETATM   23  C   UNL     1       8.007  24.437  53.765  1.00  0.00    -0.033 A 
HETATM   24  C   UNL     1       8.183  24.149  55.131  1.00  0.00     0.046 A 
HETATM   25  C   UNL     1       8.182  22.835  55.613  1.00  0.00     0.068 A 
HETATM   26  C   UNL     1       8.026  21.781  54.718  1.00  0.00     0.037 A 
HETATM   27  C   UNL     1       7.858  22.041  53.357  1.00  0.00     0.003 A 
HETATM   28  C   UNL     1       7.841  23.356  52.887  1.00  0.00     0.009 A 
BRANCH  25  29
HETATM   29  O   UNL     1       8.340  22.724  56.966  1.00  0.00    -0.356 OA
HETATM   30  C   UNL     1       8.656  23.917  57.673  1.00  0.00     0.210 C 
ENDBRANCH  25  29
ENDBRANCH   1  23
BRANCH   8  31
HETATM   31  C   UNL     1       4.629  25.313  53.101  1.00  0.00     0.409 C 
HETATM   32  F   UNL     1       4.914  24.615  54.214  1.00  0.00    -0.169 F 
HETATM   33  F   UNL     1       3.310  25.612  53.135  1.00  0.00    -0.169 F 
HETATM   34  F   UNL     1       4.793  24.468  52.049  1.00  0.00    -0.169 F 
ENDBRANCH   8  31
TORSDOF 6
ENDMDL
MODEL 6
REMARK VINA RESULT:      -8.9      3.485      7.204
REMARK  6 active torsions:
REMARK  status: ('A' for Active; 'I' for Inactive)
REMARK    1  A    between atoms: O_2  and  C_3 
REMARK    2  A    between atoms: C_5  and  C_6 
REMARK    3  A    between atoms: C_12  and  C_13 
REMARK       I    between atoms: C_13  and  N_14 
REMARK    4  A    between atoms: N_14  and  C_15 
REMARK    5  A    between atoms: C_17  and  O_18 
REMARK    6  A    between atoms: C_23  and  C_24 
ROOT
HETATM    1  C   UNL     1       5.404  24.802  55.374  1.00  0.00     0.118 C 
HETATM    2  N   UNL     1       4.890  25.909  54.564  1.00  0.00    -0.365 N 
HETATM    3  C   UNL     1       5.246  27.195  54.833  1.00  0.00     0.138 A 
HETATM    4  N   UNL     1       5.922  27.528  55.979  1.00  0.00    -0.240 N 
HETATM    5  N   UNL     1       6.172  28.842  56.094  1.00  0.00    -0.181 NA
HETATM    6  C   UNL     1       5.715  29.345  54.944  1.00  0.00     0.160 A 
HETATM    7  C   UNL     1       5.093  28.373  54.124  1.00  0.00     0.096 A 
HETATM    8  C   UNL     1       6.344  26.589  56.999  1.00  0.00     0.221 C 
HETATM    9  C   UNL     1       5.619  25.241  56.831  1.00  0.00     0.066 C 
HETATM   10  H   UNL     1       4.735  25.632  53.593  1.00  0.00     0.161 HD
ENDROOT
BRANCH   7  11
HETATM   11  C   UNL     1       4.471  28.579  52.828  1.00  0.00     0.261 C 
HETATM   12  N   UNL     1       5.345  28.384  51.776  1.00  0.00    -0.323 N 
HETATM   13  H   UNL     1       6.229  27.953  52.024  1.00  0.00     0.169 HD
HETATM   14  O   UNL     1       3.285  28.867  52.736  1.00  0.00    -0.267 OA
BRANCH  12  15
HETATM   15  C   UNL     1       5.135  28.659  50.412  1.00  0.00     0.037 A 
HETATM   16  C   UNL     1       5.110  29.950  49.878  1.00  0.00     0.066 A 
HETATM   17  C   UNL     1       4.940  30.125  48.505  1.00  0.00     0.067 A 
HETATM   18  C   UNL     1       4.785  29.037  47.655  1.00  0.00     0.036 A 
HETATM   19  C   UNL     1       4.805  27.749  48.181  1.00  0.00     0.005 A 
HETATM   20  C   UNL     1       4.984  27.561  49.554  1.00  0.00     0.029 A 
BRANCH  17  21
HETATM   21  O   UNL     1       4.928  31.371  47.947  1.00  0.00    -0.361 OA
HETATM   22  H   UNL     1       4.522  31.987  48.581  1.00  0.00     0.217 HD
ENDBRANCH  17  21
ENDBRANCH  12  15
ENDBRANCH   7  11
BRANCH   1  23
HETATM   23  C   UNL     1       6.572  24.091  54.717  1.00  0.00    -0.033 A 
HETATM   24  C   UNL     1       7.251  23.091  55.438  1.00  0.00     0.046 A 
HETATM   25  C   UNL     1       8.304  22.362  54.873  1.00  0.00     0.068 A 
HETATM   26  C   UNL     1       8.709  22.647  53.572  1.00  0.00     0.037 A 
HETATM   27  C   UNL     1       8.057  23.640  52.841  1.00  0.00     0.003 A 
HETATM   28  C   UNL     1       6.995  24.349  53.404  1.00  0.00     0.009 A 
BRANCH  25  29
HETATM   29  O   UNL     1       8.843  21.410  55.692  1.00  0.00    -0.356 OA
HETATM   30  C   UNL     1       8.381  21.389  57.038  1.00  0.00     0.210 C 
ENDBRANCH  25  29
ENDBRANCH   1  23
BRANCH   8  31
HETATM   31  C   UNL     1       7.853  26.468  57.026  1.00  0.00     0.409 C 
HETATM   32  F   UNL     1       8.412  26.373  55.807  1.00  0.00    -0.169 F 
HETATM   33  F   UNL     1       8.438  27.510  57.661  1.00  0.00    -0.169 F 
HETATM   34  F   UNL     1       8.217  25.356  57.718  1.00  0.00    -0.169 F 
ENDBRANCH   8  31
TORSDOF 6
ENDMDL
MODEL 7
REMARK VINA RESULT:      -8.8      3.519      8.264
REMARK  6 active torsions:
REMARK  status: ('A' for Active; 'I' for Inactive)
REMARK    1  A    between atoms: O_2  and  C_3 
REMARK    2  A    between atoms: C_5  and  C_6 
REMARK    3  A    between atoms: C_12  and  C_13 
REMARK       I    between atoms: C_13  and  N_14 
REMARK    4  A    between atoms: N_14  and  C_15 
REMARK    5  A    between atoms: C_17  and  O_18 
REMARK    6  A    between atoms: C_23  and  C_24 
ROOT
HETATM    1  C   UNL     1       4.597  26.286  53.327  1.00  0.00     0.118 C 
HETATM    2  N   UNL     1       4.931  26.873  54.627  1.00  0.00    -0.365 N 
HETATM    3  C   UNL     1       6.070  26.520  55.281  1.00  0.00     0.138 A 
HETATM    4  N   UNL     1       6.842  25.466  54.862  1.00  0.00    -0.240 N 
HETATM    5  N   UNL     1       7.916  25.244  55.635  1.00  0.00    -0.181 NA
HETATM    6  C   UNL     1       7.870  26.243  56.522  1.00  0.00     0.160 A 
HETATM    7  C   UNL     1       6.722  27.057  56.376  1.00  0.00     0.096 A 
HETATM    8  C   UNL     1       6.562  24.638  53.705  1.00  0.00     0.221 C 
HETATM    9  C   UNL     1       5.112  24.841  53.229  1.00  0.00     0.066 C 
HETATM   10  H   UNL     1       4.589  27.832  54.711  1.00  0.00     0.161 HD
ENDROOT
BRANCH   7  11
HETATM   11  C   UNL     1       6.349  28.207  57.182  1.00  0.00     0.261 C 
HETATM   12  N   UNL     1       7.435  28.971  57.564  1.00  0.00    -0.323 N 
HETATM   13  H   UNL     1       8.306  28.749  57.093  1.00  0.00     0.169 HD
HETATM   14  O   UNL     1       5.176  28.441  57.441  1.00  0.00    -0.267 OA
BRANCH  12  15
HETATM   15  C   UNL     1       7.463  30.043  58.475  1.00  0.00     0.037 A 
HETATM   16  C   UNL     1       8.413  30.170  59.491  1.00  0.00     0.066 A 
HETATM   17  C   UNL     1       8.391  31.291  60.320  1.00  0.00     0.067 A 
HETATM   18  C   UNL     1       7.434  32.285  60.160  1.00  0.00     0.036 A 
HETATM   19  C   UNL     1       6.482  32.162  59.152  1.00  0.00     0.005 A 
HETATM   20  C   UNL     1       6.500  31.049  58.309  1.00  0.00     0.029 A 
BRANCH  17  21
HETATM   21  O   UNL     1       9.314  31.455  61.312  1.00  0.00    -0.361 OA
HETATM   22  H   UNL     1       9.907  32.185  61.061  1.00  0.00     0.217 HD
ENDBRANCH  17  21
ENDBRANCH  12  15
ENDBRANCH   7  11
BRANCH   1  23
HETATM   23  C   UNL     1       4.952  27.195  52.166  1.00  0.00    -0.033 A 
HETATM   24  C   UNL     1       4.819  26.706  50.854  1.00  0.00     0.046 A 
HETATM   25  C   UNL     1       5.082  27.509  49.738  1.00  0.00     0.068 A 
HETATM   26  C   UNL     1       5.509  28.821  49.927  1.00  0.00     0.037 A 
HETATM   27  C   UNL     1       5.656  29.326  51.219  1.00  0.00     0.003 A 
HETATM   28  C   UNL     1       5.374  28.524  52.327  1.00  0.00     0.009 A 
BRANCH  25  29
HETATM   29  O   UNL     1       4.882  26.895  48.533  1.00  0.00    -0.356 OA
HETATM   30  C   UNL     1       3.711  26.098  48.408  1.00  0.00     0.210 C 
ENDBRANCH  25  29
ENDBRANCH   1  23
BRANCH   8  31
HETATM   31  C   UNL     1       7.595  24.865  52.622  1.00  0.00     0.409 C 
HETATM   32  F   UNL     1       7.106  24.757  51.374  1.00  0.00    -0.169 F 
HETATM   33  F   UNL     1       8.186  26.077  52.724  1.00  0.00    -0.169 F 
HETATM   34  F   UNL     1       8.595  23.951  52.736  1.00  0.00    -0.169 F 
ENDBRANCH   8  31
TORSDOF 6
ENDMDL
MODEL 8
REMARK VINA RESULT:      -8.4      5.524      8.082
REMARK  6 active torsions:
REMARK  status: ('A' for Active; 'I' for Inactive)
REMARK    1  A    between atoms: O_2  and  C_3 
REMARK    2  A    between atoms: C_5  and  C_6 
REMARK    3  A    between atoms: C_12  and  C_13 
REMARK       I    between atoms: C_13  and  N_14 
REMARK    4  A    between atoms: N_14  and  C_15 
REMARK    5  A    between atoms: C_17  and  O_18 
REMARK    6  A    between atoms: C_23  and  C_24 
ROOT
HETATM    1  C   UNL     1       4.278  32.347  62.440  1.00  0.00     0.118 C 
HETATM    2  N   UNL     1       4.832  31.909  61.156  1.00  0.00    -0.365 N 
HETATM    3  C   UNL     1       4.793  32.720  60.065  1.00  0.00     0.138 A 
HETATM    4  N   UNL     1       4.063  33.882  60.059  1.00  0.00    -0.240 N 
HETATM    5  N   UNL     1       4.119  34.547  58.895  1.00  0.00    -0.181 NA
HETATM    6  C   UNL     1       4.980  33.828  58.169  1.00  0.00     0.160 A 
HETATM    7  C   UNL     1       5.414  32.654  58.830  1.00  0.00     0.096 A 
HETATM    8  C   UNL     1       3.286  34.381  61.176  1.00  0.00     0.221 C 
HETATM    9  C   UNL     1       3.073  33.277  62.229  1.00  0.00     0.066 C 
HETATM   10  H   UNL     1       5.631  31.283  61.279  1.00  0.00     0.161 HD
ENDROOT
BRANCH   7  11
HETATM   11  C   UNL     1       6.324  31.643  58.324  1.00  0.00     0.261 C 
HETATM   12  N   UNL     1       5.699  30.714  57.513  1.00  0.00    -0.323 N 
HETATM   13  H   UNL     1       4.756  30.955  57.230  1.00  0.00     0.169 HD
HETATM   14  O   UNL     1       7.518  31.674  58.597  1.00  0.00    -0.267 OA
BRANCH  12  15
HETATM   15  C   UNL     1       6.231  29.518  56.996  1.00  0.00     0.037 A 
HETATM   16  C   UNL     1       6.895  28.567  57.774  1.00  0.00     0.066 A 
HETATM   17  C   UNL     1       7.349  27.388  57.184  1.00  0.00     0.067 A 
HETATM   18  C   UNL     1       7.160  27.143  55.830  1.00  0.00     0.036 A 
HETATM   19  C   UNL     1       6.502  28.089  55.048  1.00  0.00     0.005 A 
HETATM   20  C   UNL     1       6.034  29.269  55.631  1.00  0.00     0.029 A 
BRANCH  17  21
HETATM   21  O   UNL     1       7.987  26.430  57.918  1.00  0.00    -0.361 OA
HETATM   22  H   UNL     1       7.615  25.563  57.680  1.00  0.00     0.217 HD
ENDBRANCH  17  21
ENDBRANCH  12  15
ENDBRANCH   7  11
BRANCH   1  23
HETATM   23  C   UNL     1       5.344  32.851  63.395  1.00  0.00    -0.033 A 
HETATM   24  C   UNL     1       4.945  33.448  64.604  1.00  0.00     0.046 A 
HETATM   25  C   UNL     1       5.877  33.888  65.551  1.00  0.00     0.068 A 
HETATM   26  C   UNL     1       7.236  33.753  65.283  1.00  0.00     0.037 A 
HETATM   27  C   UNL     1       7.656  33.171  64.088  1.00  0.00     0.003 A 
HETATM   28  C   UNL     1       6.720  32.717  63.156  1.00  0.00     0.009 A 
BRANCH  25  29
HETATM   29  O   UNL     1       5.330  34.424  66.684  1.00  0.00    -0.356 OA
HETATM   30  C   UNL     1       3.917  34.583  66.697  1.00  0.00     0.210 C 
ENDBRANCH  25  29
ENDBRANCH   1  23
BRANCH   8  31
HETATM   31  C   UNL     1       3.905  35.644  61.737  1.00  0.00     0.409 C 
HETATM   32  F   UNL     1       5.250  35.633  61.746  1.00  0.00    -0.169 F 
HETATM   33  F   UNL     1       3.513  36.749  61.063  1.00  0.00    -0.169 F 
HETATM   34  F   UNL     1       3.500  35.828  63.022  1.00  0.00    -0.169 F 
ENDBRANCH   8  31
TORSDOF 6
ENDMDL
MODEL 9
REMARK VINA RESULT:      -8.4      5.273      7.876
REMARK  6 active torsions:
REMARK  status: ('A' for Active; 'I' for Inactive)
REMARK    1  A    between atoms: O_2  and  C_3 
REMARK    2  A    between atoms: C_5  and  C_6 
REMARK    3  A    between atoms: C_12  and  C_13 
REMARK       I    between atoms: C_13  and  N_14 
REMARK    4  A    between atoms: N_14  and  C_15 
REMARK    5  A    between atoms: C_17  and  O_18 
REMARK    6  A    between atoms: C_23  and  C_24 
ROOT
HETATM    1  C   UNL     1       4.070  32.265  62.241  1.00  0.00     0.118 C 
HETATM    2  N   UNL     1       4.265  31.788  60.870  1.00  0.00    -0.365 N 
HETATM    3  C   UNL     1       4.169  32.640  59.814  1.00  0.00     0.138 A 
HETATM    4  N   UNL     1       3.691  33.917  59.962  1.00  0.00    -0.240 N 
HETATM    5  N   UNL     1       3.644  34.610  58.813  1.00  0.00    -0.181 NA
HETATM    6  C   UNL     1       4.190  33.775  57.925  1.00  0.00     0.160 A 
HETATM    7  C   UNL     1       4.510  32.513  58.479  1.00  0.00     0.096 A 
HETATM    8  C   UNL     1       3.260  34.504  61.215  1.00  0.00     0.221 C 
HETATM    9  C   UNL     1       3.050  33.414  62.282  1.00  0.00     0.066 C 
HETATM   10  H   UNL     1       4.936  31.018  60.826  1.00  0.00     0.161 HD
ENDROOT
BRANCH   7  11
HETATM   11  C   UNL     1       5.090  31.371  57.794  1.00  0.00     0.261 C 
HETATM   12  N   UNL     1       6.237  30.903  58.407  1.00  0.00    -0.323 N 
HETATM   13  H   UNL     1       6.418  31.282  59.330  1.00  0.00     0.169 HD
HETATM   14  O   UNL     1       4.560  30.897  56.797  1.00  0.00    -0.267 OA
BRANCH  12  15
HETATM   15  C   UNL     1       7.141  29.935  57.930  1.00  0.00     0.037 A 
HETATM   16  C   UNL     1       8.500  30.181  57.725  1.00  0.00     0.066 A 
HETATM   17  C   UNL     1       9.331  29.147  57.294  1.00  0.00     0.067 A 
HETATM   18  C   UNL     1       8.829  27.874  57.054  1.00  0.00     0.036 A 
HETATM   19  C   UNL     1       7.475  27.624  57.253  1.00  0.00     0.005 A 
HETATM   20  C   UNL     1       6.635  28.649  57.694  1.00  0.00     0.029 A 
BRANCH  17  21
HETATM   21  O   UNL     1      10.667  29.348  57.100  1.00  0.00    -0.361 OA
HETATM   22  H   UNL     1      11.101  29.391  57.969  1.00  0.00     0.217 HD
ENDBRANCH  17  21
ENDBRANCH  12  15
ENDBRANCH   7  11
BRANCH   1  23
HETATM   23  C   UNL     1       5.379  32.517  62.965  1.00  0.00    -0.033 A 
HETATM   24  C   UNL     1       6.584  32.151  62.336  1.00  0.00     0.046 A 
HETATM   25  C   UNL     1       7.828  32.400  62.926  1.00  0.00     0.068 A 
HETATM   26  C   UNL     1       7.879  33.006  64.179  1.00  0.00     0.037 A 
HETATM   27  C   UNL     1       6.698  33.370  64.825  1.00  0.00     0.003 A 
HETATM   28  C   UNL     1       5.461  33.135  64.222  1.00  0.00     0.009 A 
BRANCH  25  29
HETATM   29  O   UNL     1       8.903  32.008  62.179  1.00  0.00    -0.356 OA
HETATM   30  C   UNL     1       8.737  30.839  61.385  1.00  0.00     0.210 C 
ENDBRANCH  25  29
ENDBRANCH   1  23
BRANCH   8  31
HETATM   31  C   UNL     1       4.209  35.602  61.647  1.00  0.00     0.409 C 
HETATM   32  F   UNL     1       4.149  35.886  62.960  1.00  0.00    -0.169 F 
HETATM   33  F   UNL     1       5.497  35.309  61.353  1.00  0.00    -0.169 F 
HETATM   34  F   UNL     1       3.924  36.750  60.978  1.00  0.00    -0.169 F 
ENDBRANCH   8  31
TORSDOF 6
ENDMDL
MODEL 10
REMARK VINA RESULT:      -8.4      4.277      8.867
REMARK  6 active torsions:
REMARK  status: ('A' for Active; 'I' for Inactive)
REMARK    1  A    between atoms: O_2  and  C_3 
REMARK    2  A    between atoms: C_5  and  C_6 
REMARK    3  A    between atoms: C_12  and  C_13 
REMARK       I    between atoms: C_13  and  N_14 
REMARK    4  A    between atoms: N_14  and  C_15 
REMARK    5  A    between atoms: C_17  and  O_18 
REMARK    6  A    between atoms: C_23  and  C_24 
ROOT
HETATM    1  C   UNL     1       4.937  28.825  56.954  1.00  0.00     0.118 C 
HETATM    2  N   UNL     1       5.867  29.512  57.853  1.00  0.00    -0.365 N 
HETATM    3  C   UNL     1       7.207  29.286  57.777  1.00  0.00     0.138 A 
HETATM    4  N   UNL     1       7.722  28.271  57.012  1.00  0.00    -0.240 N 
HETATM    5  N   UNL     1       9.060  28.178  57.070  1.00  0.00    -0.181 NA
HETATM    6  C   UNL     1       9.409  29.221  57.829  1.00  0.00     0.160 A 
HETATM    7  C   UNL     1       8.295  29.936  58.331  1.00  0.00     0.096 A 
HETATM    8  C   UNL     1       6.937  27.357  56.205  1.00  0.00     0.221 C 
HETATM    9  C   UNL     1       5.451  27.421  56.601  1.00  0.00     0.066 C 
HETATM   10  H   UNL     1       5.537  30.446  58.104  1.00  0.00     0.161 HD
ENDROOT
BRANCH   7  11
HETATM   11  C   UNL     1       8.314  31.099  59.200  1.00  0.00     0.261 C 
HETATM   12  N   UNL     1       7.716  30.865  60.424  1.00  0.00    -0.323 N 
HETATM   13  H   UNL     1       7.516  29.892  60.627  1.00  0.00     0.169 HD
HETATM   14  O   UNL     1       8.843  32.145  58.845  1.00  0.00    -0.267 OA
BRANCH  12  15
HETATM   15  C   UNL     1       7.408  31.799  61.431  1.00  0.00     0.037 A 
HETATM   16  C   UNL     1       6.311  32.661  61.376  1.00  0.00     0.066 A 
HETATM   17  C   UNL     1       6.057  33.523  62.443  1.00  0.00     0.067 A 
HETATM   18  C   UNL     1       6.882  33.547  63.560  1.00  0.00     0.036 A 
HETATM   19  C   UNL     1       7.980  32.693  63.619  1.00  0.00     0.005 A 
HETATM   20  C   UNL     1       8.238  31.818  62.561  1.00  0.00     0.029 A 
BRANCH  17  21
HETATM   21  O   UNL     1       4.984  34.367  62.430  1.00  0.00    -0.361 OA
HETATM   22  H   UNL     1       4.200  33.871  62.721  1.00  0.00     0.217 HD
ENDBRANCH  17  21
ENDBRANCH  12  15
ENDBRANCH   7  11
BRANCH   1  23
HETATM   23  C   UNL     1       4.511  29.689  55.782  1.00  0.00    -0.033 A 
HETATM   24  C   UNL     1       3.946  29.070  54.652  1.00  0.00     0.046 A 
HETATM   25  C   UNL     1       3.487  29.813  53.558  1.00  0.00     0.068 A 
HETATM   26  C   UNL     1       3.612  31.199  53.575  1.00  0.00     0.037 A 
HETATM   27  C   UNL     1       4.177  31.835  54.680  1.00  0.00     0.003 A 
HETATM   28  C   UNL     1       4.615  31.088  55.776  1.00  0.00     0.009 A 
BRANCH  25  29
HETATM   29  O   UNL     1       2.942  29.067  52.550  1.00  0.00    -0.356 OA
HETATM   30  C   UNL     1       3.100  29.567  51.228  1.00  0.00     0.210 C 
ENDBRANCH  25  29
ENDBRANCH   1  23
BRANCH   8  31
HETATM   31  C   UNL     1       7.184  27.598  54.730  1.00  0.00     0.409 C 
HETATM   32  F   UNL     1       7.435  28.883  54.424  1.00  0.00    -0.169 F 
HETATM   33  F   UNL     1       8.214  26.859  54.257  1.00  0.00    -0.169 F 
HETATM   34  F   UNL     1       6.094  27.223  54.011  1.00  0.00    -0.169 F 
ENDBRANCH   8  31
TORSDOF 6
ENDMDL
