MODEL 1
REMARK VINA RESULT:      -9.0      0.000      0.000
REMARK  8 active torsions:
REMARK  status: ('A' for Active; 'I' for Inactive)
REMARK    1  A    between atoms: C_2  and  C_3 
REMARK    2  A    between atoms: C_3  and  N_4 
REMARK    3  A    between atoms: C_7  and  C_8 
REMARK       I    between atoms: C_8  and  N_9 
REMARK    4  A    between atoms: N_9  and  N_10 
REMARK       I    between atoms: N_10  and  C_11 
REMARK    5  A    between atoms: C_11  and  C_12 
REMARK    6  A    between atoms: C_12  and  O_13 
REMARK    7  A    between atoms: O_13  and  C_14 
REMARK    8  A    between atoms: C_23  and  C_24 
ROOT
HETATM    1  C   UNL     1       7.514  26.708  57.059  1.00  0.00     0.273 C 
HETATM    2  N   UNL     1       8.667  27.472  57.139  1.00  0.00    -0.263 N 
HETATM    3  O   UNL     1       6.406  27.200  57.258  1.00  0.00    -0.266 OA
HETATM    4  H   UNL     1       9.576  27.027  57.269  1.00  0.00     0.190 HD
ENDROOT
BRANCH   2   5
HETATM    5  N   UNL     1       8.563  28.789  57.624  1.00  0.00    -0.265 N 
HETATM    6  C   UNL     1       9.697  29.577  57.567  1.00  0.00     0.260 C 
HETATM    7  O   UNL     1      10.719  29.216  56.981  1.00  0.00    -0.269 OA
HETATM    8  H   UNL     1       7.821  28.957  58.302  1.00  0.00     0.190 HD
BRANCH   6   9
HETATM    9  C   UNL     1       9.570  30.921  58.269  1.00  0.00     0.280 C 
BRANCH   9  10
HETATM   10  O   UNL     1       9.401  30.680  59.661  1.00  0.00    -0.342 OA
BRANCH  10  11
HETATM   11  C   UNL     1       8.412  31.397  60.280  1.00  0.00     0.069 A 
HETATM   12  C   UNL     1       8.667  31.731  61.613  1.00  0.00     0.043 A 
HETATM   13  C   UNL     1       7.735  32.460  62.364  1.00  0.00    -0.059 A 
HETATM   14  C   UNL     1       8.002  32.811  63.797  1.00  0.00     0.048 C 
HETATM   15  C   UNL     1       6.548  32.875  61.752  1.00  0.00     0.007 A 
HETATM   16  C   UNL     1       6.297  32.560  60.416  1.00  0.00     0.003 A 
HETATM   17  C   UNL     1       7.226  31.823  59.680  1.00  0.00     0.037 A 
ENDBRANCH  10  11
ENDBRANCH   9  10
ENDBRANCH   6   9
ENDBRANCH   2   5
BRANCH   1  18
HETATM   18  C   UNL     1       7.757  25.322  56.695  1.00  0.00     0.077 A 
HETATM   19  C   UNL     1       8.778  24.512  57.256  1.00  0.00     0.158 A 
HETATM   20  N   UNL     1       8.804  23.279  56.762  1.00  0.00    -0.183 NA
HETATM   21  N   UNL     1       7.804  23.271  55.861  1.00  0.00    -0.268 N 
HETATM   22  C   UNL     1       7.131  24.478  55.783  1.00  0.00     0.052 A 
BRANCH  21  23
HETATM   23  C   UNL     1       7.571  22.063  55.067  1.00  0.00     0.106 C 
HETATM   24  C   UNL     1       7.673  20.765  55.881  1.00  0.00     0.034 C 
BRANCH  23  25
HETATM   25  C   UNL     1       8.453  22.027  53.803  1.00  0.00     0.022 C 
HETATM   26  C   UNL     1       8.319  20.765  52.959  1.00  0.00     0.007 C 
ENDBRANCH  23  25
ENDBRANCH  21  23
BRANCH  22  27
HETATM   27  C   UNL     1       5.928  24.710  54.863  1.00  0.00     0.038 A 
HETATM   28  C   UNL     1       5.855  25.937  53.989  1.00  0.00     0.011 A 
HETATM   29  C   UNL     1       6.065  24.597  53.366  1.00  0.00     0.011 A 
ENDBRANCH  22  27
ENDBRANCH   1  18
TORSDOF 8
ENDMDL
MODEL 2
REMARK VINA RESULT:      -8.9      1.700      2.557
REMARK  8 active torsions:
REMARK  status: ('A' for Active; 'I' for Inactive)
REMARK    1  A    between atoms: C_2  and  C_3 
REMARK    2  A    between atoms: C_3  and  N_4 
REMARK    3  A    between atoms: C_7  and  C_8 
REMARK       I    between atoms: C_8  and  N_9 
REMARK    4  A    between atoms: N_9  and  N_10 
REMARK       I    between atoms: N_10  and  C_11 
REMARK    5  A    between atoms: C_11  and  C_12 
REMARK    6  A    between atoms: C_12  and  O_13 
REMARK    7  A    between atoms: O_13  and  C_14 
REMARK    8  A    between atoms: C_23  and  C_24 
ROOT
HETATM    1  C   UNL     1       6.869  27.550  54.769  1.00  0.00     0.273 C 
HETATM    2  N   UNL     1       7.854  28.254  55.443  1.00  0.00    -0.263 N 
HETATM    3  O   UNL     1       5.760  28.038  54.566  1.00  0.00    -0.266 OA
HETATM    4  H   UNL     1       8.644  27.765  55.866  1.00  0.00     0.190 HD
ENDROOT
BRANCH   2   5
HETATM    5  N   UNL     1       7.506  29.477  56.047  1.00  0.00    -0.265 N 
HETATM    6  C   UNL     1       7.608  29.556  57.423  1.00  0.00     0.260 C 
HETATM    7  O   UNL     1       8.125  28.663  58.096  1.00  0.00    -0.269 OA
HETATM    8  H   UNL     1       6.870  30.071  55.517  1.00  0.00     0.190 HD
BRANCH   6   9
HETATM    9  C   UNL     1       7.046  30.835  58.026  1.00  0.00     0.280 C 
BRANCH   9  10
HETATM   10  O   UNL     1       8.136  31.624  58.489  1.00  0.00    -0.342 OA
BRANCH  10  11
HETATM   11  C   UNL     1       8.295  31.693  59.847  1.00  0.00     0.069 A 
HETATM   12  C   UNL     1       7.439  32.585  60.499  1.00  0.00     0.043 A 
HETATM   13  C   UNL     1       7.499  32.756  61.889  1.00  0.00    -0.059 A 
HETATM   14  C   UNL     1       6.589  33.720  62.589  1.00  0.00     0.048 C 
HETATM   15  C   UNL     1       8.416  31.997  62.625  1.00  0.00     0.007 A 
HETATM   16  C   UNL     1       9.259  31.092  61.980  1.00  0.00     0.003 A 
HETATM   17  C   UNL     1       9.200  30.938  60.594  1.00  0.00     0.037 A 
ENDBRANCH  10  11
ENDBRANCH   9  10
ENDBRANCH   6   9
ENDBRANCH   2   5
BRANCH   1  18
HETATM   18  C   UNL     1       7.296  26.236  54.320  1.00  0.00     0.077 A 
HETATM   19  C   UNL     1       7.742  25.942  53.006  1.00  0.00     0.158 A 
HETATM   20  N   UNL     1       8.078  24.668  52.835  1.00  0.00    -0.183 NA
HETATM   21  N   UNL     1       7.846  24.109  54.037  1.00  0.00    -0.268 N 
HETATM   22  C   UNL     1       7.379  25.011  54.977  1.00  0.00     0.052 A 
BRANCH  21  23
HETATM   23  C   UNL     1       8.058  22.670  54.206  1.00  0.00     0.106 C 
HETATM   24  C   UNL     1       9.386  22.323  54.896  1.00  0.00     0.034 C 
BRANCH  23  25
HETATM   25  C   UNL     1       7.873  21.901  52.883  1.00  0.00     0.022 C 
HETATM   26  C   UNL     1       8.248  20.426  52.935  1.00  0.00     0.007 C 
ENDBRANCH  23  25
ENDBRANCH  21  23
BRANCH  22  27
HETATM   27  C   UNL     1       7.079  24.630  56.430  1.00  0.00     0.038 A 
HETATM   28  C   UNL     1       7.888  25.217  57.561  1.00  0.00     0.011 A 
HETATM   29  C   UNL     1       6.464  25.625  57.381  1.00  0.00     0.011 A 
ENDBRANCH  22  27
ENDBRANCH   1  18
TORSDOF 8
ENDMDL
MODEL 3
REMARK VINA RESULT:      -8.6      1.176      1.622
REMARK  8 active torsions:
REMARK  status: ('A' for Active; 'I' for Inactive)
REMARK    1  A    between atoms: C_2  and  C_3 
REMARK    2  A    between atoms: C_3  and  N_4 
REMARK    3  A    between atoms: C_7  and  C_8 
REMARK       I    between atoms: C_8  and  N_9 
REMARK    4  A    between atoms: N_9  and  N_10 
REMARK       I    between atoms: N_10  and  C_11 
REMARK    5  A    between atoms: C_11  and  C_12 
REMARK    6  A    between atoms: C_12  and  O_13 
REMARK    7  A    between atoms: O_13  and  C_14 
REMARK    8  A    between atoms: C_23  and  C_24 
ROOT
HETATM    1  C   UNL     1       6.745  27.075  56.347  1.00  0.00     0.273 C 
HETATM    2  N   UNL     1       7.780  27.993  56.417  1.00  0.00    -0.263 N 
HETATM    3  O   UNL     1       5.569  27.434  56.363  1.00  0.00    -0.266 OA
HETATM    4  H   UNL     1       8.715  27.700  56.699  1.00  0.00     0.190 HD
ENDROOT
BRANCH   2   5
HETATM    5  N   UNL     1       7.462  29.338  56.682  1.00  0.00    -0.265 N 
HETATM    6  C   UNL     1       7.644  29.790  57.976  1.00  0.00     0.260 C 
HETATM    7  O   UNL     1       8.204  29.108  58.836  1.00  0.00    -0.269 OA
HETATM    8  H   UNL     1       6.793  29.772  56.047  1.00  0.00     0.190 HD
BRANCH   6   9
HETATM    9  C   UNL     1       7.113  31.191  58.238  1.00  0.00     0.280 C 
BRANCH   9  10
HETATM   10  O   UNL     1       8.150  31.954  58.843  1.00  0.00    -0.342 OA
BRANCH  10  11
HETATM   11  C   UNL     1       8.039  32.154  60.193  1.00  0.00     0.069 A 
HETATM   12  C   UNL     1       6.807  32.660  60.617  1.00  0.00     0.043 A 
HETATM   13  C   UNL     1       6.562  32.915  61.974  1.00  0.00    -0.059 A 
HETATM   14  C   UNL     1       5.244  33.466  62.431  1.00  0.00     0.048 C 
HETATM   15  C   UNL     1       7.564  32.632  62.908  1.00  0.00     0.007 A 
HETATM   16  C   UNL     1       8.788  32.111  62.491  1.00  0.00     0.003 A 
HETATM   17  C   UNL     1       9.027  31.871  61.136  1.00  0.00     0.037 A 
ENDBRANCH  10  11
ENDBRANCH   9  10
ENDBRANCH   6   9
ENDBRANCH   2   5
BRANCH   1  18
HETATM   18  C   UNL     1       7.194  25.698  56.224  1.00  0.00     0.077 A 
HETATM   19  C   UNL     1       8.211  25.112  57.020  1.00  0.00     0.158 A 
HETATM   20  N   UNL     1       8.449  23.840  56.721  1.00  0.00    -0.183 NA
HETATM   21  N   UNL     1       7.593  23.581  55.714  1.00  0.00    -0.268 N 
HETATM   22  C   UNL     1       6.804  24.666  55.376  1.00  0.00     0.052 A 
BRANCH  21  23
HETATM   23  C   UNL     1       7.615  22.259  55.084  1.00  0.00     0.106 C 
HETATM   24  C   UNL     1       7.833  21.109  56.078  1.00  0.00     0.034 C 
BRANCH  23  25
HETATM   25  C   UNL     1       8.603  22.201  53.902  1.00  0.00     0.022 C 
HETATM   26  C   UNL     1       8.396  21.034  52.945  1.00  0.00     0.007 C 
ENDBRANCH  23  25
ENDBRANCH  21  23
BRANCH  22  27
HETATM   27  C   UNL     1       5.724  24.613  54.291  1.00  0.00     0.038 A 
HETATM   28  C   UNL     1       5.543  25.763  53.330  1.00  0.00     0.011 A 
HETATM   29  C   UNL     1       6.094  24.466  52.837  1.00  0.00     0.011 A 
ENDBRANCH  22  27
ENDBRANCH   1  18
TORSDOF 8
ENDMDL
MODEL 4
REMARK VINA RESULT:      -8.5      1.995      3.517
REMARK  8 active torsions:
REMARK  status: ('A' for Active; 'I' for Inactive)
REMARK    1  A    between atoms: C_2  and  C_3 
REMARK    2  A    between atoms: C_3  and  N_4 
REMARK    3  A    between atoms: C_7  and  C_8 
REMARK       I    between atoms: C_8  and  N_9 
REMARK    4  A    between atoms: N_9  and  N_10 
REMARK       I    between atoms: N_10  and  C_11 
REMARK    5  A    between atoms: C_11  and  C_12 
REMARK    6  A    between atoms: C_12  and  O_13 
REMARK    7  A    between atoms: O_13  and  C_14 
REMARK    8  A    between atoms: C_23  and  C_24 
ROOT
HETATM    1  C   UNL     1       8.307  28.274  57.011  1.00  0.00     0.273 C 
HETATM    2  N   UNL     1       7.345  28.720  57.903  1.00  0.00    -0.263 N 
HETATM    3  O   UNL     1       9.500  28.521  57.180  1.00  0.00    -0.266 OA
HETATM    4  H   UNL     1       6.366  28.778  57.623  1.00  0.00     0.190 HD
ENDROOT
BRANCH   2   5
HETATM    5  N   UNL     1       7.739  29.611  58.918  1.00  0.00    -0.265 N 
HETATM    6  C   UNL     1       7.346  30.930  58.791  1.00  0.00     0.260 C 
HETATM    7  O   UNL     1       6.557  31.299  57.920  1.00  0.00    -0.269 OA
HETATM    8  H   UNL     1       8.563  29.342  59.454  1.00  0.00     0.190 HD
BRANCH   6   9
HETATM    9  C   UNL     1       7.954  31.874  59.819  1.00  0.00     0.280 C 
BRANCH   9  10
HETATM   10  O   UNL     1       7.712  31.335  61.114  1.00  0.00    -0.342 OA
BRANCH  10  11
HETATM   11  C   UNL     1       7.444  32.244  62.102  1.00  0.00     0.069 A 
HETATM   12  C   UNL     1       6.579  33.279  61.736  1.00  0.00     0.043 A 
HETATM   13  C   UNL     1       6.224  34.280  62.652  1.00  0.00    -0.059 A 
HETATM   14  C   UNL     1       5.304  35.396  62.259  1.00  0.00     0.048 C 
HETATM   15  C   UNL     1       6.730  34.215  63.954  1.00  0.00     0.007 A 
HETATM   16  C   UNL     1       7.580  33.174  64.328  1.00  0.00     0.003 A 
HETATM   17  C   UNL     1       7.937  32.189  63.406  1.00  0.00     0.037 A 
ENDBRANCH  10  11
ENDBRANCH   9  10
ENDBRANCH   6   9
ENDBRANCH   2   5
BRANCH   1  18
HETATM   18  C   UNL     1       7.767  27.486  55.917  1.00  0.00     0.077 A 
HETATM   19  C   UNL     1       7.450  28.003  54.634  1.00  0.00     0.158 A 
HETATM   20  N   UNL     1       6.967  27.088  53.801  1.00  0.00    -0.183 NA
HETATM   21  N   UNL     1       6.952  25.959  54.534  1.00  0.00    -0.268 N 
HETATM   22  C   UNL     1       7.432  26.138  55.820  1.00  0.00     0.052 A 
BRANCH  21  23
HETATM   23  C   UNL     1       6.418  24.732  53.940  1.00  0.00     0.106 C 
HETATM   24  C   UNL     1       7.373  24.069  52.938  1.00  0.00     0.034 C 
BRANCH  23  25
HETATM   25  C   UNL     1       5.010  24.945  53.348  1.00  0.00     0.022 C 
HETATM   26  C   UNL     1       4.966  25.117  51.835  1.00  0.00     0.007 C 
ENDBRANCH  23  25
ENDBRANCH  21  23
BRANCH  22  27
HETATM   27  C   UNL     1       7.555  24.998  56.835  1.00  0.00     0.038 A 
HETATM   28  C   UNL     1       8.518  23.860  56.600  1.00  0.00     0.011 A 
HETATM   29  C   UNL     1       8.792  24.848  57.685  1.00  0.00     0.011 A 
ENDBRANCH  22  27
ENDBRANCH   1  18
TORSDOF 8
ENDMDL
MODEL 5
REMARK VINA RESULT:      -8.3      2.546     10.194
REMARK  8 active torsions:
REMARK  status: ('A' for Active; 'I' for Inactive)
REMARK    1  A    between atoms: C_2  and  C_3 
REMARK    2  A    between atoms: C_3  and  N_4 
REMARK    3  A    between atoms: C_7  and  C_8 
REMARK       I    between atoms: C_8  and  N_9 
REMARK    4  A    between atoms: N_9  and  N_10 
REMARK       I    between atoms: N_10  and  C_11 
REMARK    5  A    between atoms: C_11  and  C_12 
REMARK    6  A    between atoms: C_12  and  O_13 
REMARK    7  A    between atoms: O_13  and  C_14 
REMARK    8  A    between atoms: C_23  and  C_24 
ROOT
HETATM    1  C   UNL     1       6.126  31.431  58.318  1.00  0.00     0.273 C 
HETATM    2  N   UNL     1       6.197  30.048  58.364  1.00  0.00    -0.263 N 
HETATM    3  O   UNL     1       6.096  32.035  57.249  1.00  0.00    -0.266 OA
HETATM    4  H   UNL     1       6.515  29.572  59.208  1.00  0.00     0.190 HD
ENDROOT
BRANCH   2   5
HETATM    5  N   UNL     1       6.410  29.351  57.160  1.00  0.00    -0.265 N 
HETATM    6  C   UNL     1       7.353  28.341  57.171  1.00  0.00     0.260 C 
HETATM    7  O   UNL     1       7.883  27.948  58.212  1.00  0.00    -0.269 OA
HETATM    8  H   UNL     1       6.161  29.848  56.306  1.00  0.00     0.190 HD
BRANCH   6   9
HETATM    9  C   UNL     1       7.667  27.752  55.803  1.00  0.00     0.280 C 
BRANCH   9  10
HETATM   10  O   UNL     1       6.904  26.561  55.646  1.00  0.00    -0.342 OA
BRANCH  10  11
HETATM   11  C   UNL     1       7.276  25.741  54.615  1.00  0.00     0.069 A 
HETATM   12  C   UNL     1       7.326  24.380  54.930  1.00  0.00     0.043 A 
HETATM   13  C   UNL     1       7.697  23.431  53.966  1.00  0.00    -0.059 A 
HETATM   14  C   UNL     1       7.761  21.972  54.304  1.00  0.00     0.048 C 
HETATM   15  C   UNL     1       7.993  23.863  52.670  1.00  0.00     0.007 A 
HETATM   16  C   UNL     1       7.927  25.219  52.347  1.00  0.00     0.003 A 
HETATM   17  C   UNL     1       7.569  26.158  53.317  1.00  0.00     0.037 A 
ENDBRANCH  10  11
ENDBRANCH   9  10
ENDBRANCH   6   9
ENDBRANCH   2   5
BRANCH   1  18
HETATM   18  C   UNL     1       6.059  32.054  59.629  1.00  0.00     0.077 A 
HETATM   19  C   UNL     1       4.857  32.302  60.340  1.00  0.00     0.158 A 
HETATM   20  N   UNL     1       5.051  32.884  61.519  1.00  0.00    -0.183 NA
HETATM   21  N   UNL     1       6.387  33.033  61.589  1.00  0.00    -0.268 N 
HETATM   22  C   UNL     1       7.050  32.542  60.477  1.00  0.00     0.052 A 
BRANCH  21  23
HETATM   23  C   UNL     1       6.968  33.703  62.754  1.00  0.00     0.106 C 
HETATM   24  C   UNL     1       7.461  32.733  63.837  1.00  0.00     0.034 C 
BRANCH  23  25
HETATM   25  C   UNL     1       6.028  34.783  63.326  1.00  0.00     0.022 C 
HETATM   26  C   UNL     1       5.628  34.584  64.782  1.00  0.00     0.007 C 
ENDBRANCH  23  25
ENDBRANCH  21  23
BRANCH  22  27
HETATM   27  C   UNL     1       8.574  32.556  60.335  1.00  0.00     0.038 A 
HETATM   28  C   UNL     1       9.416  31.481  60.978  1.00  0.00     0.011 A 
HETATM   29  C   UNL     1       9.283  31.527  59.492  1.00  0.00     0.011 A 
ENDBRANCH  22  27
ENDBRANCH   1  18
TORSDOF 8
ENDMDL
MODEL 6
REMARK VINA RESULT:      -8.3      1.885      2.748
REMARK  8 active torsions:
REMARK  status: ('A' for Active; 'I' for Inactive)
REMARK    1  A    between atoms: C_2  and  C_3 
REMARK    2  A    between atoms: C_3  and  N_4 
REMARK    3  A    between atoms: C_7  and  C_8 
REMARK       I    between atoms: C_8  and  N_9 
REMARK    4  A    between atoms: N_9  and  N_10 
REMARK       I    between atoms: N_10  and  C_11 
REMARK    5  A    between atoms: C_11  and  C_12 
REMARK    6  A    between atoms: C_12  and  O_13 
REMARK    7  A    between atoms: O_13  and  C_14 
REMARK    8  A    between atoms: C_23  and  C_24 
ROOT
HETATM    1  C   UNL     1       7.152  27.335  57.409  1.00  0.00     0.273 C 
HETATM    2  N   UNL     1       6.040  28.161  57.382  1.00  0.00    -0.263 N 
HETATM    3  O   UNL     1       8.100  27.562  58.157  1.00  0.00    -0.266 OA
HETATM    4  H   UNL     1       5.408  28.153  56.581  1.00  0.00     0.190 HD
ENDROOT
BRANCH   2   5
HETATM    5  N   UNL     1       6.088  29.367  58.104  1.00  0.00    -0.265 N 
HETATM    6  C   UNL     1       5.961  30.542  57.386  1.00  0.00     0.260 C 
HETATM    7  O   UNL     1       5.665  30.552  56.191  1.00  0.00    -0.269 OA
HETATM    8  H   UNL     1       6.570  29.332  59.002  1.00  0.00     0.190 HD
BRANCH   6   9
HETATM    9  C   UNL     1       6.203  31.808  58.196  1.00  0.00     0.280 C 
BRANCH   9  10
HETATM   10  O   UNL     1       7.597  31.905  58.462  1.00  0.00    -0.342 OA
BRANCH  10  11
HETATM   11  C   UNL     1       7.954  31.963  59.782  1.00  0.00     0.069 A 
HETATM   12  C   UNL     1       6.887  32.060  60.681  1.00  0.00     0.043 A 
HETATM   13  C   UNL     1       7.113  32.131  62.063  1.00  0.00    -0.059 A 
HETATM   14  C   UNL     1       5.971  32.244  63.027  1.00  0.00     0.048 C 
HETATM   15  C   UNL     1       8.428  32.079  62.537  1.00  0.00     0.007 A 
HETATM   16  C   UNL     1       9.494  31.965  61.645  1.00  0.00     0.003 A 
HETATM   17  C   UNL     1       9.260  31.907  60.270  1.00  0.00     0.037 A 
ENDBRANCH  10  11
ENDBRANCH   9  10
ENDBRANCH   6   9
ENDBRANCH   2   5
BRANCH   1  18
HETATM   18  C   UNL     1       7.055  26.197  56.509  1.00  0.00     0.077 A 
HETATM   19  C   UNL     1       6.650  24.896  56.902  1.00  0.00     0.158 A 
HETATM   20  N   UNL     1       6.641  24.022  55.902  1.00  0.00    -0.183 NA
HETATM   21  N   UNL     1       7.051  24.741  54.841  1.00  0.00    -0.268 N 
HETATM   22  C   UNL     1       7.309  26.066  55.147  1.00  0.00     0.052 A 
BRANCH  21  23
HETATM   23  C   UNL     1       7.215  24.073  53.548  1.00  0.00     0.106 C 
HETATM   24  C   UNL     1       6.072  24.354  52.563  1.00  0.00     0.034 C 
BRANCH  23  25
HETATM   25  C   UNL     1       7.484  22.564  53.710  1.00  0.00     0.022 C 
HETATM   26  C   UNL     1       8.956  22.173  53.760  1.00  0.00     0.007 C 
ENDBRANCH  23  25
ENDBRANCH  21  23
BRANCH  22  27
HETATM   27  C   UNL     1       7.748  27.099  54.104  1.00  0.00     0.038 A 
HETATM   28  C   UNL     1       6.810  28.199  53.671  1.00  0.00     0.011 A 
HETATM   29  C   UNL     1       8.009  28.531  54.495  1.00  0.00     0.011 A 
ENDBRANCH  22  27
ENDBRANCH   1  18
TORSDOF 8
ENDMDL
MODEL 7
REMARK VINA RESULT:      -8.2      5.781      9.907
REMARK  8 active torsions:
REMARK  status: ('A' for Active; 'I' for Inactive)
REMARK    1  A    between atoms: C_2  and  C_3 
REMARK    2  A    between atoms: C_3  and  N_4 
REMARK    3  A    between atoms: C_7  and  C_8 
REMARK       I    between atoms: C_8  and  N_9 
REMARK    4  A    between atoms: N_9  and  N_10 
REMARK       I    between atoms: N_10  and  C_11 
REMARK    5  A    between atoms: C_11  and  C_12 
REMARK    6  A    between atoms: C_12  and  O_13 
REMARK    7  A    between atoms: O_13  and  C_14 
REMARK    8  A    between atoms: C_23  and  C_24 
ROOT
HETATM    1  C   UNL     1       4.824  26.779  51.072  1.00  0.00     0.273 C 
HETATM    2  N   UNL     1       4.475  27.025  52.390  1.00  0.00    -0.263 N 
HETATM    3  O   UNL     1       5.586  25.862  50.772  1.00  0.00    -0.266 OA
HETATM    4  H   UNL     1       4.100  27.932  52.666  1.00  0.00     0.190 HD
ENDROOT
BRANCH   2   5
HETATM    5  N   UNL     1       5.146  26.314  53.402  1.00  0.00    -0.265 N 
HETATM    6  C   UNL     1       6.291  26.885  53.925  1.00  0.00     0.260 C 
HETATM    7  O   UNL     1       6.639  28.033  53.645  1.00  0.00    -0.269 OA
HETATM    8  H   UNL     1       4.987  25.307  53.421  1.00  0.00     0.190 HD
BRANCH   6   9
HETATM    9  C   UNL     1       7.066  25.988  54.879  1.00  0.00     0.280 C 
BRANCH   9  10
HETATM   10  O   UNL     1       6.364  24.756  55.001  1.00  0.00    -0.342 OA
BRANCH  10  11
HETATM   11  C   UNL     1       7.023  23.642  54.555  1.00  0.00     0.069 A 
HETATM   12  C   UNL     1       7.441  22.761  55.557  1.00  0.00     0.043 A 
HETATM   13  C   UNL     1       8.131  21.582  55.238  1.00  0.00    -0.059 A 
HETATM   14  C   UNL     1       8.588  20.640  56.311  1.00  0.00     0.048 C 
HETATM   15  C   UNL     1       8.377  21.285  53.893  1.00  0.00     0.007 A 
HETATM   16  C   UNL     1       7.946  22.153  52.890  1.00  0.00     0.003 A 
HETATM   17  C   UNL     1       7.270  23.330  53.218  1.00  0.00     0.037 A 
ENDBRANCH  10  11
ENDBRANCH   9  10
ENDBRANCH   6   9
ENDBRANCH   2   5
BRANCH   1  18
HETATM   18  C   UNL     1       4.183  27.673  50.123  1.00  0.00     0.077 A 
HETATM   19  C   UNL     1       3.809  29.012  50.408  1.00  0.00     0.158 A 
HETATM   20  N   UNL     1       3.237  29.630  49.381  1.00  0.00    -0.183 NA
HETATM   21  N   UNL     1       3.220  28.697  48.411  1.00  0.00    -0.268 N 
HETATM   22  C   UNL     1       3.787  27.495  48.800  1.00  0.00     0.052 A 
BRANCH  21  23
HETATM   23  C   UNL     1       2.598  29.018  47.124  1.00  0.00     0.106 C 
HETATM   24  C   UNL     1       3.267  30.192  46.396  1.00  0.00     0.034 C 
BRANCH  23  25
HETATM   25  C   UNL     1       1.074  29.206  47.253  1.00  0.00     0.022 C 
HETATM   26  C   UNL     1       0.231  28.150  46.549  1.00  0.00     0.007 C 
ENDBRANCH  23  25
ENDBRANCH  21  23
BRANCH  22  27
HETATM   27  C   UNL     1       3.926  26.291  47.865  1.00  0.00     0.038 A 
HETATM   28  C   UNL     1       3.189  25.005  48.152  1.00  0.00     0.011 A 
HETATM   29  C   UNL     1       2.777  25.851  46.993  1.00  0.00     0.011 A 
ENDBRANCH  22  27
ENDBRANCH   1  18
TORSDOF 8
ENDMDL
MODEL 8
REMARK VINA RESULT:      -8.2      2.526     10.506
REMARK  8 active torsions:
REMARK  status: ('A' for Active; 'I' for Inactive)
REMARK    1  A    between atoms: C_2  and  C_3 
REMARK    2  A    between atoms: C_3  and  N_4 
REMARK    3  A    between atoms: C_7  and  C_8 
REMARK       I    between atoms: C_8  and  N_9 
REMARK    4  A    between atoms: N_9  and  N_10 
REMARK       I    between atoms: N_10  and  C_11 
REMARK    5  A    between atoms: C_11  and  C_12 
REMARK    6  A    between atoms: C_12  and  O_13 
REMARK    7  A    between atoms: O_13  and  C_14 
REMARK    8  A    between atoms: C_23  and  C_24 
ROOT
HETATM    1  C   UNL     1       7.312  31.458  59.008  1.00  0.00     0.273 C 
HETATM    2  N   UNL     1       6.735  30.286  58.545  1.00  0.00    -0.263 N 
HETATM    3  O   UNL     1       8.467  31.761  58.716  1.00  0.00    -0.266 OA
HETATM    4  H   UNL     1       5.917  29.893  59.009  1.00  0.00     0.190 HD
ENDROOT
BRANCH   2   5
HETATM    5  N   UNL     1       7.554  29.359  57.874  1.00  0.00    -0.265 N 
HETATM    6  C   UNL     1       6.948  28.220  57.378  1.00  0.00     0.260 C 
HETATM    7  O   UNL     1       5.724  28.076  57.374  1.00  0.00    -0.269 OA
HETATM    8  H   UNL     1       8.545  29.383  58.113  1.00  0.00     0.190 HD
BRANCH   6   9
HETATM    9  C   UNL     1       7.911  27.178  56.828  1.00  0.00     0.280 C 
BRANCH   9  10
HETATM   10  O   UNL     1       7.469  25.895  57.255  1.00  0.00    -0.342 OA
BRANCH  10  11
HETATM   11  C   UNL     1       7.816  24.842  56.451  1.00  0.00     0.069 A 
HETATM   12  C   UNL     1       7.661  25.067  55.081  1.00  0.00     0.043 A 
HETATM   13  C   UNL     1       7.976  24.070  54.147  1.00  0.00    -0.059 A 
HETATM   14  C   UNL     1       7.802  24.305  52.677  1.00  0.00     0.048 C 
HETATM   15  C   UNL     1       8.476  22.847  54.606  1.00  0.00     0.007 A 
HETATM   16  C   UNL     1       8.648  22.625  55.972  1.00  0.00     0.003 A 
HETATM   17  C   UNL     1       8.321  23.620  56.895  1.00  0.00     0.037 A 
ENDBRANCH  10  11
ENDBRANCH   9  10
ENDBRANCH   6   9
ENDBRANCH   2   5
BRANCH   1  18
HETATM   18  C   UNL     1       6.417  32.268  59.817  1.00  0.00     0.077 A 
HETATM   19  C   UNL     1       5.380  33.083  59.295  1.00  0.00     0.158 A 
HETATM   20  N   UNL     1       4.697  33.731  60.232  1.00  0.00    -0.183 NA
HETATM   21  N   UNL     1       5.286  33.354  61.381  1.00  0.00    -0.268 N 
HETATM   22  C   UNL     1       6.329  32.463  61.192  1.00  0.00     0.052 A 
BRANCH  21  23
HETATM   23  C   UNL     1       4.817  33.928  62.644  1.00  0.00     0.106 C 
HETATM   24  C   UNL     1       3.304  33.779  62.861  1.00  0.00     0.034 C 
BRANCH  23  25
HETATM   25  C   UNL     1       5.289  35.384  62.825  1.00  0.00     0.022 C 
HETATM   26  C   UNL     1       5.242  35.904  64.256  1.00  0.00     0.007 C 
ENDBRANCH  23  25
ENDBRANCH  21  23
BRANCH  22  27
HETATM   27  C   UNL     1       7.132  31.854  62.346  1.00  0.00     0.038 A 
HETATM   28  C   UNL     1       8.639  31.922  62.353  1.00  0.00     0.011 A 
HETATM   29  C   UNL     1       7.857  32.732  63.333  1.00  0.00     0.011 A 
ENDBRANCH  22  27
ENDBRANCH   1  18
TORSDOF 8
ENDMDL
MODEL 9
REMARK VINA RESULT:      -8.2      2.405      3.634
REMARK  8 active torsions:
REMARK  status: ('A' for Active; 'I' for Inactive)
REMARK    1  A    between atoms: C_2  and  C_3 
REMARK    2  A    between atoms: C_3  and  N_4 
REMARK    3  A    between atoms: C_7  and  C_8 
REMARK       I    between atoms: C_8  and  N_9 
REMARK    4  A    between atoms: N_9  and  N_10 
REMARK       I    between atoms: N_10  and  C_11 
REMARK    5  A    between atoms: C_11  and  C_12 
REMARK    6  A    between atoms: C_12  and  O_13 
REMARK    7  A    between atoms: O_13  and  C_14 
REMARK    8  A    between atoms: C_23  and  C_24 
ROOT
HETATM    1  C   UNL     1       6.951  28.442  56.695  1.00  0.00     0.273 C 
HETATM    2  N   UNL     1       5.708  28.999  56.950  1.00  0.00    -0.263 N 
HETATM    3  O   UNL     1       7.887  28.582  57.479  1.00  0.00    -0.266 OA
HETATM    4  H   UNL     1       5.038  29.140  56.194  1.00  0.00     0.190 HD
ENDROOT
BRANCH   2   5
HETATM    5  N   UNL     1       5.581  29.877  58.042  1.00  0.00    -0.265 N 
HETATM    6  C   UNL     1       5.494  31.228  57.763  1.00  0.00     0.260 C 
HETATM    7  O   UNL     1       5.373  31.654  56.613  1.00  0.00    -0.269 OA
HETATM    8  H   UNL     1       5.930  29.531  58.935  1.00  0.00     0.190 HD
BRANCH   6   9
HETATM    9  C   UNL     1       5.543  32.132  58.986  1.00  0.00     0.280 C 
BRANCH   9  10
HETATM   10  O   UNL     1       6.872  32.619  59.126  1.00  0.00    -0.342 OA
BRANCH  10  11
HETATM   11  C   UNL     1       7.600  32.092  60.159  1.00  0.00     0.069 A 
HETATM   12  C   UNL     1       7.392  32.701  61.400  1.00  0.00     0.043 A 
HETATM   13  C   UNL     1       8.078  32.262  62.542  1.00  0.00    -0.059 A 
HETATM   14  C   UNL     1       7.864  32.919  63.872  1.00  0.00     0.048 C 
HETATM   15  C   UNL     1       8.960  31.183  62.428  1.00  0.00     0.007 A 
HETATM   16  C   UNL     1       9.157  30.561  61.195  1.00  0.00     0.003 A 
HETATM   17  C   UNL     1       8.478  31.013  60.062  1.00  0.00     0.037 A 
ENDBRANCH  10  11
ENDBRANCH   9  10
ENDBRANCH   6   9
ENDBRANCH   2   5
BRANCH   1  18
HETATM   18  C   UNL     1       7.005  27.678  55.460  1.00  0.00     0.077 A 
HETATM   19  C   UNL     1       7.357  28.219  54.196  1.00  0.00     0.158 A 
HETATM   20  N   UNL     1       7.334  27.324  53.215  1.00  0.00    -0.183 NA
HETATM   21  N   UNL     1       6.956  26.185  53.825  1.00  0.00    -0.268 N 
HETATM   22  C   UNL     1       6.750  26.338  55.185  1.00  0.00     0.052 A 
BRANCH  21  23
HETATM   23  C   UNL     1       6.768  24.975  53.021  1.00  0.00     0.106 C 
HETATM   24  C   UNL     1       7.841  24.786  51.939  1.00  0.00     0.034 C 
BRANCH  23  25
HETATM   25  C   UNL     1       5.341  24.882  52.447  1.00  0.00     0.022 C 
HETATM   26  C   UNL     1       5.111  25.663  51.159  1.00  0.00     0.007 C 
ENDBRANCH  23  25
ENDBRANCH  21  23
BRANCH  22  27
HETATM   27  C   UNL     1       6.356  25.182  56.109  1.00  0.00     0.038 A 
HETATM   28  C   UNL     1       7.372  24.143  56.517  1.00  0.00     0.011 A 
HETATM   29  C   UNL     1       6.862  25.117  57.528  1.00  0.00     0.011 A 
ENDBRANCH  22  27
ENDBRANCH   1  18
TORSDOF 8
ENDMDL
MODEL 10
REMARK VINA RESULT:      -7.9      1.752      2.817
REMARK  8 active torsions:
REMARK  status: ('A' for Active; 'I' for Inactive)
REMARK    1  A    between atoms: C_2  and  C_3 
REMARK    2  A    between atoms: C_3  and  N_4 
REMARK    3  A    between atoms: C_7  and  C_8 
REMARK       I    between atoms: C_8  and  N_9 
REMARK    4  A    between atoms: N_9  and  N_10 
REMARK       I    between atoms: N_10  and  C_11 
REMARK    5  A    between atoms: C_11  and  C_12 
REMARK    6  A    between atoms: C_12  and  O_13 
REMARK    7  A    between atoms: O_13  and  C_14 
REMARK    8  A    between atoms: C_23  and  C_24 
ROOT
HETATM    1  C   UNL     1       6.376  28.336  57.400  1.00  0.00     0.273 C 
HETATM    2  N   UNL     1       7.415  29.136  57.847  1.00  0.00    -0.263 N 
HETATM    3  O   UNL     1       5.207  28.711  57.464  1.00  0.00    -0.266 OA
HETATM    4  H   UNL     1       8.324  28.729  58.069  1.00  0.00     0.190 HD
ENDROOT
BRANCH   2   5
HETATM    5  N   UNL     1       7.097  30.319  58.538  1.00  0.00    -0.265 N 
HETATM    6  C   UNL     1       7.945  30.705  59.559  1.00  0.00     0.260 C 
HETATM    7  O   UNL     1       9.019  30.139  59.770  1.00  0.00    -0.269 OA
HETATM    8  H   UNL     1       6.118  30.602  58.513  1.00  0.00     0.190 HD
BRANCH   6   9
HETATM    9  C   UNL     1       7.450  31.885  60.382  1.00  0.00     0.280 C 
BRANCH   9  10
HETATM   10  O   UNL     1       7.854  31.688  61.731  1.00  0.00    -0.342 OA
BRANCH  10  11
HETATM   11  C   UNL     1       7.434  32.632  62.629  1.00  0.00     0.069 A 
HETATM   12  C   UNL     1       6.533  33.572  62.121  1.00  0.00     0.043 A 
HETATM   13  C   UNL     1       6.027  34.597  62.934  1.00  0.00    -0.059 A 
HETATM   14  C   UNL     1       5.068  35.612  62.389  1.00  0.00     0.048 C 
HETATM   15  C   UNL     1       6.419  34.653  64.275  1.00  0.00     0.007 A 
HETATM   16  C   UNL     1       7.304  33.706  64.790  1.00  0.00     0.003 A 
HETATM   17  C   UNL     1       7.812  32.696  63.970  1.00  0.00     0.037 A 
ENDBRANCH  10  11
ENDBRANCH   9  10
ENDBRANCH   6   9
ENDBRANCH   2   5
BRANCH   1  18
HETATM   18  C   UNL     1       6.815  27.069  56.840  1.00  0.00     0.077 A 
HETATM   19  C   UNL     1       7.859  26.273  57.376  1.00  0.00     0.158 A 
HETATM   20  N   UNL     1       8.079  25.158  56.689  1.00  0.00    -0.183 NA
HETATM   21  N   UNL     1       7.185  25.216  55.684  1.00  0.00    -0.268 N 
HETATM   22  C   UNL     1       6.387  26.347  55.729  1.00  0.00     0.052 A 
BRANCH  21  23
HETATM   23  C   UNL     1       7.177  24.155  54.675  1.00  0.00     0.106 C 
HETATM   24  C   UNL     1       7.356  22.748  55.264  1.00  0.00     0.034 C 
BRANCH  23  25
HETATM   25  C   UNL     1       8.173  24.439  53.533  1.00  0.00     0.022 C 
HETATM   26  C   UNL     1       7.564  24.464  52.137  1.00  0.00     0.007 C 
ENDBRANCH  23  25
ENDBRANCH  21  23
BRANCH  22  27
HETATM   27  C   UNL     1       5.267  26.624  54.723  1.00  0.00     0.038 A 
HETATM   28  C   UNL     1       4.967  28.034  54.276  1.00  0.00     0.011 A 
HETATM   29  C   UNL     1       5.581  27.069  53.317  1.00  0.00     0.011 A 
ENDBRANCH  22  27
ENDBRANCH   1  18
TORSDOF 8
ENDMDL
