MODEL 1
REMARK VINA RESULT:      -8.3      0.000      0.000
REMARK  8 active torsions:
REMARK  status: ('A' for Active; 'I' for Inactive)
REMARK    1  A    between atoms: C_2  and  O_3 
REMARK    2  A    between atoms: O_3  and  C_4 
REMARK    3  A    between atoms: C_4  and  C_5 
REMARK    4  A    between atoms: C_6  and  N_7 
REMARK       I    between atoms: N_7  and  C_8 
REMARK    5  A    between atoms: C_8  and  C_9 
REMARK    6  A    between atoms: C_9  and  N_10 
REMARK    7  A    between atoms: C_22  and  C_23 
REMARK    8  A    between atoms: C_26  and  N_27 
ROOT
HETATM    1  C   UNL     1       6.485  27.296  56.774  1.00  0.00     0.085 A 
HETATM    2  C   UNL     1       5.626  28.379  56.901  1.00  0.00     0.093 A 
HETATM    3  S   UNL     1       4.383  28.392  55.742  1.00  0.00    -0.082 SA
HETATM    4  C   UNL     1       4.981  26.984  55.000  1.00  0.00     0.065 A 
HETATM    5  C   UNL     1       6.112  26.493  55.628  1.00  0.00    -0.000 A 
ENDROOT
BRANCH   2   6
HETATM    6  N   UNL     1       5.637  29.352  57.896  1.00  0.00    -0.319 N 
HETATM    7  C   UNL     1       5.630  30.700  57.617  1.00  0.00     0.248 C 
HETATM    8  O   UNL     1       5.811  31.208  56.513  1.00  0.00    -0.271 OA
HETATM    9  H   UNL     1       6.016  29.028  58.792  1.00  0.00     0.169 HD
BRANCH   7  10
HETATM   10  C   UNL     1       5.356  31.604  58.813  1.00  0.00     0.337 C 
BRANCH  10  11
HETATM   11  N   UNL     1       6.604  32.354  59.374  1.00  0.00    -0.060 N 
HETATM   12  H   UNL     1       6.596  33.214  58.802  1.00  0.00     0.280 HD
HETATM   13  C   UNL     1       7.947  31.702  59.066  1.00  0.00     0.263 C 
HETATM   14  C   UNL     1       8.470  30.726  60.149  1.00  0.00     0.262 C 
HETATM   15  N   UNL     1       8.377  31.297  61.558  1.00  0.00    -0.072 N 
HETATM   16  H   UNL     1       9.096  32.028  61.661  1.00  0.00     0.279 HD
HETATM   17  C   UNL     1       8.742  30.230  62.577  1.00  0.00     0.269 C 
HETATM   18  C   UNL     1       7.021  31.902  61.902  1.00  0.00     0.262 C 
HETATM   19  C   UNL     1       6.483  32.857  60.807  1.00  0.00     0.263 C 
ENDBRANCH  10  11
ENDBRANCH   7  10
ENDBRANCH   2   6
BRANCH   1  20
HETATM   20  C   UNL     1       7.616  27.128  57.691  1.00  0.00     0.297 C 
HETATM   21  O   UNL     1       7.786  26.075  58.301  1.00  0.00    -0.259 OA
BRANCH  20  22
HETATM   22  O   UNL     1       8.381  28.240  57.823  1.00  0.00    -0.318 OA
BRANCH  22  23
HETATM   23  C   UNL     1       9.036  28.736  56.645  1.00  0.00     0.174 C 
HETATM   24  C   UNL     1      10.322  29.430  57.046  1.00  0.00     0.034 C 
ENDBRANCH  22  23
ENDBRANCH  20  22
ENDBRANCH   1  20
BRANCH   5  25
HETATM   25  C   UNL     1       6.737  25.288  55.098  1.00  0.00    -0.024 A 
HETATM   26  C   UNL     1       7.319  25.310  53.821  1.00  0.00     0.015 A 
HETATM   27  C   UNL     1       7.885  24.153  53.282  1.00  0.00     0.037 A 
HETATM   28  C   UNL     1       7.873  22.967  54.028  1.00  0.00     0.102 A 
HETATM   29  C   UNL     1       7.298  22.936  55.307  1.00  0.00     0.037 A 
HETATM   30  C   UNL     1       6.726  24.097  55.837  1.00  0.00     0.015 A 
BRANCH  28  31
HETATM   31  N   UNL     1       8.462  21.747  53.463  1.00  0.00    -0.116 N 
HETATM   32  O   UNL     1       9.697  21.648  53.479  1.00  0.00    -0.532 OA
HETATM   33  O   UNL     1       7.687  20.896  53.008  1.00  0.00    -0.532 OA
ENDBRANCH  28  31
ENDBRANCH   5  25
TORSDOF 8
ENDMDL
MODEL 2
REMARK VINA RESULT:      -8.3      2.280      3.440
REMARK  8 active torsions:
REMARK  status: ('A' for Active; 'I' for Inactive)
REMARK    1  A    between atoms: C_2  and  O_3 
REMARK    2  A    between atoms: O_3  and  C_4 
REMARK    3  A    between atoms: C_4  and  C_5 
REMARK    4  A    between atoms: C_6  and  N_7 
REMARK       I    between atoms: N_7  and  C_8 
REMARK    5  A    between atoms: C_8  and  C_9 
REMARK    6  A    between atoms: C_9  and  N_10 
REMARK    7  A    between atoms: C_22  and  C_23 
REMARK    8  A    between atoms: C_26  and  N_27 
ROOT
HETATM    1  C   UNL     1       6.563  26.700  54.055  1.00  0.00     0.085 A 
HETATM    2  C   UNL     1       6.067  27.697  53.227  1.00  0.00     0.093 A 
HETATM    3  S   UNL     1       5.779  27.172  51.637  1.00  0.00    -0.082 SA
HETATM    4  C   UNL     1       6.356  25.611  51.987  1.00  0.00     0.065 A 
HETATM    5  C   UNL     1       6.758  25.477  53.304  1.00  0.00    -0.000 A 
ENDROOT
BRANCH   2   6
HETATM    6  N   UNL     1       5.717  28.996  53.588  1.00  0.00    -0.319 N 
HETATM    7  C   UNL     1       4.417  29.370  53.840  1.00  0.00     0.248 C 
HETATM    8  O   UNL     1       3.414  28.702  53.595  1.00  0.00    -0.271 OA
HETATM    9  H   UNL     1       6.396  29.707  53.299  1.00  0.00     0.169 HD
BRANCH   7  10
HETATM   10  C   UNL     1       4.255  30.738  54.493  1.00  0.00     0.337 C 
BRANCH  10  11
HETATM   11  N   UNL     1       3.780  30.709  55.979  1.00  0.00    -0.060 N 
HETATM   12  H   UNL     1       2.775  30.504  55.864  1.00  0.00     0.280 HD
HETATM   13  C   UNL     1       3.819  32.051  56.700  1.00  0.00     0.263 C 
HETATM   14  C   UNL     1       5.126  32.344  57.478  1.00  0.00     0.262 C 
HETATM   15  N   UNL     1       5.577  31.172  58.341  1.00  0.00    -0.072 N 
HETATM   16  H   UNL     1       4.941  31.097  59.148  1.00  0.00     0.279 HD
HETATM   17  C   UNL     1       6.946  31.462  58.937  1.00  0.00     0.269 C 
HETATM   18  C   UNL     1       5.599  29.831  57.618  1.00  0.00     0.262 C 
HETATM   19  C   UNL     1       4.305  29.549  56.816  1.00  0.00     0.263 C 
ENDBRANCH  10  11
ENDBRANCH   7  10
ENDBRANCH   2   6
BRANCH   1  20
HETATM   20  C   UNL     1       6.871  26.979  55.461  1.00  0.00     0.297 C 
HETATM   21  O   UNL     1       6.145  26.565  56.362  1.00  0.00    -0.259 OA
BRANCH  20  22
HETATM   22  O   UNL     1       7.965  27.760  55.635  1.00  0.00    -0.318 OA
BRANCH  22  23
HETATM   23  C   UNL     1       8.534  27.817  56.953  1.00  0.00     0.174 C 
HETATM   24  C   UNL     1       9.472  29.003  57.039  1.00  0.00     0.034 C 
ENDBRANCH  22  23
ENDBRANCH  20  22
ENDBRANCH   1  20
BRANCH   5  25
HETATM   25  C   UNL     1       7.280  24.190  53.747  1.00  0.00    -0.024 A 
HETATM   26  C   UNL     1       8.023  23.397  52.859  1.00  0.00     0.015 A 
HETATM   27  C   UNL     1       8.493  22.144  53.255  1.00  0.00     0.037 A 
HETATM   28  C   UNL     1       8.224  21.683  54.550  1.00  0.00     0.102 A 
HETATM   29  C   UNL     1       7.486  22.470  55.446  1.00  0.00     0.037 A 
HETATM   30  C   UNL     1       7.011  23.721  55.040  1.00  0.00     0.015 A 
BRANCH  28  31
HETATM   31  N   UNL     1       8.713  20.364  54.968  1.00  0.00    -0.116 N 
HETATM   32  O   UNL     1       8.905  19.519  54.083  1.00  0.00    -0.532 OA
HETATM   33  O   UNL     1       8.903  20.182  56.178  1.00  0.00    -0.532 OA
ENDBRANCH  28  31
ENDBRANCH   5  25
TORSDOF 8
ENDMDL
MODEL 3
REMARK VINA RESULT:      -8.2      2.020      2.731
REMARK  8 active torsions:
REMARK  status: ('A' for Active; 'I' for Inactive)
REMARK    1  A    between atoms: C_2  and  O_3 
REMARK    2  A    between atoms: O_3  and  C_4 
REMARK    3  A    between atoms: C_4  and  C_5 
REMARK    4  A    between atoms: C_6  and  N_7 
REMARK       I    between atoms: N_7  and  C_8 
REMARK    5  A    between atoms: C_8  and  C_9 
REMARK    6  A    between atoms: C_9  and  N_10 
REMARK    7  A    between atoms: C_22  and  C_23 
REMARK    8  A    between atoms: C_26  and  N_27 
ROOT
HETATM    1  C   UNL     1       6.811  26.954  54.866  1.00  0.00     0.085 A 
HETATM    2  C   UNL     1       6.379  28.140  54.289  1.00  0.00     0.093 A 
HETATM    3  S   UNL     1       5.980  27.983  52.644  1.00  0.00    -0.082 SA
HETATM    4  C   UNL     1       6.421  26.341  52.635  1.00  0.00     0.065 A 
HETATM    5  C   UNL     1       6.859  25.902  53.871  1.00  0.00    -0.000 A 
ENDROOT
BRANCH   2   6
HETATM    6  N   UNL     1       6.167  29.359  54.926  1.00  0.00    -0.319 N 
HETATM    7  C   UNL     1       5.007  29.649  55.607  1.00  0.00     0.248 C 
HETATM    8  O   UNL     1       3.969  28.990  55.575  1.00  0.00    -0.271 OA
HETATM    9  H   UNL     1       6.737  30.127  54.558  1.00  0.00     0.169 HD
BRANCH   7  10
HETATM   10  C   UNL     1       5.063  30.901  56.474  1.00  0.00     0.337 C 
BRANCH  10  11
HETATM   11  N   UNL     1       5.056  30.641  58.012  1.00  0.00    -0.060 N 
HETATM   12  H   UNL     1       5.183  29.617  58.042  1.00  0.00     0.280 HD
HETATM   13  C   UNL     1       3.722  30.883  58.707  1.00  0.00     0.263 C 
HETATM   14  C   UNL     1       3.532  32.306  59.290  1.00  0.00     0.262 C 
HETATM   15  N   UNL     1       4.736  32.784  60.093  1.00  0.00    -0.072 N 
HETATM   16  H   UNL     1       4.762  32.264  60.982  1.00  0.00     0.279 HD
HETATM   17  C   UNL     1       4.553  34.241  60.487  1.00  0.00     0.269 C 
HETATM   18  C   UNL     1       6.074  32.601  59.388  1.00  0.00     0.262 C 
HETATM   19  C   UNL     1       6.254  31.188  58.778  1.00  0.00     0.263 C 
ENDBRANCH  10  11
ENDBRANCH   7  10
ENDBRANCH   2   6
BRANCH   1  20
HETATM   20  C   UNL     1       7.198  26.907  56.279  1.00  0.00     0.297 C 
HETATM   21  O   UNL     1       6.434  26.458  57.131  1.00  0.00    -0.259 OA
BRANCH  20  22
HETATM   22  O   UNL     1       8.416  27.447  56.529  1.00  0.00    -0.318 OA
BRANCH  22  23
HETATM   23  C   UNL     1       8.477  28.544  57.453  1.00  0.00     0.174 C 
HETATM   24  C   UNL     1       9.716  29.368  57.167  1.00  0.00     0.034 C 
ENDBRANCH  22  23
ENDBRANCH  20  22
ENDBRANCH   1  20
BRANCH   5  25
HETATM   25  C   UNL     1       7.273  24.512  54.012  1.00  0.00    -0.024 A 
HETATM   26  C   UNL     1       7.775  23.819  52.899  1.00  0.00     0.015 A 
HETATM   27  C   UNL     1       8.138  22.475  53.007  1.00  0.00     0.037 A 
HETATM   28  C   UNL     1       8.002  21.821  54.238  1.00  0.00     0.102 A 
HETATM   29  C   UNL     1       7.505  22.505  55.357  1.00  0.00     0.037 A 
HETATM   30  C   UNL     1       7.138  23.850  55.239  1.00  0.00     0.015 A 
BRANCH  28  31
HETATM   31  N   UNL     1       8.376  20.406  54.355  1.00  0.00    -0.116 N 
HETATM   32  O   UNL     1       8.654  19.801  53.311  1.00  0.00    -0.532 OA
HETATM   33  O   UNL     1       8.392  19.911  55.489  1.00  0.00    -0.532 OA
ENDBRANCH  28  31
ENDBRANCH   5  25
TORSDOF 8
ENDMDL
MODEL 4
REMARK VINA RESULT:      -8.2      2.235      3.096
REMARK  8 active torsions:
REMARK  status: ('A' for Active; 'I' for Inactive)
REMARK    1  A    between atoms: C_2  and  O_3 
REMARK    2  A    between atoms: O_3  and  C_4 
REMARK    3  A    between atoms: C_4  and  C_5 
REMARK    4  A    between atoms: C_6  and  N_7 
REMARK       I    between atoms: N_7  and  C_8 
REMARK    5  A    between atoms: C_8  and  C_9 
REMARK    6  A    between atoms: C_9  and  N_10 
REMARK    7  A    between atoms: C_22  and  C_23 
REMARK    8  A    between atoms: C_26  and  N_27 
ROOT
HETATM    1  C   UNL     1       6.383  29.042  57.215  1.00  0.00     0.085 A 
HETATM    2  C   UNL     1       5.627  30.081  57.740  1.00  0.00     0.093 A 
HETATM    3  S   UNL     1       4.161  30.330  56.916  1.00  0.00    -0.082 SA
HETATM    4  C   UNL     1       4.512  29.096  55.801  1.00  0.00     0.065 A 
HETATM    5  C   UNL     1       5.728  28.485  56.050  1.00  0.00    -0.000 A 
ENDROOT
BRANCH   2   6
HETATM    6  N   UNL     1       5.905  30.835  58.877  1.00  0.00    -0.319 N 
HETATM    7  C   UNL     1       5.895  32.211  58.874  1.00  0.00     0.248 C 
HETATM    8  O   UNL     1       5.846  32.931  57.879  1.00  0.00    -0.271 OA
HETATM    9  H   UNL     1       6.460  30.339  59.581  1.00  0.00     0.169 HD
BRANCH   7  10
HETATM   10  C   UNL     1       5.938  32.858  60.254  1.00  0.00     0.337 C 
BRANCH  10  11
HETATM   11  N   UNL     1       5.220  32.055  61.383  1.00  0.00    -0.060 N 
HETATM   12  H   UNL     1       5.237  31.100  60.991  1.00  0.00     0.280 HD
HETATM   13  C   UNL     1       3.741  32.370  61.565  1.00  0.00     0.263 C 
HETATM   14  C   UNL     1       3.424  33.467  62.612  1.00  0.00     0.262 C 
HETATM   15  N   UNL     1       4.173  33.269  63.924  1.00  0.00    -0.072 N 
HETATM   16  H   UNL     1       3.755  32.469  64.421  1.00  0.00     0.279 HD
HETATM   17  C   UNL     1       3.951  34.466  64.835  1.00  0.00     0.269 C 
HETATM   18  C   UNL     1       5.666  33.011  63.762  1.00  0.00     0.262 C 
HETATM   19  C   UNL     1       5.986  31.934  62.694  1.00  0.00     0.263 C 
ENDBRANCH  10  11
ENDBRANCH   7  10
ENDBRANCH   2   6
BRANCH   1  20
HETATM   20  C   UNL     1       7.679  28.689  57.803  1.00  0.00     0.297 C 
HETATM   21  O   UNL     1       7.913  27.542  58.178  1.00  0.00    -0.259 OA
BRANCH  20  22
HETATM   22  O   UNL     1       8.524  29.741  57.931  1.00  0.00    -0.318 OA
BRANCH  22  23
HETATM   23  C   UNL     1       9.874  29.565  57.472  1.00  0.00     0.174 C 
HETATM   24  C   UNL     1       9.889  29.575  55.957  1.00  0.00     0.034 C 
ENDBRANCH  22  23
ENDBRANCH  20  22
ENDBRANCH   1  20
BRANCH   5  25
HETATM   25  C   UNL     1       6.161  27.408  55.169  1.00  0.00    -0.024 A 
HETATM   26  C   UNL     1       5.649  26.113  55.349  1.00  0.00     0.015 A 
HETATM   27  C   UNL     1       6.085  25.062  54.541  1.00  0.00     0.037 A 
HETATM   28  C   UNL     1       7.035  25.308  53.542  1.00  0.00     0.102 A 
HETATM   29  C   UNL     1       7.550  26.598  53.352  1.00  0.00     0.037 A 
HETATM   30  C   UNL     1       7.114  27.645  54.170  1.00  0.00     0.015 A 
BRANCH  28  31
HETATM   31  N   UNL     1       7.501  24.204  52.694  1.00  0.00    -0.116 N 
HETATM   32  O   UNL     1       7.333  23.051  53.113  1.00  0.00    -0.532 OA
HETATM   33  O   UNL     1       8.030  24.497  51.613  1.00  0.00    -0.532 OA
ENDBRANCH  28  31
ENDBRANCH   5  25
TORSDOF 8
ENDMDL
MODEL 5
REMARK VINA RESULT:      -8.1      1.424      2.064
REMARK  8 active torsions:
REMARK  status: ('A' for Active; 'I' for Inactive)
REMARK    1  A    between atoms: C_2  and  O_3 
REMARK    2  A    between atoms: O_3  and  C_4 
REMARK    3  A    between atoms: C_4  and  C_5 
REMARK    4  A    between atoms: C_6  and  N_7 
REMARK       I    between atoms: N_7  and  C_8 
REMARK    5  A    between atoms: C_8  and  C_9 
REMARK    6  A    between atoms: C_9  and  N_10 
REMARK    7  A    between atoms: C_22  and  C_23 
REMARK    8  A    between atoms: C_26  and  N_27 
ROOT
HETATM    1  C   UNL     1       6.938  28.080  55.969  1.00  0.00     0.085 A 
HETATM    2  C   UNL     1       6.194  29.246  55.853  1.00  0.00     0.093 A 
HETATM    3  S   UNL     1       4.940  29.134  54.711  1.00  0.00    -0.082 SA
HETATM    4  C   UNL     1       5.381  27.546  54.296  1.00  0.00     0.065 A 
HETATM    5  C   UNL     1       6.467  27.090  55.022  1.00  0.00    -0.000 A 
ENDROOT
BRANCH   2   6
HETATM    6  N   UNL     1       6.318  30.405  56.614  1.00  0.00    -0.319 N 
HETATM    7  C   UNL     1       5.504  30.676  57.691  1.00  0.00     0.248 C 
HETATM    8  O   UNL     1       4.477  30.070  57.989  1.00  0.00    -0.271 OA
HETATM    9  H   UNL     1       6.774  31.180  56.123  1.00  0.00     0.169 HD
BRANCH   7  10
HETATM   10  C   UNL     1       5.964  31.834  58.570  1.00  0.00     0.337 C 
BRANCH  10  11
HETATM   11  N   UNL     1       5.595  31.703  60.080  1.00  0.00    -0.060 N 
HETATM   12  H   UNL     1       5.385  30.694  60.149  1.00  0.00     0.280 HD
HETATM   13  C   UNL     1       4.302  32.392  60.497  1.00  0.00     0.263 C 
HETATM   14  C   UNL     1       4.465  33.844  61.012  1.00  0.00     0.262 C 
HETATM   15  N   UNL     1       5.590  33.989  62.029  1.00  0.00    -0.072 N 
HETATM   16  H   UNL     1       5.289  33.554  62.913  1.00  0.00     0.279 HD
HETATM   17  C   UNL     1       5.806  35.457  62.360  1.00  0.00     0.269 C 
HETATM   18  C   UNL     1       6.908  33.354  61.603  1.00  0.00     0.262 C 
HETATM   19  C   UNL     1       6.743  31.912  61.060  1.00  0.00     0.263 C 
ENDBRANCH  10  11
ENDBRANCH   7  10
ENDBRANCH   2   6
BRANCH   1  20
HETATM   20  C   UNL     1       8.061  28.000  56.907  1.00  0.00     0.297 C 
HETATM   21  O   UNL     1       7.976  27.343  57.943  1.00  0.00    -0.259 OA
BRANCH  20  22
HETATM   22  O   UNL     1       9.131  28.749  56.543  1.00  0.00    -0.318 OA
BRANCH  22  23
HETATM   23  C   UNL     1       9.680  29.640  57.526  1.00  0.00     0.174 C 
HETATM   24  C   UNL     1      11.146  29.873  57.223  1.00  0.00     0.034 C 
ENDBRANCH  22  23
ENDBRANCH  20  22
ENDBRANCH   1  20
BRANCH   5  25
HETATM   25  C   UNL     1       6.960  25.742  54.769  1.00  0.00    -0.024 A 
HETATM   26  C   UNL     1       7.540  25.434  53.529  1.00  0.00     0.015 A 
HETATM   27  C   UNL     1       7.979  24.137  53.256  1.00  0.00     0.037 A 
HETATM   28  C   UNL     1       7.842  23.143  54.233  1.00  0.00     0.102 A 
HETATM   29  C   UNL     1       7.267  23.441  55.477  1.00  0.00     0.037 A 
HETATM   30  C   UNL     1       6.823  24.741  55.740  1.00  0.00     0.015 A 
BRANCH  28  31
HETATM   31  N   UNL     1       8.297  21.777  53.948  1.00  0.00    -0.116 N 
HETATM   32  O   UNL     1       9.043  21.238  54.776  1.00  0.00    -0.532 OA
HETATM   33  O   UNL     1       7.903  21.250  52.899  1.00  0.00    -0.532 OA
ENDBRANCH  28  31
ENDBRANCH   5  25
TORSDOF 8
ENDMDL
MODEL 6
REMARK VINA RESULT:      -8.0      3.249      4.529
REMARK  8 active torsions:
REMARK  status: ('A' for Active; 'I' for Inactive)
REMARK    1  A    between atoms: C_2  and  O_3 
REMARK    2  A    between atoms: O_3  and  C_4 
REMARK    3  A    between atoms: C_4  and  C_5 
REMARK    4  A    between atoms: C_6  and  N_7 
REMARK       I    between atoms: N_7  and  C_8 
REMARK    5  A    between atoms: C_8  and  C_9 
REMARK    6  A    between atoms: C_9  and  N_10 
REMARK    7  A    between atoms: C_22  and  C_23 
REMARK    8  A    between atoms: C_26  and  N_27 
ROOT
HETATM    1  C   UNL     1       6.376  26.754  54.321  1.00  0.00     0.085 A 
HETATM    2  C   UNL     1       6.389  27.973  54.984  1.00  0.00     0.093 A 
HETATM    3  S   UNL     1       7.438  28.002  56.320  1.00  0.00    -0.082 SA
HETATM    4  C   UNL     1       7.868  26.374  56.091  1.00  0.00     0.065 A 
HETATM    5  C   UNL     1       7.233  25.805  55.001  1.00  0.00    -0.000 A 
ENDROOT
BRANCH   2   6
HETATM    6  N   UNL     1       5.725  29.140  54.615  1.00  0.00    -0.319 N 
HETATM    7  C   UNL     1       4.505  29.498  55.142  1.00  0.00     0.248 C 
HETATM    8  O   UNL     1       3.773  28.778  55.819  1.00  0.00    -0.271 OA
HETATM    9  H   UNL     1       6.001  29.505  53.698  1.00  0.00     0.169 HD
BRANCH   7  10
HETATM   10  C   UNL     1       4.068  30.928  54.844  1.00  0.00     0.337 C 
BRANCH  10  11
HETATM   11  N   UNL     1       5.015  32.037  55.398  1.00  0.00    -0.060 N 
HETATM   12  H   UNL     1       5.896  31.812  54.908  1.00  0.00     0.280 HD
HETATM   13  C   UNL     1       5.360  31.919  56.878  1.00  0.00     0.263 C 
HETATM   14  C   UNL     1       4.433  32.710  57.835  1.00  0.00     0.262 C 
HETATM   15  N   UNL     1       4.188  34.142  57.376  1.00  0.00    -0.072 N 
HETATM   16  H   UNL     1       5.051  34.684  57.527  1.00  0.00     0.279 HD
HETATM   17  C   UNL     1       3.141  34.799  58.261  1.00  0.00     0.269 C 
HETATM   18  C   UNL     1       3.787  34.272  55.912  1.00  0.00     0.262 C 
HETATM   19  C   UNL     1       4.695  33.459  54.955  1.00  0.00     0.263 C 
ENDBRANCH  10  11
ENDBRANCH   7  10
ENDBRANCH   2   6
BRANCH   1  20
HETATM   20  C   UNL     1       5.525  26.551  53.145  1.00  0.00     0.297 C 
HETATM   21  O   UNL     1       4.659  25.678  53.132  1.00  0.00    -0.259 OA
BRANCH  20  22
HETATM   22  O   UNL     1       5.831  27.363  52.103  1.00  0.00    -0.318 OA
BRANCH  22  23
HETATM   23  C   UNL     1       5.423  26.939  50.792  1.00  0.00     0.174 C 
HETATM   24  C   UNL     1       5.347  28.147  49.881  1.00  0.00     0.034 C 
ENDBRANCH  22  23
ENDBRANCH  20  22
ENDBRANCH   1  20
BRANCH   5  25
HETATM   25  C   UNL     1       7.505  24.409  54.685  1.00  0.00    -0.024 A 
HETATM   26  C   UNL     1       7.409  23.436  55.692  1.00  0.00     0.015 A 
HETATM   27  C   UNL     1       7.707  22.100  55.414  1.00  0.00     0.037 A 
HETATM   28  C   UNL     1       8.097  21.735  54.120  1.00  0.00     0.102 A 
HETATM   29  C   UNL     1       8.192  22.699  53.106  1.00  0.00     0.037 A 
HETATM   30  C   UNL     1       7.899  24.036  53.393  1.00  0.00     0.015 A 
BRANCH  28  31
HETATM   31  N   UNL     1       8.417  20.333  53.825  1.00  0.00    -0.116 N 
HETATM   32  O   UNL     1       8.402  19.980  52.638  1.00  0.00    -0.532 OA
HETATM   33  O   UNL     1       8.683  19.594  54.783  1.00  0.00    -0.532 OA
ENDBRANCH  28  31
ENDBRANCH   5  25
TORSDOF 8
ENDMDL
MODEL 7
REMARK VINA RESULT:      -7.9      2.879      3.705
REMARK  8 active torsions:
REMARK  status: ('A' for Active; 'I' for Inactive)
REMARK    1  A    between atoms: C_2  and  O_3 
REMARK    2  A    between atoms: O_3  and  C_4 
REMARK    3  A    between atoms: C_4  and  C_5 
REMARK    4  A    between atoms: C_6  and  N_7 
REMARK       I    between atoms: N_7  and  C_8 
REMARK    5  A    between atoms: C_8  and  C_9 
REMARK    6  A    between atoms: C_9  and  N_10 
REMARK    7  A    between atoms: C_22  and  C_23 
REMARK    8  A    between atoms: C_26  and  N_27 
ROOT
HETATM    1  C   UNL     1       6.543  27.058  54.669  1.00  0.00     0.085 A 
HETATM    2  C   UNL     1       5.678  28.056  54.242  1.00  0.00     0.093 A 
HETATM    3  S   UNL     1       4.479  27.498  53.175  1.00  0.00    -0.082 SA
HETATM    4  C   UNL     1       5.106  25.918  53.205  1.00  0.00     0.065 A 
HETATM    5  C   UNL     1       6.214  25.802  54.026  1.00  0.00    -0.000 A 
ENDROOT
BRANCH   2   6
HETATM    6  N   UNL     1       5.650  29.384  54.661  1.00  0.00    -0.319 N 
HETATM    7  C   UNL     1       4.953  29.796  55.773  1.00  0.00     0.248 C 
HETATM    8  O   UNL     1       4.134  29.127  56.400  1.00  0.00    -0.271 OA
HETATM    9  H   UNL     1       5.855  30.060  53.918  1.00  0.00     0.169 HD
BRANCH   7  10
HETATM   10  C   UNL     1       5.265  31.213  56.241  1.00  0.00     0.337 C 
BRANCH  10  11
HETATM   11  N   UNL     1       4.034  32.168  56.324  1.00  0.00    -0.060 N 
HETATM   12  H   UNL     1       3.254  31.490  56.323  1.00  0.00     0.280 HD
HETATM   13  C   UNL     1       3.795  33.030  55.091  1.00  0.00     0.263 C 
HETATM   14  C   UNL     1       4.455  34.431  55.128  1.00  0.00     0.262 C 
HETATM   15  N   UNL     1       4.217  35.164  56.442  1.00  0.00    -0.072 N 
HETATM   16  H   UNL     1       3.232  35.466  56.473  1.00  0.00     0.279 HD
HETATM   17  C   UNL     1       5.030  36.448  56.475  1.00  0.00     0.269 C 
HETATM   18  C   UNL     1       4.507  34.333  57.686  1.00  0.00     0.262 C 
HETATM   19  C   UNL     1       3.871  32.921  57.638  1.00  0.00     0.263 C 
ENDBRANCH  10  11
ENDBRANCH   7  10
ENDBRANCH   2   6
BRANCH   1  20
HETATM   20  C   UNL     1       7.640  27.363  55.592  1.00  0.00     0.297 C 
HETATM   21  O   UNL     1       7.806  26.707  56.618  1.00  0.00    -0.259 OA
BRANCH  20  22
HETATM   22  O   UNL     1       8.377  28.441  55.226  1.00  0.00    -0.318 OA
BRANCH  22  23
HETATM   23  C   UNL     1       8.810  29.330  56.268  1.00  0.00     0.174 C 
HETATM   24  C   UNL     1      10.281  29.640  56.077  1.00  0.00     0.034 C 
ENDBRANCH  22  23
ENDBRANCH  20  22
ENDBRANCH   1  20
BRANCH   5  25
HETATM   25  C   UNL     1       6.860  24.502  54.147  1.00  0.00    -0.024 A 
HETATM   26  C   UNL     1       6.826  23.819  55.373  1.00  0.00     0.015 A 
HETATM   27  C   UNL     1       7.476  22.592  55.517  1.00  0.00     0.037 A 
HETATM   28  C   UNL     1       8.160  22.041  54.426  1.00  0.00     0.102 A 
HETATM   29  C   UNL     1       8.197  22.713  53.196  1.00  0.00     0.037 A 
HETATM   30  C   UNL     1       7.550  23.946  53.061  1.00  0.00     0.015 A 
BRANCH  28  31
HETATM   31  N   UNL     1       8.849  20.754  54.575  1.00  0.00    -0.116 N 
HETATM   32  O   UNL     1       9.492  20.567  55.617  1.00  0.00    -0.532 OA
HETATM   33  O   UNL     1       8.741  19.937  53.651  1.00  0.00    -0.532 OA
ENDBRANCH  28  31
ENDBRANCH   5  25
TORSDOF 8
ENDMDL
MODEL 8
REMARK VINA RESULT:      -7.8      3.151      4.626
REMARK  8 active torsions:
REMARK  status: ('A' for Active; 'I' for Inactive)
REMARK    1  A    between atoms: C_2  and  O_3 
REMARK    2  A    between atoms: O_3  and  C_4 
REMARK    3  A    between atoms: C_4  and  C_5 
REMARK    4  A    between atoms: C_6  and  N_7 
REMARK       I    between atoms: N_7  and  C_8 
REMARK    5  A    between atoms: C_8  and  C_9 
REMARK    6  A    between atoms: C_9  and  N_10 
REMARK    7  A    between atoms: C_22  and  C_23 
REMARK    8  A    between atoms: C_26  and  N_27 
ROOT
HETATM    1  C   UNL     1       6.467  27.148  54.352  1.00  0.00     0.085 A 
HETATM    2  C   UNL     1       5.523  28.097  53.982  1.00  0.00     0.093 A 
HETATM    3  S   UNL     1       4.207  27.442  53.129  1.00  0.00    -0.082 SA
HETATM    4  C   UNL     1       4.879  25.881  53.177  1.00  0.00     0.065 A 
HETATM    5  C   UNL     1       6.090  25.844  53.844  1.00  0.00    -0.000 A 
ENDROOT
BRANCH   2   6
HETATM    6  N   UNL     1       5.514  29.449  54.312  1.00  0.00    -0.319 N 
HETATM    7  C   UNL     1       4.832  29.943  55.401  1.00  0.00     0.248 C 
HETATM    8  O   UNL     1       4.011  29.327  56.077  1.00  0.00    -0.271 OA
HETATM    9  H   UNL     1       5.720  30.072  53.525  1.00  0.00     0.169 HD
BRANCH   7  10
HETATM   10  C   UNL     1       5.164  31.384  55.771  1.00  0.00     0.337 C 
BRANCH  10  11
HETATM   11  N   UNL     1       4.205  32.458  55.171  1.00  0.00    -0.060 N 
HETATM   12  H   UNL     1       3.467  32.494  55.892  1.00  0.00     0.280 HD
HETATM   13  C   UNL     1       3.476  32.042  53.899  1.00  0.00     0.263 C 
HETATM   14  C   UNL     1       4.185  32.428  52.576  1.00  0.00     0.262 C 
HETATM   15  N   UNL     1       4.665  33.874  52.561  1.00  0.00    -0.072 N 
HETATM   16  H   UNL     1       3.843  34.490  52.471  1.00  0.00     0.279 HD
HETATM   17  C   UNL     1       5.497  34.133  51.315  1.00  0.00     0.269 C 
HETATM   18  C   UNL     1       5.445  34.290  53.802  1.00  0.00     0.262 C 
HETATM   19  C   UNL     1       4.752  33.879  55.125  1.00  0.00     0.263 C 
ENDBRANCH  10  11
ENDBRANCH   7  10
ENDBRANCH   2   6
BRANCH   1  20
HETATM   20  C   UNL     1       7.669  27.538  55.094  1.00  0.00     0.297 C 
HETATM   21  O   UNL     1       8.471  28.342  54.622  1.00  0.00    -0.259 OA
BRANCH  20  22
HETATM   22  O   UNL     1       7.813  26.893  56.277  1.00  0.00    -0.318 OA
BRANCH  22  23
HETATM   23  C   UNL     1       6.969  27.306  57.363  1.00  0.00     0.174 C 
HETATM   24  C   UNL     1       7.434  28.658  57.867  1.00  0.00     0.034 C 
ENDBRANCH  22  23
ENDBRANCH  20  22
ENDBRANCH   1  20
BRANCH   5  25
HETATM   25  C   UNL     1       6.784  24.569  53.962  1.00  0.00    -0.024 A 
HETATM   26  C   UNL     1       7.350  23.977  52.822  1.00  0.00     0.015 A 
HETATM   27  C   UNL     1       7.982  22.735  52.910  1.00  0.00     0.037 A 
HETATM   28  C   UNL     1       8.053  22.083  54.148  1.00  0.00     0.102 A 
HETATM   29  C   UNL     1       7.495  22.668  55.293  1.00  0.00     0.037 A 
HETATM   30  C   UNL     1       6.857  23.909  55.196  1.00  0.00     0.015 A 
BRANCH  28  31
HETATM   31  N   UNL     1       8.712  20.775  54.243  1.00  0.00    -0.116 N 
HETATM   32  O   UNL     1       9.255  20.486  55.318  1.00  0.00    -0.532 OA
HETATM   33  O   UNL     1       8.680  20.045  53.244  1.00  0.00    -0.532 OA
ENDBRANCH  28  31
ENDBRANCH   5  25
TORSDOF 8
ENDMDL
MODEL 9
REMARK VINA RESULT:      -7.7      5.104      7.497
REMARK  8 active torsions:
REMARK  status: ('A' for Active; 'I' for Inactive)
REMARK    1  A    between atoms: C_2  and  O_3 
REMARK    2  A    between atoms: O_3  and  C_4 
REMARK    3  A    between atoms: C_4  and  C_5 
REMARK    4  A    between atoms: C_6  and  N_7 
REMARK       I    between atoms: N_7  and  C_8 
REMARK    5  A    between atoms: C_8  and  C_9 
REMARK    6  A    between atoms: C_9  and  N_10 
REMARK    7  A    between atoms: C_22  and  C_23 
REMARK    8  A    between atoms: C_26  and  N_27 
ROOT
HETATM    1  C   UNL     1       6.257  26.494  52.900  1.00  0.00     0.085 A 
HETATM    2  C   UNL     1       6.212  27.857  53.158  1.00  0.00     0.093 A 
HETATM    3  S   UNL     1       7.181  28.326  54.473  1.00  0.00    -0.082 SA
HETATM    4  C   UNL     1       7.650  26.720  54.775  1.00  0.00     0.065 A 
HETATM    5  C   UNL     1       7.088  25.826  53.881  1.00  0.00    -0.000 A 
ENDROOT
BRANCH   2   6
HETATM    6  N   UNL     1       5.553  28.833  52.417  1.00  0.00    -0.319 N 
HETATM    7  C   UNL     1       4.243  29.184  52.652  1.00  0.00     0.248 C 
HETATM    8  O   UNL     1       3.451  28.576  53.369  1.00  0.00    -0.271 OA
HETATM    9  H   UNL     1       5.957  28.997  51.490  1.00  0.00     0.169 HD
BRANCH   7  10
HETATM   10  C   UNL     1       3.779  30.454  51.947  1.00  0.00     0.337 C 
BRANCH  10  11
HETATM   11  N   UNL     1       3.355  30.266  50.458  1.00  0.00    -0.060 N 
HETATM   12  H   UNL     1       3.169  29.251  50.429  1.00  0.00     0.280 HD
HETATM   13  C   UNL     1       4.463  30.481  49.434  1.00  0.00     0.263 C 
HETATM   14  C   UNL     1       4.568  31.920  48.868  1.00  0.00     0.262 C 
HETATM   15  N   UNL     1       3.220  32.488  48.440  1.00  0.00    -0.072 N 
HETATM   16  H   UNL     1       2.926  32.012  47.574  1.00  0.00     0.279 HD
HETATM   17  C   UNL     1       3.371  33.952  48.060  1.00  0.00     0.269 C 
HETATM   18  C   UNL     1       2.115  32.331  49.477  1.00  0.00     0.262 C 
HETATM   19  C   UNL     1       2.027  30.901  50.065  1.00  0.00     0.263 C 
ENDBRANCH  10  11
ENDBRANCH   7  10
ENDBRANCH   2   6
BRANCH   1  20
HETATM   20  C   UNL     1       5.479  25.914  51.801  1.00  0.00     0.297 C 
HETATM   21  O   UNL     1       4.804  24.901  51.968  1.00  0.00    -0.259 OA
BRANCH  20  22
HETATM   22  O   UNL     1       5.634  26.564  50.621  1.00  0.00    -0.318 OA
BRANCH  22  23
HETATM   23  C   UNL     1       4.470  26.720  49.794  1.00  0.00     0.174 C 
HETATM   24  C   UNL     1       4.900  26.822  48.345  1.00  0.00     0.034 C 
ENDBRANCH  22  23
ENDBRANCH  20  22
ENDBRANCH   1  20
BRANCH   5  25
HETATM   25  C   UNL     1       7.400  24.409  54.021  1.00  0.00    -0.024 A 
HETATM   26  C   UNL     1       7.155  23.760  55.241  1.00  0.00     0.015 A 
HETATM   27  C   UNL     1       7.487  22.413  55.403  1.00  0.00     0.037 A 
HETATM   28  C   UNL     1       8.063  21.711  54.338  1.00  0.00     0.102 A 
HETATM   29  C   UNL     1       8.308  22.349  53.113  1.00  0.00     0.037 A 
HETATM   30  C   UNL     1       7.980  23.700  52.960  1.00  0.00     0.015 A 
BRANCH  28  31
HETATM   31  N   UNL     1       8.419  20.297  54.507  1.00  0.00    -0.116 N 
HETATM   32  O   UNL     1       8.739  19.662  53.492  1.00  0.00    -0.532 OA
HETATM   33  O   UNL     1       8.378  19.830  55.653  1.00  0.00    -0.532 OA
ENDBRANCH  28  31
ENDBRANCH   5  25
TORSDOF 8
ENDMDL
MODEL 10
REMARK VINA RESULT:      -7.7      4.458     10.736
REMARK  8 active torsions:
REMARK  status: ('A' for Active; 'I' for Inactive)
REMARK    1  A    between atoms: C_2  and  O_3 
REMARK    2  A    between atoms: O_3  and  C_4 
REMARK    3  A    between atoms: C_4  and  C_5 
REMARK    4  A    between atoms: C_6  and  N_7 
REMARK       I    between atoms: N_7  and  C_8 
REMARK    5  A    between atoms: C_8  and  C_9 
REMARK    6  A    between atoms: C_9  and  N_10 
REMARK    7  A    between atoms: C_22  and  C_23 
REMARK    8  A    between atoms: C_26  and  N_27 
ROOT
HETATM    1  C   UNL     1       6.479  32.278  61.186  1.00  0.00     0.085 A 
HETATM    2  C   UNL     1       7.328  31.656  60.281  1.00  0.00     0.093 A 
HETATM    3  S   UNL     1       8.793  31.144  60.973  1.00  0.00    -0.082 SA
HETATM    4  C   UNL     1       8.367  31.783  62.490  1.00  0.00     0.065 A 
HETATM    5  C   UNL     1       7.115  32.374  62.484  1.00  0.00    -0.000 A 
ENDROOT
BRANCH   2   6
HETATM    6  N   UNL     1       7.061  31.348  58.949  1.00  0.00    -0.319 N 
HETATM    7  C   UNL     1       7.348  30.120  58.400  1.00  0.00     0.248 C 
HETATM    8  O   UNL     1       8.031  29.239  58.920  1.00  0.00    -0.271 OA
HETATM    9  H   UNL     1       6.993  32.167  58.337  1.00  0.00     0.169 HD
BRANCH   7  10
HETATM   10  C   UNL     1       6.733  29.867  57.028  1.00  0.00     0.337 C 
BRANCH  10  11
HETATM   11  N   UNL     1       5.459  28.966  57.031  1.00  0.00    -0.060 N 
HETATM   12  H   UNL     1       5.139  29.074  58.007  1.00  0.00     0.280 HD
HETATM   13  C   UNL     1       5.719  27.473  56.876  1.00  0.00     0.263 C 
HETATM   14  C   UNL     1       5.675  26.943  55.421  1.00  0.00     0.262 C 
HETATM   15  N   UNL     1       4.460  27.436  54.646  1.00  0.00    -0.072 N 
HETATM   16  H   UNL     1       3.625  26.948  55.004  1.00  0.00     0.279 HD
HETATM   17  C   UNL     1       4.570  27.023  53.187  1.00  0.00     0.269 C 
HETATM   18  C   UNL     1       4.219  28.938  54.744  1.00  0.00     0.262 C 
HETATM   19  C   UNL     1       4.290  29.474  56.196  1.00  0.00     0.263 C 
ENDBRANCH  10  11
ENDBRANCH   7  10
ENDBRANCH   2   6
BRANCH   1  20
HETATM   20  C   UNL     1       5.172  32.785  60.759  1.00  0.00     0.297 C 
HETATM   21  O   UNL     1       4.198  32.038  60.680  1.00  0.00    -0.259 OA
BRANCH  20  22
HETATM   22  O   UNL     1       5.179  34.098  60.421  1.00  0.00    -0.318 OA
BRANCH  22  23
HETATM   23  C   UNL     1       4.323  34.977  61.167  1.00  0.00     0.174 C 
HETATM   24  C   UNL     1       5.175  35.942  61.966  1.00  0.00     0.034 C 
ENDBRANCH  22  23
ENDBRANCH  20  22
ENDBRANCH   1  20
BRANCH   5  25
HETATM   25  C   UNL     1       6.618  32.968  63.718  1.00  0.00    -0.024 A 
HETATM   26  C   UNL     1       7.525  33.489  64.654  1.00  0.00     0.015 A 
HETATM   27  C   UNL     1       7.067  34.024  65.860  1.00  0.00     0.037 A 
HETATM   28  C   UNL     1       5.693  34.043  66.128  1.00  0.00     0.102 A 
HETATM   29  C   UNL     1       4.778  33.528  65.198  1.00  0.00     0.037 A 
HETATM   30  C   UNL     1       5.245  32.987  63.995  1.00  0.00     0.015 A 
BRANCH  28  31
HETATM   31  N   UNL     1       5.208  34.599  67.397  1.00  0.00    -0.116 N 
HETATM   32  O   UNL     1       4.724  35.739  67.374  1.00  0.00    -0.532 OA
HETATM   33  O   UNL     1       5.311  33.891  68.408  1.00  0.00    -0.532 OA
ENDBRANCH  28  31
ENDBRANCH   5  25
TORSDOF 8
ENDMDL
