MODEL 1
REMARK VINA RESULT:      -8.3      0.000      0.000
REMARK  7 active torsions:
REMARK  status: ('A' for Active; 'I' for Inactive)
REMARK    1  A    between atoms: O_2  and  C_3 
REMARK    2  A    between atoms: C_6  and  C_7 
REMARK    3  A    between atoms: C_7  and  N_8 
REMARK    4  A    between atoms: N_8  and  C_11 
REMARK    5  A    between atoms: C_11  and  C_12 
REMARK    6  A    between atoms: C_11  and  C_20 
REMARK       I    between atoms: C_12  and  N_13 
REMARK    7  A    between atoms: N_13  and  C_14 
ROOT
HETATM    1  C   UNL     1       6.759  24.976  54.241  1.00  0.00     0.310 C 
ENDROOT
BRANCH   1   2
HETATM    2  N   UNL     1       6.264  25.393  55.612  1.00  0.00    -0.054 N 
HETATM    3  H   UNL     1       7.059  25.236  56.251  1.00  0.00     0.278 HD
HETATM    4  H   UNL     1       5.497  24.795  55.932  1.00  0.00     0.278 HD
BRANCH   2   5
HETATM    5  C   UNL     1       5.887  26.825  55.786  1.00  0.00     0.272 C 
BRANCH   5   6
HETATM    6  C   UNL     1       7.112  27.681  55.925  1.00  0.00    -0.033 A 
HETATM    7  C   UNL     1       7.629  27.978  57.196  1.00  0.00     0.011 A 
HETATM    8  C   UNL     1       8.755  28.797  57.334  1.00  0.00     0.037 A 
HETATM    9  C   UNL     1       9.376  29.330  56.207  1.00  0.00     0.068 A 
HETATM   10  C   UNL     1       8.856  29.046  54.943  1.00  0.00     0.037 A 
HETATM   11  C   UNL     1       7.733  28.230  54.797  1.00  0.00     0.011 A 
BRANCH   9  12
HETATM   12  O   UNL     1      10.478  30.138  56.200  1.00  0.00    -0.356 OA
HETATM   13  C   UNL     1      11.406  29.977  57.266  1.00  0.00     0.210 C 
ENDBRANCH   9  12
ENDBRANCH   5   6
ENDBRANCH   2   5
ENDBRANCH   1   2
BRANCH   1  14
HETATM   14  C   UNL     1       5.714  25.356  53.165  1.00  0.00     0.259 C 
HETATM   15  N   UNL     1       6.100  26.325  52.270  1.00  0.00    -0.304 N 
HETATM   16  H   UNL     1       7.005  26.778  52.300  1.00  0.00     0.171 HD
HETATM   17  O   UNL     1       4.616  24.797  53.231  1.00  0.00    -0.270 OA
BRANCH  15  18
HETATM   18  C   UNL     1       5.303  26.679  51.216  1.00  0.00     0.172 A 
HETATM   19  S   UNL     1       4.657  28.253  51.317  1.00  0.00    -0.062 SA
HETATM   20  C   UNL     1       3.887  28.009  49.803  1.00  0.00     0.072 A 
HETATM   21  C   UNL     1       4.184  26.745  49.335  1.00  0.00     0.126 A 
HETATM   22  N   UNL     1       5.003  25.986  50.150  1.00  0.00    -0.236 NA
ENDBRANCH  15  18
ENDBRANCH   1  14
BRANCH   1  23
HETATM   23  C   UNL     1       7.255  23.545  54.216  1.00  0.00    -0.019 A 
HETATM   24  C   UNL     1       7.359  22.830  55.422  1.00  0.00     0.010 A 
HETATM   25  C   UNL     1       7.780  21.500  55.426  1.00  0.00     0.001 A 
HETATM   26  C   UNL     1       8.096  20.864  54.229  1.00  0.00     0.000 A 
HETATM   27  C   UNL     1       7.991  21.554  53.025  1.00  0.00     0.001 A 
HETATM   28  C   UNL     1       7.569  22.884  53.014  1.00  0.00     0.010 A 
ENDBRANCH   1  23
TORSDOF 7
ENDMDL
MODEL 2
REMARK VINA RESULT:      -8.2      3.376      6.722
REMARK  7 active torsions:
REMARK  status: ('A' for Active; 'I' for Inactive)
REMARK    1  A    between atoms: O_2  and  C_3 
REMARK    2  A    between atoms: C_6  and  C_7 
REMARK    3  A    between atoms: C_7  and  N_8 
REMARK    4  A    between atoms: N_8  and  C_11 
REMARK    5  A    between atoms: C_11  and  C_12 
REMARK    6  A    between atoms: C_11  and  C_20 
REMARK       I    between atoms: C_12  and  N_13 
REMARK    7  A    between atoms: N_13  and  C_14 
ROOT
HETATM    1  C   UNL     1       7.662  26.434  55.684  1.00  0.00     0.310 C 
ENDROOT
BRANCH   1   2
HETATM    2  N   UNL     1       7.447  25.533  56.885  1.00  0.00    -0.054 N 
HETATM    3  H   UNL     1       6.696  24.882  56.610  1.00  0.00     0.278 HD
HETATM    4  H   UNL     1       7.109  26.062  57.694  1.00  0.00     0.278 HD
BRANCH   2   5
HETATM    5  C   UNL     1       8.593  24.673  57.296  1.00  0.00     0.272 C 
BRANCH   5   6
HETATM    6  C   UNL     1       8.592  23.387  56.521  1.00  0.00    -0.033 A 
HETATM    7  C   UNL     1       8.180  22.192  57.130  1.00  0.00     0.011 A 
HETATM    8  C   UNL     1       8.203  20.985  56.421  1.00  0.00     0.037 A 
HETATM    9  C   UNL     1       8.637  20.958  55.098  1.00  0.00     0.068 A 
HETATM   10  C   UNL     1       9.059  22.144  54.494  1.00  0.00     0.037 A 
HETATM   11  C   UNL     1       9.040  23.351  55.194  1.00  0.00     0.011 A 
BRANCH   9  12
HETATM   12  O   UNL     1       8.706  19.855  54.295  1.00  0.00    -0.356 OA
HETATM   13  C   UNL     1       8.600  20.066  52.892  1.00  0.00     0.210 C 
ENDBRANCH   9  12
ENDBRANCH   5   6
ENDBRANCH   2   5
ENDBRANCH   1   2
BRANCH   1  14
HETATM   14  C   UNL     1       7.425  27.910  56.083  1.00  0.00     0.259 C 
HETATM   15  N   UNL     1       7.105  28.130  57.401  1.00  0.00    -0.304 N 
HETATM   16  H   UNL     1       7.019  27.387  58.083  1.00  0.00     0.171 HD
HETATM   17  O   UNL     1       7.494  28.750  55.182  1.00  0.00    -0.270 OA
BRANCH  15  18
HETATM   18  C   UNL     1       6.966  29.398  57.897  1.00  0.00     0.172 A 
HETATM   19  S   UNL     1       8.308  29.958  58.787  1.00  0.00    -0.062 SA
HETATM   20  C   UNL     1       7.495  31.451  59.026  1.00  0.00     0.072 A 
HETATM   21  C   UNL     1       6.263  31.408  58.408  1.00  0.00     0.126 A 
HETATM   22  N   UNL     1       5.966  30.226  57.755  1.00  0.00    -0.236 NA
ENDBRANCH  15  18
ENDBRANCH   1  14
BRANCH   1  23
HETATM   23  C   UNL     1       6.924  25.946  54.455  1.00  0.00    -0.019 A 
HETATM   24  C   UNL     1       7.589  25.923  53.216  1.00  0.00     0.010 A 
HETATM   25  C   UNL     1       6.945  25.445  52.074  1.00  0.00     0.001 A 
HETATM   26  C   UNL     1       5.637  24.978  52.152  1.00  0.00     0.000 A 
HETATM   27  C   UNL     1       4.967  24.985  53.373  1.00  0.00     0.001 A 
HETATM   28  C   UNL     1       5.605  25.461  54.519  1.00  0.00     0.010 A 
ENDBRANCH   1  23
TORSDOF 7
ENDMDL
MODEL 3
REMARK VINA RESULT:      -8.2      1.639      2.033
REMARK  7 active torsions:
REMARK  status: ('A' for Active; 'I' for Inactive)
REMARK    1  A    between atoms: O_2  and  C_3 
REMARK    2  A    between atoms: C_6  and  C_7 
REMARK    3  A    between atoms: C_7  and  N_8 
REMARK    4  A    between atoms: N_8  and  C_11 
REMARK    5  A    between atoms: C_11  and  C_12 
REMARK    6  A    between atoms: C_11  and  C_20 
REMARK       I    between atoms: C_12  and  N_13 
REMARK    7  A    between atoms: N_13  and  C_14 
ROOT
HETATM    1  C   UNL     1       7.326  24.592  54.609  1.00  0.00     0.310 C 
ENDROOT
BRANCH   1   2
HETATM    2  N   UNL     1       6.994  24.897  56.057  1.00  0.00    -0.054 N 
HETATM    3  H   UNL     1       6.928  23.979  56.523  1.00  0.00     0.278 HD
HETATM    4  H   UNL     1       6.078  25.347  56.144  1.00  0.00     0.278 HD
BRANCH   2   5
HETATM    5  C   UNL     1       8.005  25.670  56.832  1.00  0.00     0.272 C 
BRANCH   5   6
HETATM    6  C   UNL     1       7.504  27.055  57.121  1.00  0.00    -0.033 A 
HETATM    7  C   UNL     1       6.132  27.343  57.045  1.00  0.00     0.011 A 
HETATM    8  C   UNL     1       5.661  28.639  57.287  1.00  0.00     0.037 A 
HETATM    9  C   UNL     1       6.553  29.661  57.605  1.00  0.00     0.068 A 
HETATM   10  C   UNL     1       7.919  29.378  57.669  1.00  0.00     0.037 A 
HETATM   11  C   UNL     1       8.397  28.089  57.429  1.00  0.00     0.011 A 
BRANCH   9  12
HETATM   12  O   UNL     1       6.228  30.961  57.866  1.00  0.00    -0.356 OA
HETATM   13  C   UNL     1       6.952  31.616  58.902  1.00  0.00     0.210 C 
ENDBRANCH   9  12
ENDBRANCH   5   6
ENDBRANCH   2   5
ENDBRANCH   1   2
BRANCH   1  14
HETATM   14  C   UNL     1       6.263  25.225  53.679  1.00  0.00     0.259 C 
HETATM   15  N   UNL     1       6.743  26.075  52.712  1.00  0.00    -0.304 N 
HETATM   16  H   UNL     1       7.727  26.292  52.602  1.00  0.00     0.171 HD
HETATM   17  O   UNL     1       5.083  24.952  53.913  1.00  0.00    -0.270 OA
BRANCH  15  18
HETATM   18  C   UNL     1       5.915  26.621  51.769  1.00  0.00     0.172 A 
HETATM   19  S   UNL     1       5.540  28.264  52.027  1.00  0.00    -0.062 SA
HETATM   20  C   UNL     1       4.599  28.250  50.591  1.00  0.00     0.072 A 
HETATM   21  C   UNL     1       4.645  26.993  50.025  1.00  0.00     0.126 A 
HETATM   22  N   UNL     1       5.408  26.061  50.704  1.00  0.00    -0.236 NA
ENDBRANCH  15  18
ENDBRANCH   1  14
BRANCH   1  23
HETATM   23  C   UNL     1       7.627  23.125  54.381  1.00  0.00    -0.019 A 
HETATM   24  C   UNL     1       7.625  22.243  55.476  1.00  0.00     0.010 A 
HETATM   25  C   UNL     1       7.865  20.881  55.292  1.00  0.00     0.001 A 
HETATM   26  C   UNL     1       8.101  20.380  54.015  1.00  0.00     0.000 A 
HETATM   27  C   UNL     1       8.097  21.238  52.918  1.00  0.00     0.001 A 
HETATM   28  C   UNL     1       7.857  22.601  53.096  1.00  0.00     0.010 A 
ENDBRANCH   1  23
TORSDOF 7
ENDMDL
MODEL 4
REMARK VINA RESULT:      -8.1      2.720      6.607
REMARK  7 active torsions:
REMARK  status: ('A' for Active; 'I' for Inactive)
REMARK    1  A    between atoms: O_2  and  C_3 
REMARK    2  A    between atoms: C_6  and  C_7 
REMARK    3  A    between atoms: C_7  and  N_8 
REMARK    4  A    between atoms: N_8  and  C_11 
REMARK    5  A    between atoms: C_11  and  C_12 
REMARK    6  A    between atoms: C_11  and  C_20 
REMARK       I    between atoms: C_12  and  N_13 
REMARK    7  A    between atoms: N_13  and  C_14 
ROOT
HETATM    1  C   UNL     1       7.651  27.888  57.541  1.00  0.00     0.310 C 
ENDROOT
BRANCH   1   2
HETATM    2  N   UNL     1       8.337  26.670  56.952  1.00  0.00    -0.054 N 
HETATM    3  H   UNL     1       9.284  26.663  57.360  1.00  0.00     0.278 HD
HETATM    4  H   UNL     1       8.445  26.756  55.937  1.00  0.00     0.278 HD
BRANCH   2   5
HETATM    5  C   UNL     1       7.749  25.340  57.280  1.00  0.00     0.272 C 
BRANCH   5   6
HETATM    6  C   UNL     1       7.780  24.438  56.081  1.00  0.00    -0.033 A 
HETATM    7  C   UNL     1       6.854  24.611  55.040  1.00  0.00     0.011 A 
HETATM    8  C   UNL     1       6.860  23.756  53.931  1.00  0.00     0.037 A 
HETATM    9  C   UNL     1       7.789  22.720  53.850  1.00  0.00     0.068 A 
HETATM   10  C   UNL     1       8.702  22.540  54.890  1.00  0.00     0.037 A 
HETATM   11  C   UNL     1       8.702  23.388  55.999  1.00  0.00     0.011 A 
BRANCH   9  12
HETATM   12  O   UNL     1       7.906  21.822  52.828  1.00  0.00    -0.356 OA
HETATM   13  C   UNL     1       8.181  20.471  53.180  1.00  0.00     0.210 C 
ENDBRANCH   9  12
ENDBRANCH   5   6
ENDBRANCH   2   5
ENDBRANCH   1   2
BRANCH   1  14
HETATM   14  C   UNL     1       6.337  28.175  56.777  1.00  0.00     0.259 C 
HETATM   15  N   UNL     1       6.481  28.621  55.485  1.00  0.00    -0.304 N 
HETATM   16  H   UNL     1       7.381  28.765  55.045  1.00  0.00     0.171 HD
HETATM   17  O   UNL     1       5.284  28.027  57.403  1.00  0.00    -0.270 OA
BRANCH  15  18
HETATM   18  C   UNL     1       5.395  28.818  54.675  1.00  0.00     0.172 A 
HETATM   19  S   UNL     1       4.952  27.458  53.747  1.00  0.00    -0.062 SA
HETATM   20  C   UNL     1       3.648  28.362  53.091  1.00  0.00     0.072 A 
HETATM   21  C   UNL     1       3.650  29.631  53.632  1.00  0.00     0.126 A 
HETATM   22  N   UNL     1       4.654  29.886  54.548  1.00  0.00    -0.236 NA
ENDBRANCH  15  18
ENDBRANCH   1  14
BRANCH   1  23
HETATM   23  C   UNL     1       8.597  29.058  57.710  1.00  0.00    -0.019 A 
HETATM   24  C   UNL     1       8.301  30.052  58.661  1.00  0.00     0.010 A 
HETATM   25  C   UNL     1       9.171  31.124  58.862  1.00  0.00     0.001 A 
HETATM   26  C   UNL     1      10.349  31.215  58.127  1.00  0.00     0.000 A 
HETATM   27  C   UNL     1      10.663  30.235  57.189  1.00  0.00     0.001 A 
HETATM   28  C   UNL     1       9.797  29.161  56.983  1.00  0.00     0.010 A 
ENDBRANCH   1  23
TORSDOF 7
ENDMDL
MODEL 5
REMARK VINA RESULT:      -8.0      1.413      1.822
REMARK  7 active torsions:
REMARK  status: ('A' for Active; 'I' for Inactive)
REMARK    1  A    between atoms: O_2  and  C_3 
REMARK    2  A    between atoms: C_6  and  C_7 
REMARK    3  A    between atoms: C_7  and  N_8 
REMARK    4  A    between atoms: N_8  and  C_11 
REMARK    5  A    between atoms: C_11  and  C_12 
REMARK    6  A    between atoms: C_11  and  C_20 
REMARK       I    between atoms: C_12  and  N_13 
REMARK    7  A    between atoms: N_13  and  C_14 
ROOT
HETATM    1  C   UNL     1       6.977  25.969  53.064  1.00  0.00     0.310 C 
ENDROOT
BRANCH   1   2
HETATM    2  N   UNL     1       6.916  26.969  54.202  1.00  0.00    -0.054 N 
HETATM    3  H   UNL     1       7.211  26.448  55.042  1.00  0.00     0.278 HD
HETATM    4  H   UNL     1       5.958  27.290  54.367  1.00  0.00     0.278 HD
BRANCH   2   5
HETATM    5  C   UNL     1       7.829  28.144  54.117  1.00  0.00     0.272 C 
BRANCH   5   6
HETATM    6  C   UNL     1       8.199  28.625  55.490  1.00  0.00    -0.033 A 
HETATM    7  C   UNL     1       7.343  28.394  56.578  1.00  0.00     0.011 A 
HETATM    8  C   UNL     1       7.669  28.863  57.855  1.00  0.00     0.037 A 
HETATM    9  C   UNL     1       8.853  29.570  58.061  1.00  0.00     0.068 A 
HETATM   10  C   UNL     1       9.699  29.812  56.977  1.00  0.00     0.037 A 
HETATM   11  C   UNL     1       9.380  29.347  55.700  1.00  0.00     0.011 A 
BRANCH   9  12
HETATM   12  O   UNL     1       9.291  30.078  59.250  1.00  0.00    -0.356 OA
HETATM   13  C   UNL     1       8.310  30.628  60.122  1.00  0.00     0.210 C 
ENDBRANCH   9  12
ENDBRANCH   5   6
ENDBRANCH   2   5
ENDBRANCH   1   2
BRANCH   1  14
HETATM   14  C   UNL     1       5.723  26.110  52.169  1.00  0.00     0.259 C 
HETATM   15  N   UNL     1       5.757  27.129  51.247  1.00  0.00    -0.304 N 
HETATM   16  H   UNL     1       6.541  27.763  51.148  1.00  0.00     0.171 HD
HETATM   17  O   UNL     1       4.790  25.335  52.389  1.00  0.00    -0.270 OA
BRANCH  15  18
HETATM   18  C   UNL     1       4.751  27.297  50.335  1.00  0.00     0.172 A 
HETATM   19  S   UNL     1       3.725  28.621  50.652  1.00  0.00    -0.062 SA
HETATM   20  C   UNL     1       2.840  28.245  49.230  1.00  0.00     0.072 A 
HETATM   21  C   UNL     1       3.397  27.140  48.621  1.00  0.00     0.126 A 
HETATM   22  N   UNL     1       4.499  26.602  49.258  1.00  0.00    -0.236 NA
ENDBRANCH  15  18
ENDBRANCH   1  14
BRANCH   1  23
HETATM   23  C   UNL     1       7.305  24.569  53.540  1.00  0.00    -0.019 A 
HETATM   24  C   UNL     1       7.123  24.242  54.896  1.00  0.00     0.010 A 
HETATM   25  C   UNL     1       7.384  22.952  55.357  1.00  0.00     0.001 A 
HETATM   26  C   UNL     1       7.822  21.970  54.473  1.00  0.00     0.000 A 
HETATM   27  C   UNL     1       7.999  22.273  53.126  1.00  0.00     0.001 A 
HETATM   28  C   UNL     1       7.739  23.562  52.659  1.00  0.00     0.010 A 
ENDBRANCH   1  23
TORSDOF 7
ENDMDL
MODEL 6
REMARK VINA RESULT:      -7.9      2.894      6.912
REMARK  7 active torsions:
REMARK  status: ('A' for Active; 'I' for Inactive)
REMARK    1  A    between atoms: O_2  and  C_3 
REMARK    2  A    between atoms: C_6  and  C_7 
REMARK    3  A    between atoms: C_7  and  N_8 
REMARK    4  A    between atoms: N_8  and  C_11 
REMARK    5  A    between atoms: C_11  and  C_12 
REMARK    6  A    between atoms: C_11  and  C_20 
REMARK       I    between atoms: C_12  and  N_13 
REMARK    7  A    between atoms: N_13  and  C_14 
ROOT
HETATM    1  C   UNL     1       6.887  27.166  54.314  1.00  0.00     0.310 C 
ENDROOT
BRANCH   1   2
HETATM    2  N   UNL     1       6.878  28.151  53.161  1.00  0.00    -0.054 N 
HETATM    3  H   UNL     1       7.286  27.642  52.361  1.00  0.00     0.278 HD
HETATM    4  H   UNL     1       7.484  28.954  53.350  1.00  0.00     0.278 HD
BRANCH   2   5
HETATM    5  C   UNL     1       5.546  28.630  52.694  1.00  0.00     0.272 C 
BRANCH   5   6
HETATM    6  C   UNL     1       5.303  28.213  51.273  1.00  0.00    -0.033 A 
HETATM    7  C   UNL     1       5.406  29.149  50.232  1.00  0.00     0.011 A 
HETATM    8  C   UNL     1       5.154  28.773  48.907  1.00  0.00     0.037 A 
HETATM    9  C   UNL     1       4.796  27.460  48.607  1.00  0.00     0.068 A 
HETATM   10  C   UNL     1       4.682  26.531  49.643  1.00  0.00     0.037 A 
HETATM   11  C   UNL     1       4.930  26.898  50.967  1.00  0.00     0.011 A 
BRANCH   9  12
HETATM   12  O   UNL     1       4.528  26.962  47.364  1.00  0.00    -0.356 OA
HETATM   13  C   UNL     1       3.299  26.264  47.196  1.00  0.00     0.210 C 
ENDBRANCH   9  12
ENDBRANCH   5   6
ENDBRANCH   2   5
ENDBRANCH   1   2
BRANCH   1  14
HETATM   14  C   UNL     1       7.782  27.700  55.457  1.00  0.00     0.259 C 
HETATM   15  N   UNL     1       8.245  28.985  55.304  1.00  0.00    -0.304 N 
HETATM   16  H   UNL     1       8.031  29.560  54.499  1.00  0.00     0.171 HD
HETATM   17  O   UNL     1       8.041  26.918  56.375  1.00  0.00    -0.270 OA
BRANCH  15  18
HETATM   18  C   UNL     1       8.966  29.603  56.290  1.00  0.00     0.172 A 
HETATM   19  S   UNL     1       8.083  29.924  57.712  1.00  0.00    -0.062 SA
HETATM   20  C   UNL     1       9.500  30.598  58.410  1.00  0.00     0.072 A 
HETATM   21  C   UNL     1      10.537  30.525  57.504  1.00  0.00     0.126 A 
HETATM   22  N   UNL     1      10.226  29.946  56.288  1.00  0.00    -0.236 NA
ENDBRANCH  15  18
ENDBRANCH   1  14
BRANCH   1  23
HETATM   23  C   UNL     1       7.156  25.746  53.860  1.00  0.00    -0.019 A 
HETATM   24  C   UNL     1       7.839  25.527  52.650  1.00  0.00     0.010 A 
HETATM   25  C   UNL     1       8.132  24.232  52.223  1.00  0.00     0.001 A 
HETATM   26  C   UNL     1       7.756  23.139  52.999  1.00  0.00     0.000 A 
HETATM   27  C   UNL     1       7.087  23.338  54.204  1.00  0.00     0.001 A 
HETATM   28  C   UNL     1       6.792  24.631  54.636  1.00  0.00     0.010 A 
ENDBRANCH   1  23
TORSDOF 7
ENDMDL
MODEL 7
REMARK VINA RESULT:      -7.7      2.388      5.343
REMARK  7 active torsions:
REMARK  status: ('A' for Active; 'I' for Inactive)
REMARK    1  A    between atoms: O_2  and  C_3 
REMARK    2  A    between atoms: C_6  and  C_7 
REMARK    3  A    between atoms: C_7  and  N_8 
REMARK    4  A    between atoms: N_8  and  C_11 
REMARK    5  A    between atoms: C_11  and  C_12 
REMARK    6  A    between atoms: C_11  and  C_20 
REMARK       I    between atoms: C_12  and  N_13 
REMARK    7  A    between atoms: N_13  and  C_14 
ROOT
HETATM    1  C   UNL     1       6.320  24.175  54.222  1.00  0.00     0.310 C 
ENDROOT
BRANCH   1   2
HETATM    2  N   UNL     1       6.446  24.853  52.871  1.00  0.00    -0.054 N 
HETATM    3  H   UNL     1       6.955  24.184  52.274  1.00  0.00     0.278 HD
HETATM    4  H   UNL     1       7.017  25.701  52.930  1.00  0.00     0.278 HD
BRANCH   2   5
HETATM    5  C   UNL     1       5.179  25.154  52.147  1.00  0.00     0.272 C 
BRANCH   5   6
HETATM    6  C   UNL     1       5.263  26.490  51.468  1.00  0.00    -0.033 A 
HETATM    7  C   UNL     1       5.566  27.644  52.208  1.00  0.00     0.011 A 
HETATM    8  C   UNL     1       5.619  28.896  51.587  1.00  0.00     0.037 A 
HETATM    9  C   UNL     1       5.369  29.012  50.221  1.00  0.00     0.068 A 
HETATM   10  C   UNL     1       5.056  27.867  49.486  1.00  0.00     0.037 A 
HETATM   11  C   UNL     1       5.000  26.615  50.098  1.00  0.00     0.011 A 
BRANCH   9  12
HETATM   12  O   UNL     1       5.391  30.168  49.493  1.00  0.00    -0.356 OA
HETATM   13  C   UNL     1       5.669  31.373  50.197  1.00  0.00     0.210 C 
ENDBRANCH   9  12
ENDBRANCH   5   6
ENDBRANCH   2   5
ENDBRANCH   1   2
BRANCH   1  14
HETATM   14  C   UNL     1       6.372  25.233  55.350  1.00  0.00     0.259 C 
HETATM   15  N   UNL     1       7.456  26.078  55.329  1.00  0.00    -0.304 N 
HETATM   16  H   UNL     1       8.188  26.024  54.632  1.00  0.00     0.171 HD
HETATM   17  O   UNL     1       5.471  25.197  56.191  1.00  0.00    -0.270 OA
BRANCH  15  18
HETATM   18  C   UNL     1       7.567  27.115  56.215  1.00  0.00     0.172 A 
HETATM   19  S   UNL     1       6.916  28.590  55.659  1.00  0.00    -0.062 SA
HETATM   20  C   UNL     1       7.350  29.316  57.153  1.00  0.00     0.072 A 
HETATM   21  C   UNL     1       7.956  28.377  57.961  1.00  0.00     0.126 A 
HETATM   22  N   UNL     1       8.074  27.111  57.419  1.00  0.00    -0.236 NA
ENDBRANCH  15  18
ENDBRANCH   1  14
BRANCH   1  23
HETATM   23  C   UNL     1       7.258  22.995  54.367  1.00  0.00    -0.019 A 
HETATM   24  C   UNL     1       7.527  22.482  55.649  1.00  0.00     0.010 A 
HETATM   25  C   UNL     1       8.359  21.374  55.810  1.00  0.00     0.001 A 
HETATM   26  C   UNL     1       8.927  20.759  54.698  1.00  0.00     0.000 A 
HETATM   27  C   UNL     1       8.664  21.249  53.421  1.00  0.00     0.001 A 
HETATM   28  C   UNL     1       7.832  22.356  53.253  1.00  0.00     0.010 A 
ENDBRANCH   1  23
TORSDOF 7
ENDMDL
MODEL 8
REMARK VINA RESULT:      -7.6      2.239      5.553
REMARK  7 active torsions:
REMARK  status: ('A' for Active; 'I' for Inactive)
REMARK    1  A    between atoms: O_2  and  C_3 
REMARK    2  A    between atoms: C_6  and  C_7 
REMARK    3  A    between atoms: C_7  and  N_8 
REMARK    4  A    between atoms: N_8  and  C_11 
REMARK    5  A    between atoms: C_11  and  C_12 
REMARK    6  A    between atoms: C_11  and  C_20 
REMARK       I    between atoms: C_12  and  N_13 
REMARK    7  A    between atoms: N_13  and  C_14 
ROOT
HETATM    1  C   UNL     1       5.330  27.635  54.787  1.00  0.00     0.310 C 
ENDROOT
BRANCH   1   2
HETATM    2  N   UNL     1       5.073  26.143  54.878  1.00  0.00    -0.054 N 
HETATM    3  H   UNL     1       4.050  26.046  54.978  1.00  0.00     0.278 HD
HETATM    4  H   UNL     1       5.498  25.740  55.717  1.00  0.00     0.278 HD
BRANCH   2   5
HETATM    5  C   UNL     1       5.438  25.322  53.689  1.00  0.00     0.272 C 
BRANCH   5   6
HETATM    6  C   UNL     1       6.480  24.303  54.051  1.00  0.00    -0.033 A 
HETATM    7  C   UNL     1       6.786  24.049  55.397  1.00  0.00     0.011 A 
HETATM    8  C   UNL     1       7.774  23.120  55.740  1.00  0.00     0.037 A 
HETATM    9  C   UNL     1       8.470  22.436  54.745  1.00  0.00     0.068 A 
HETATM   10  C   UNL     1       8.176  22.698  53.405  1.00  0.00     0.037 A 
HETATM   11  C   UNL     1       7.191  23.623  53.055  1.00  0.00     0.011 A 
BRANCH   9  12
HETATM   12  O   UNL     1       9.451  21.507  54.941  1.00  0.00    -0.356 OA
HETATM   13  C   UNL     1       9.192  20.481  55.893  1.00  0.00     0.210 C 
ENDBRANCH   9  12
ENDBRANCH   5   6
ENDBRANCH   2   5
ENDBRANCH   1   2
BRANCH   1  14
HETATM   14  C   UNL     1       5.855  27.995  53.376  1.00  0.00     0.259 C 
HETATM   15  N   UNL     1       4.897  28.323  52.447  1.00  0.00    -0.304 N 
HETATM   16  H   UNL     1       3.905  28.329  52.651  1.00  0.00     0.171 HD
HETATM   17  O   UNL     1       7.072  27.910  53.195  1.00  0.00    -0.270 OA
BRANCH  15  18
HETATM   18  C   UNL     1       5.239  28.752  51.193  1.00  0.00     0.172 A 
HETATM   19  S   UNL     1       4.941  27.619  49.955  1.00  0.00    -0.062 SA
HETATM   20  C   UNL     1       5.527  28.756  48.808  1.00  0.00     0.072 A 
HETATM   21  C   UNL     1       5.903  29.912  49.459  1.00  0.00     0.126 A 
HETATM   22  N   UNL     1       5.730  29.907  50.831  1.00  0.00    -0.236 NA
ENDBRANCH  15  18
ENDBRANCH   1  14
BRANCH   1  23
HETATM   23  C   UNL     1       6.142  28.154  55.956  1.00  0.00    -0.019 A 
HETATM   24  C   UNL     1       6.956  27.264  56.679  1.00  0.00     0.010 A 
HETATM   25  C   UNL     1       7.740  27.720  57.738  1.00  0.00     0.001 A 
HETATM   26  C   UNL     1       7.730  29.068  58.085  1.00  0.00     0.000 A 
HETATM   27  C   UNL     1       6.937  29.965  57.374  1.00  0.00     0.001 A 
HETATM   28  C   UNL     1       6.151  29.514  56.313  1.00  0.00     0.010 A 
ENDBRANCH   1  23
TORSDOF 7
ENDMDL
MODEL 9
REMARK VINA RESULT:      -7.5      2.586      3.209
REMARK  7 active torsions:
REMARK  status: ('A' for Active; 'I' for Inactive)
REMARK    1  A    between atoms: O_2  and  C_3 
REMARK    2  A    between atoms: C_6  and  C_7 
REMARK    3  A    between atoms: C_7  and  N_8 
REMARK    4  A    between atoms: N_8  and  C_11 
REMARK    5  A    between atoms: C_11  and  C_12 
REMARK    6  A    between atoms: C_11  and  C_20 
REMARK       I    between atoms: C_12  and  N_13 
REMARK    7  A    between atoms: N_13  and  C_14 
ROOT
HETATM    1  C   UNL     1       7.501  26.319  55.071  1.00  0.00     0.310 C 
ENDROOT
BRANCH   1   2
HETATM    2  N   UNL     1       6.982  26.461  56.489  1.00  0.00    -0.054 N 
HETATM    3  H   UNL     1       6.835  25.497  56.826  1.00  0.00     0.278 HD
HETATM    4  H   UNL     1       6.073  26.930  56.510  1.00  0.00     0.278 HD
BRANCH   2   5
HETATM    5  C   UNL     1       7.895  27.097  57.481  1.00  0.00     0.272 C 
BRANCH   5   6
HETATM    6  C   UNL     1       7.503  28.527  57.717  1.00  0.00    -0.033 A 
HETATM    7  C   UNL     1       8.407  29.420  58.314  1.00  0.00     0.011 A 
HETATM    8  C   UNL     1       8.038  30.747  58.562  1.00  0.00     0.037 A 
HETATM    9  C   UNL     1       6.765  31.197  58.219  1.00  0.00     0.068 A 
HETATM   10  C   UNL     1       5.861  30.306  57.636  1.00  0.00     0.037 A 
HETATM   11  C   UNL     1       6.221  28.981  57.386  1.00  0.00     0.011 A 
BRANCH   9  12
HETATM   12  O   UNL     1       6.280  32.461  58.402  1.00  0.00    -0.356 OA
HETATM   13  C   UNL     1       5.442  32.677  59.531  1.00  0.00     0.210 C 
ENDBRANCH   9  12
ENDBRANCH   5   6
ENDBRANCH   2   5
ENDBRANCH   1   2
BRANCH   1  14
HETATM   14  C   UNL     1       6.758  27.303  54.136  1.00  0.00     0.259 C 
HETATM   15  N   UNL     1       5.395  27.143  54.061  1.00  0.00    -0.304 N 
HETATM   16  H   UNL     1       4.891  26.429  54.571  1.00  0.00     0.171 HD
HETATM   17  O   UNL     1       7.451  28.107  53.508  1.00  0.00    -0.270 OA
BRANCH  15  18
HETATM   18  C   UNL     1       4.616  28.010  53.344  1.00  0.00     0.172 A 
HETATM   19  S   UNL     1       4.127  29.397  54.208  1.00  0.00    -0.062 SA
HETATM   20  C   UNL     1       3.308  29.952  52.805  1.00  0.00     0.072 A 
HETATM   21  C   UNL     1       3.472  29.038  51.785  1.00  0.00     0.126 A 
HETATM   22  N   UNL     1       4.230  27.925  52.100  1.00  0.00    -0.236 NA
ENDBRANCH  15  18
ENDBRANCH   1  14
BRANCH   1  23
HETATM   23  C   UNL     1       7.556  24.875  54.617  1.00  0.00    -0.019 A 
HETATM   24  C   UNL     1       7.797  24.588  53.261  1.00  0.00     0.010 A 
HETATM   25  C   UNL     1       7.886  23.268  52.820  1.00  0.00     0.001 A 
HETATM   26  C   UNL     1       7.745  22.218  53.723  1.00  0.00     0.000 A 
HETATM   27  C   UNL     1       7.515  22.485  55.070  1.00  0.00     0.001 A 
HETATM   28  C   UNL     1       7.425  23.803  55.518  1.00  0.00     0.010 A 
ENDBRANCH   1  23
TORSDOF 7
ENDMDL
MODEL 10
REMARK VINA RESULT:      -7.4      3.287      6.586
REMARK  7 active torsions:
REMARK  status: ('A' for Active; 'I' for Inactive)
REMARK    1  A    between atoms: O_2  and  C_3 
REMARK    2  A    between atoms: C_6  and  C_7 
REMARK    3  A    between atoms: C_7  and  N_8 
REMARK    4  A    between atoms: N_8  and  C_11 
REMARK    5  A    between atoms: C_11  and  C_12 
REMARK    6  A    between atoms: C_11  and  C_20 
REMARK       I    between atoms: C_12  and  N_13 
REMARK    7  A    between atoms: N_13  and  C_14 
ROOT
HETATM    1  C   UNL     1       5.808  27.555  51.658  1.00  0.00     0.310 C 
ENDROOT
BRANCH   1   2
HETATM    2  N   UNL     1       6.362  26.198  52.048  1.00  0.00    -0.054 N 
HETATM    3  H   UNL     1       6.866  25.857  51.215  1.00  0.00     0.278 HD
HETATM    4  H   UNL     1       5.611  25.529  52.241  1.00  0.00     0.278 HD
BRANCH   2   5
HETATM    5  C   UNL     1       7.355  26.168  53.158  1.00  0.00     0.272 C 
BRANCH   5   6
HETATM    6  C   UNL     1       7.516  24.772  53.686  1.00  0.00    -0.033 A 
HETATM    7  C   UNL     1       7.950  23.740  52.839  1.00  0.00     0.011 A 
HETATM    8  C   UNL     1       8.076  22.431  53.318  1.00  0.00     0.037 A 
HETATM    9  C   UNL     1       7.771  22.137  54.646  1.00  0.00     0.068 A 
HETATM   10  C   UNL     1       7.327  23.161  55.485  1.00  0.00     0.037 A 
HETATM   11  C   UNL     1       7.198  24.469  55.015  1.00  0.00     0.011 A 
BRANCH   9  12
HETATM   12  O   UNL     1       7.853  20.910  55.239  1.00  0.00    -0.356 OA
HETATM   13  C   UNL     1       8.771  19.979  54.678  1.00  0.00     0.210 C 
ENDBRANCH   9  12
ENDBRANCH   5   6
ENDBRANCH   2   5
ENDBRANCH   1   2
BRANCH   1  14
HETATM   14  C   UNL     1       4.871  28.082  52.771  1.00  0.00     0.259 C 
HETATM   15  N   UNL     1       5.290  29.219  53.419  1.00  0.00    -0.304 N 
HETATM   16  H   UNL     1       6.158  29.694  53.201  1.00  0.00     0.171 HD
HETATM   17  O   UNL     1       3.861  27.415  53.012  1.00  0.00    -0.270 OA
BRANCH  15  18
HETATM   18  C   UNL     1       4.505  29.836  54.354  1.00  0.00     0.172 A 
HETATM   19  S   UNL     1       3.503  31.067  53.733  1.00  0.00    -0.062 SA
HETATM   20  C   UNL     1       2.873  31.316  55.310  1.00  0.00     0.072 A 
HETATM   21  C   UNL     1       3.474  30.440  56.189  1.00  0.00     0.126 A 
HETATM   22  N   UNL     1       4.409  29.587  55.633  1.00  0.00    -0.236 NA
ENDBRANCH  15  18
ENDBRANCH   1  14
BRANCH   1  23
HETATM   23  C   UNL     1       5.250  27.570  50.250  1.00  0.00    -0.019 A 
HETATM   24  C   UNL     1       4.727  26.384  49.704  1.00  0.00     0.010 A 
HETATM   25  C   UNL     1       4.175  26.375  48.422  1.00  0.00     0.001 A 
HETATM   26  C   UNL     1       4.129  27.548  47.674  1.00  0.00     0.000 A 
HETATM   27  C   UNL     1       4.633  28.733  48.203  1.00  0.00     0.001 A 
HETATM   28  C   UNL     1       5.186  28.748  49.484  1.00  0.00     0.010 A 
ENDBRANCH   1  23
TORSDOF 7
ENDMDL
