MODEL 1
REMARK VINA RESULT:      -8.5      0.000      0.000
REMARK  6 active torsions:
REMARK  status: ('A' for Active; 'I' for Inactive)
REMARK    1  A    between atoms: C_2  and  N_3 
REMARK    2  A    between atoms: C_2  and  C_16 
REMARK    3  A    between atoms: N_3  and  C_6 
REMARK    4  A    between atoms: C_16  and  C_17 
REMARK       I    between atoms: C_17  and  N_18 
REMARK    5  A    between atoms: N_18  and  C_19 
REMARK    6  A    between atoms: C_22  and  O_23 
ROOT
HETATM    1  C   UNL     1       5.465  25.435  51.964  1.00  0.00     0.040 C 
HETATM    2  C   UNL     1       6.003  25.624  53.380  1.00  0.00     0.191 C 
ENDROOT
BRANCH   2   3
HETATM    3  N   UNL     1       6.045  24.290  54.120  1.00  0.00    -0.063 N 
HETATM    4  H   UNL     1       5.281  24.272  54.804  1.00  0.00     0.278 HD
HETATM    5  H   UNL     1       5.816  23.555  53.437  1.00  0.00     0.278 HD
BRANCH   3   6
HETATM    6  C   UNL     1       7.317  23.822  54.827  1.00  0.00     0.221 C 
HETATM    7  C   UNL     1       7.811  22.457  54.390  1.00  0.00    -0.011 A 
HETATM    8  C   UNL     1       8.247  21.487  55.312  1.00  0.00     0.009 A 
HETATM    9  C   UNL     1       7.895  22.150  53.013  1.00  0.00     0.011 A 
HETATM   10  C   UNL     1       8.647  20.222  54.860  1.00  0.00     0.019 A 
HETATM   11  S   UNL     1       8.341  21.765  57.069  1.00  0.00    -0.129 SA
HETATM   12  C   UNL     1       8.667  19.920  53.501  1.00  0.00     0.001 A 
HETATM   13  C   UNL     1       8.306  20.890  52.576  1.00  0.00     0.001 A 
HETATM   14  C   UNL     1       8.365  23.573  57.109  1.00  0.00     0.082 C 
HETATM   15  C   UNL     1       7.165  24.079  56.332  1.00  0.00     0.048 C 
ENDBRANCH   3   6
ENDBRANCH   2   3
BRANCH   2  16
HETATM   16  C   UNL     1       7.437  26.183  53.359  1.00  0.00     0.135 C 
BRANCH  16  17
HETATM   17  C   UNL     1       7.497  27.502  54.104  1.00  0.00     0.224 C 
HETATM   18  N   UNL     1       7.601  27.340  55.471  1.00  0.00    -0.327 N 
HETATM   19  H   UNL     1       7.484  26.410  55.854  1.00  0.00     0.169 HD
HETATM   20  O   UNL     1       7.431  28.558  53.485  1.00  0.00    -0.273 OA
BRANCH  18  21
HETATM   21  C   UNL     1       7.845  28.351  56.425  1.00  0.00     0.034 A 
HETATM   22  C   UNL     1       9.116  28.732  56.851  1.00  0.00     0.032 A 
HETATM   23  C   UNL     1       9.265  29.719  57.832  1.00  0.00     0.039 A 
HETATM   24  C   UNL     1       8.154  30.346  58.395  1.00  0.00     0.068 A 
HETATM   25  C   UNL     1       6.881  29.968  57.975  1.00  0.00     0.039 A 
HETATM   26  C   UNL     1       6.729  28.976  56.998  1.00  0.00     0.032 A 
BRANCH  24  27
HETATM   27  O   UNL     1       8.444  31.288  59.340  1.00  0.00    -0.356 OA
HETATM   28  C   UNL     1       8.832  30.817  60.625  1.00  0.00     0.210 C 
ENDBRANCH  24  27
ENDBRANCH  18  21
ENDBRANCH  16  17
ENDBRANCH   2  16
TORSDOF 6
ENDMDL
MODEL 2
REMARK VINA RESULT:      -8.4      3.750      7.245
REMARK  6 active torsions:
REMARK  status: ('A' for Active; 'I' for Inactive)
REMARK    1  A    between atoms: C_2  and  N_3 
REMARK    2  A    between atoms: C_2  and  C_16 
REMARK    3  A    between atoms: N_3  and  C_6 
REMARK    4  A    between atoms: C_16  and  C_17 
REMARK       I    between atoms: C_17  and  N_18 
REMARK    5  A    between atoms: N_18  and  C_19 
REMARK    6  A    between atoms: C_22  and  O_23 
ROOT
HETATM    1  C   UNL     1       5.538  27.385  53.424  1.00  0.00     0.040 C 
HETATM    2  C   UNL     1       6.709  26.416  53.277  1.00  0.00     0.191 C 
ENDROOT
BRANCH   2   3
HETATM    3  N   UNL     1       6.485  25.171  54.130  1.00  0.00    -0.063 N 
HETATM    4  H   UNL     1       5.773  25.384  54.837  1.00  0.00     0.278 HD
HETATM    5  H   UNL     1       6.061  24.457  53.523  1.00  0.00     0.278 HD
BRANCH   3   6
HETATM    6  C   UNL     1       7.653  24.480  54.835  1.00  0.00     0.221 C 
HETATM    7  C   UNL     1       7.835  23.022  54.462  1.00  0.00    -0.011 A 
HETATM    8  C   UNL     1       8.088  22.028  55.424  1.00  0.00     0.009 A 
HETATM    9  C   UNL     1       7.810  22.639  53.102  1.00  0.00     0.011 A 
HETATM   10  C   UNL     1       8.200  20.686  55.033  1.00  0.00     0.019 A 
HETATM   11  S   UNL     1       8.292  22.364  57.162  1.00  0.00    -0.129 SA
HETATM   12  C   UNL     1       8.113  20.322  53.692  1.00  0.00     0.001 A 
HETATM   13  C   UNL     1       7.934  21.301  52.724  1.00  0.00     0.001 A 
HETATM   14  C   UNL     1       8.696  24.125  57.105  1.00  0.00     0.082 C 
HETATM   15  C   UNL     1       7.604  24.835  56.326  1.00  0.00     0.048 C 
ENDBRANCH   3   6
ENDBRANCH   2   3
BRANCH   2  16
HETATM   16  C   UNL     1       6.865  25.952  51.817  1.00  0.00     0.135 C 
BRANCH  16  17
HETATM   17  C   UNL     1       5.504  25.795  51.168  1.00  0.00     0.224 C 
HETATM   18  N   UNL     1       5.302  26.682  50.129  1.00  0.00    -0.327 N 
HETATM   19  H   UNL     1       5.979  27.422  49.991  1.00  0.00     0.169 HD
HETATM   20  O   UNL     1       4.715  24.961  51.595  1.00  0.00    -0.273 OA
BRANCH  18  21
HETATM   21  C   UNL     1       4.222  26.686  49.220  1.00  0.00     0.034 A 
HETATM   22  C   UNL     1       4.007  25.698  48.260  1.00  0.00     0.032 A 
HETATM   23  C   UNL     1       2.931  25.801  47.371  1.00  0.00     0.039 A 
HETATM   24  C   UNL     1       2.051  26.881  47.431  1.00  0.00     0.068 A 
HETATM   25  C   UNL     1       2.261  27.872  48.386  1.00  0.00     0.039 A 
HETATM   26  C   UNL     1       3.342  27.775  49.273  1.00  0.00     0.032 A 
BRANCH  24  27
HETATM   27  O   UNL     1       1.047  26.855  46.504  1.00  0.00    -0.356 OA
HETATM   28  C   UNL     1       0.089  27.904  46.559  1.00  0.00     0.210 C 
ENDBRANCH  24  27
ENDBRANCH  18  21
ENDBRANCH  16  17
ENDBRANCH   2  16
TORSDOF 6
ENDMDL
MODEL 3
REMARK VINA RESULT:      -8.2      3.265      9.053
REMARK  6 active torsions:
REMARK  status: ('A' for Active; 'I' for Inactive)
REMARK    1  A    between atoms: C_2  and  N_3 
REMARK    2  A    between atoms: C_2  and  C_16 
REMARK    3  A    between atoms: N_3  and  C_6 
REMARK    4  A    between atoms: C_16  and  C_17 
REMARK       I    between atoms: C_17  and  N_18 
REMARK    5  A    between atoms: N_18  and  C_19 
REMARK    6  A    between atoms: C_22  and  O_23 
ROOT
HETATM    1  C   UNL     1       9.111  29.341  56.518  1.00  0.00     0.040 C 
HETATM    2  C   UNL     1       7.913  28.494  56.939  1.00  0.00     0.191 C 
ENDROOT
BRANCH   2   3
HETATM    3  N   UNL     1       7.245  29.087  58.176  1.00  0.00    -0.063 N 
HETATM    4  H   UNL     1       6.306  28.683  58.265  1.00  0.00     0.278 HD
HETATM    5  H   UNL     1       7.766  28.749  58.996  1.00  0.00     0.278 HD
BRANCH   3   6
HETATM    6  C   UNL     1       7.122  30.601  58.354  1.00  0.00     0.221 C 
HETATM    7  C   UNL     1       7.659  31.122  59.671  1.00  0.00    -0.011 A 
HETATM    8  C   UNL     1       6.962  32.072  60.442  1.00  0.00     0.009 A 
HETATM    9  C   UNL     1       8.924  30.693  60.131  1.00  0.00     0.011 A 
HETATM   10  C   UNL     1       7.478  32.485  61.678  1.00  0.00     0.019 A 
HETATM   11  S   UNL     1       5.426  32.820  59.936  1.00  0.00    -0.129 SA
HETATM   12  C   UNL     1       8.701  32.005  62.140  1.00  0.00     0.001 A 
HETATM   13  C   UNL     1       9.432  31.121  61.359  1.00  0.00     0.001 A 
HETATM   14  C   UNL     1       5.490  32.515  58.155  1.00  0.00     0.082 C 
HETATM   15  C   UNL     1       5.709  31.030  57.937  1.00  0.00     0.048 C 
ENDBRANCH   3   6
ENDBRANCH   2   3
BRANCH   2  16
HETATM   16  C   UNL     1       6.852  28.439  55.824  1.00  0.00     0.135 C 
BRANCH  16  17
HETATM   17  C   UNL     1       6.506  26.999  55.499  1.00  0.00     0.224 C 
HETATM   18  N   UNL     1       7.559  26.313  54.928  1.00  0.00    -0.327 N 
HETATM   19  H   UNL     1       8.379  26.837  54.649  1.00  0.00     0.169 HD
HETATM   20  O   UNL     1       5.381  26.574  55.730  1.00  0.00    -0.273 OA
BRANCH  18  21
HETATM   21  C   UNL     1       7.620  24.927  54.664  1.00  0.00     0.034 A 
HETATM   22  C   UNL     1       7.686  24.379  53.384  1.00  0.00     0.032 A 
HETATM   23  C   UNL     1       7.704  22.990  53.212  1.00  0.00     0.039 A 
HETATM   24  C   UNL     1       7.667  22.130  54.310  1.00  0.00     0.068 A 
HETATM   25  C   UNL     1       7.599  22.672  55.591  1.00  0.00     0.039 A 
HETATM   26  C   UNL     1       7.574  24.062  55.765  1.00  0.00     0.032 A 
BRANCH  24  27
HETATM   27  O   UNL     1       7.690  20.801  53.997  1.00  0.00    -0.356 OA
HETATM   28  C   UNL     1       8.367  20.428  52.803  1.00  0.00     0.210 C 
ENDBRANCH  24  27
ENDBRANCH  18  21
ENDBRANCH  16  17
ENDBRANCH   2  16
TORSDOF 6
ENDMDL
MODEL 4
REMARK VINA RESULT:      -8.2      2.424      4.658
REMARK  6 active torsions:
REMARK  status: ('A' for Active; 'I' for Inactive)
REMARK    1  A    between atoms: C_2  and  N_3 
REMARK    2  A    between atoms: C_2  and  C_16 
REMARK    3  A    between atoms: N_3  and  C_6 
REMARK    4  A    between atoms: C_16  and  C_17 
REMARK       I    between atoms: C_17  and  N_18 
REMARK    5  A    between atoms: N_18  and  C_19 
REMARK    6  A    between atoms: C_22  and  O_23 
ROOT
HETATM    1  C   UNL     1       9.664  29.391  56.175  1.00  0.00     0.040 C 
HETATM    2  C   UNL     1       8.252  28.968  55.778  1.00  0.00     0.191 C 
ENDROOT
BRANCH   2   3
HETATM    3  N   UNL     1       8.026  27.492  56.092  1.00  0.00    -0.063 N 
HETATM    4  H   UNL     1       8.932  27.063  56.309  1.00  0.00     0.278 HD
HETATM    5  H   UNL     1       7.486  27.445  56.967  1.00  0.00     0.278 HD
BRANCH   3   6
HETATM    6  C   UNL     1       7.301  26.579  55.103  1.00  0.00     0.221 C 
HETATM    7  C   UNL     1       7.679  25.115  55.209  1.00  0.00    -0.011 A 
HETATM    8  C   UNL     1       7.934  24.323  54.074  1.00  0.00     0.009 A 
HETATM    9  C   UNL     1       7.729  24.494  56.477  1.00  0.00     0.011 A 
HETATM   10  C   UNL     1       8.329  22.987  54.227  1.00  0.00     0.019 A 
HETATM   11  S   UNL     1       7.774  24.914  52.400  1.00  0.00    -0.129 SA
HETATM   12  C   UNL     1       8.429  22.410  55.490  1.00  0.00     0.001 A 
HETATM   13  C   UNL     1       8.113  23.159  56.615  1.00  0.00     0.001 A 
HETATM   14  C   UNL     1       6.699  26.343  52.664  1.00  0.00     0.082 C 
HETATM   15  C   UNL     1       7.341  27.230  53.715  1.00  0.00     0.048 C 
ENDBRANCH   3   6
ENDBRANCH   2   3
BRANCH   2  16
HETATM   16  C   UNL     1       7.192  29.771  56.555  1.00  0.00     0.135 C 
BRANCH  16  17
HETATM   17  C   UNL     1       7.568  29.855  58.021  1.00  0.00     0.224 C 
HETATM   18  N   UNL     1       7.581  31.150  58.497  1.00  0.00    -0.327 N 
HETATM   19  H   UNL     1       7.492  31.907  57.830  1.00  0.00     0.169 HD
HETATM   20  O   UNL     1       7.840  28.834  58.642  1.00  0.00    -0.273 OA
BRANCH  18  21
HETATM   21  C   UNL     1       7.724  31.555  59.842  1.00  0.00     0.034 A 
HETATM   22  C   UNL     1       6.717  32.174  60.581  1.00  0.00     0.032 A 
HETATM   23  C   UNL     1       6.956  32.578  61.899  1.00  0.00     0.039 A 
HETATM   24  C   UNL     1       8.196  32.365  62.501  1.00  0.00     0.068 A 
HETATM   25  C   UNL     1       9.207  31.749  61.767  1.00  0.00     0.039 A 
HETATM   26  C   UNL     1       8.971  31.350  60.446  1.00  0.00     0.032 A 
BRANCH  24  27
HETATM   27  O   UNL     1       8.292  32.810  63.789  1.00  0.00    -0.356 OA
HETATM   28  C   UNL     1       7.080  33.167  64.443  1.00  0.00     0.210 C 
ENDBRANCH  24  27
ENDBRANCH  18  21
ENDBRANCH  16  17
ENDBRANCH   2  16
TORSDOF 6
ENDMDL
MODEL 5
REMARK VINA RESULT:      -8.2      2.296      3.970
REMARK  6 active torsions:
REMARK  status: ('A' for Active; 'I' for Inactive)
REMARK    1  A    between atoms: C_2  and  N_3 
REMARK    2  A    between atoms: C_2  and  C_16 
REMARK    3  A    between atoms: N_3  and  C_6 
REMARK    4  A    between atoms: C_16  and  C_17 
REMARK       I    between atoms: C_17  and  N_18 
REMARK    5  A    between atoms: N_18  and  C_19 
REMARK    6  A    between atoms: C_22  and  O_23 
ROOT
HETATM    1  C   UNL     1       4.618  28.134  56.613  1.00  0.00     0.040 C 
HETATM    2  C   UNL     1       6.134  28.005  56.743  1.00  0.00     0.191 C 
ENDROOT
BRANCH   2   3
HETATM    3  N   UNL     1       6.709  27.234  55.558  1.00  0.00    -0.063 N 
HETATM    4  H   UNL     1       5.934  26.806  55.040  1.00  0.00     0.278 HD
HETATM    5  H   UNL     1       7.120  27.923  54.914  1.00  0.00     0.278 HD
BRANCH   3   6
HETATM    6  C   UNL     1       7.782  26.163  55.762  1.00  0.00     0.221 C 
HETATM    7  C   UNL     1       7.800  25.084  54.698  1.00  0.00    -0.011 A 
HETATM    8  C   UNL     1       7.926  23.719  55.016  1.00  0.00     0.009 A 
HETATM    9  C   UNL     1       7.747  25.446  53.333  1.00  0.00     0.011 A 
HETATM   10  C   UNL     1       7.888  22.757  53.997  1.00  0.00     0.019 A 
HETATM   11  S   UNL     1       8.148  23.107  56.675  1.00  0.00    -0.129 SA
HETATM   12  C   UNL     1       7.775  23.131  52.661  1.00  0.00     0.001 A 
HETATM   13  C   UNL     1       7.721  24.478  52.327  1.00  0.00     0.001 A 
HETATM   14  C   UNL     1       8.751  24.602  57.492  1.00  0.00     0.082 C 
HETATM   15  C   UNL     1       7.758  25.719  57.230  1.00  0.00     0.048 C 
ENDBRANCH   3   6
ENDBRANCH   2   3
BRANCH   2  16
HETATM   16  C   UNL     1       6.810  29.388  56.763  1.00  0.00     0.135 C 
BRANCH  16  17
HETATM   17  C   UNL     1       7.458  29.635  58.111  1.00  0.00     0.224 C 
HETATM   18  N   UNL     1       7.203  30.899  58.603  1.00  0.00    -0.327 N 
HETATM   19  H   UNL     1       6.757  31.572  57.991  1.00  0.00     0.169 HD
HETATM   20  O   UNL     1       8.139  28.760  58.631  1.00  0.00    -0.273 OA
BRANCH  18  21
HETATM   21  C   UNL     1       7.515  31.383  59.892  1.00  0.00     0.034 A 
HETATM   22  C   UNL     1       8.553  30.889  60.680  1.00  0.00     0.032 A 
HETATM   23  C   UNL     1       8.768  31.401  61.965  1.00  0.00     0.039 A 
HETATM   24  C   UNL     1       7.961  32.415  62.478  1.00  0.00     0.068 A 
HETATM   25  C   UNL     1       6.921  32.911  61.697  1.00  0.00     0.039 A 
HETATM   26  C   UNL     1       6.699  32.396  60.413  1.00  0.00     0.032 A 
BRANCH  24  27
HETATM   27  O   UNL     1       8.282  32.819  63.743  1.00  0.00    -0.356 OA
HETATM   28  C   UNL     1       7.219  33.293  64.560  1.00  0.00     0.210 C 
ENDBRANCH  24  27
ENDBRANCH  18  21
ENDBRANCH  16  17
ENDBRANCH   2  16
TORSDOF 6
ENDMDL
MODEL 6
REMARK VINA RESULT:      -8.1      3.881      6.940
REMARK  6 active torsions:
REMARK  status: ('A' for Active; 'I' for Inactive)
REMARK    1  A    between atoms: C_2  and  N_3 
REMARK    2  A    between atoms: C_2  and  C_16 
REMARK    3  A    between atoms: N_3  and  C_6 
REMARK    4  A    between atoms: C_16  and  C_17 
REMARK       I    between atoms: C_17  and  N_18 
REMARK    5  A    between atoms: N_18  and  C_19 
REMARK    6  A    between atoms: C_22  and  O_23 
ROOT
HETATM    1  C   UNL     1      10.619  30.779  57.522  1.00  0.00     0.040 C 
HETATM    2  C   UNL     1       9.172  30.550  57.948  1.00  0.00     0.191 C 
ENDROOT
BRANCH   2   3
HETATM    3  N   UNL     1       8.566  29.379  57.181  1.00  0.00    -0.063 N 
HETATM    4  H   UNL     1       8.658  29.565  56.176  1.00  0.00     0.278 HD
HETATM    5  H   UNL     1       9.157  28.556  57.361  1.00  0.00     0.278 HD
BRANCH   3   6
HETATM    6  C   UNL     1       7.129  28.926  57.443  1.00  0.00     0.221 C 
HETATM    7  C   UNL     1       6.864  27.468  57.125  1.00  0.00    -0.011 A 
HETATM    8  C   UNL     1       5.714  27.048  56.431  1.00  0.00     0.009 A 
HETATM    9  C   UNL     1       7.763  26.477  57.581  1.00  0.00     0.011 A 
HETATM   10  C   UNL     1       5.540  25.693  56.118  1.00  0.00     0.019 A 
HETATM   11  S   UNL     1       4.414  28.152  55.914  1.00  0.00    -0.129 SA
HETATM   12  C   UNL     1       6.469  24.739  56.527  1.00  0.00     0.001 A 
HETATM   13  C   UNL     1       7.573  25.129  57.273  1.00  0.00     0.001 A 
HETATM   14  C   UNL     1       4.721  29.551  57.016  1.00  0.00     0.082 C 
HETATM   15  C   UNL     1       6.171  29.971  56.856  1.00  0.00     0.048 C 
ENDBRANCH   3   6
ENDBRANCH   2   3
BRANCH   2  16
HETATM   16  C   UNL     1       9.082  30.213  59.448  1.00  0.00     0.135 C 
BRANCH  16  17
HETATM   17  C   UNL     1       8.484  31.378  60.213  1.00  0.00     0.224 C 
HETATM   18  N   UNL     1       7.844  30.986  61.371  1.00  0.00    -0.327 N 
HETATM   19  H   UNL     1       7.702  29.996  61.529  1.00  0.00     0.169 HD
HETATM   20  O   UNL     1       8.584  32.516  59.769  1.00  0.00    -0.273 OA
BRANCH  18  21
HETATM   21  C   UNL     1       7.335  31.829  62.382  1.00  0.00     0.034 A 
HETATM   22  C   UNL     1       8.126  32.463  63.339  1.00  0.00     0.032 A 
HETATM   23  C   UNL     1       7.534  33.253  64.332  1.00  0.00     0.039 A 
HETATM   24  C   UNL     1       6.152  33.429  64.380  1.00  0.00     0.068 A 
HETATM   25  C   UNL     1       5.356  32.796  63.428  1.00  0.00     0.039 A 
HETATM   26  C   UNL     1       5.946  32.000  62.437  1.00  0.00     0.032 A 
BRANCH  24  27
HETATM   27  O   UNL     1       5.710  34.222  65.400  1.00  0.00    -0.356 OA
HETATM   28  C   UNL     1       4.498  33.840  66.039  1.00  0.00     0.210 C 
ENDBRANCH  24  27
ENDBRANCH  18  21
ENDBRANCH  16  17
ENDBRANCH   2  16
TORSDOF 6
ENDMDL
MODEL 7
REMARK VINA RESULT:      -8.0      3.191      5.856
REMARK  6 active torsions:
REMARK  status: ('A' for Active; 'I' for Inactive)
REMARK    1  A    between atoms: C_2  and  N_3 
REMARK    2  A    between atoms: C_2  and  C_16 
REMARK    3  A    between atoms: N_3  and  C_6 
REMARK    4  A    between atoms: C_16  and  C_17 
REMARK       I    between atoms: C_17  and  N_18 
REMARK    5  A    between atoms: N_18  and  C_19 
REMARK    6  A    between atoms: C_22  and  O_23 
ROOT
HETATM    1  C   UNL     1       9.116  29.329  55.983  1.00  0.00     0.040 C 
HETATM    2  C   UNL     1       8.527  29.550  57.374  1.00  0.00     0.191 C 
ENDROOT
BRANCH   2   3
HETATM    3  N   UNL     1       7.950  28.249  57.924  1.00  0.00    -0.063 N 
HETATM    4  H   UNL     1       8.697  27.547  57.954  1.00  0.00     0.278 HD
HETATM    5  H   UNL     1       7.695  28.418  58.906  1.00  0.00     0.278 HD
BRANCH   3   6
HETATM    6  C   UNL     1       6.723  27.599  57.282  1.00  0.00     0.221 C 
HETATM    7  C   UNL     1       7.034  26.394  56.417  1.00  0.00    -0.011 A 
HETATM    8  C   UNL     1       6.441  26.204  55.155  1.00  0.00     0.009 A 
HETATM    9  C   UNL     1       7.902  25.389  56.900  1.00  0.00     0.011 A 
HETATM   10  C   UNL     1       6.800  25.097  54.372  1.00  0.00     0.019 A 
HETATM   11  S   UNL     1       5.219  27.300  54.462  1.00  0.00    -0.129 SA
HETATM   12  C   UNL     1       7.703  24.149  54.844  1.00  0.00     0.001 A 
HETATM   13  C   UNL     1       8.243  24.286  56.116  1.00  0.00     0.001 A 
HETATM   14  C   UNL     1       4.638  28.124  55.962  1.00  0.00     0.082 C 
HETATM   15  C   UNL     1       5.842  28.702  56.681  1.00  0.00     0.048 C 
ENDBRANCH   3   6
ENDBRANCH   2   3
BRANCH   2  16
HETATM   16  C   UNL     1       9.605  30.029  58.364  1.00  0.00     0.135 C 
BRANCH  16  17
HETATM   17  C   UNL     1       9.085  31.195  59.181  1.00  0.00     0.224 C 
HETATM   18  N   UNL     1       8.227  30.802  60.188  1.00  0.00    -0.327 N 
HETATM   19  H   UNL     1       7.913  29.840  60.203  1.00  0.00     0.169 HD
HETATM   20  O   UNL     1       9.423  32.339  58.898  1.00  0.00    -0.273 OA
BRANCH  18  21
HETATM   21  C   UNL     1       7.707  31.614  61.220  1.00  0.00     0.034 A 
HETATM   22  C   UNL     1       6.499  32.304  61.137  1.00  0.00     0.032 A 
HETATM   23  C   UNL     1       6.078  33.118  62.194  1.00  0.00     0.039 A 
HETATM   24  C   UNL     1       6.847  33.250  63.350  1.00  0.00     0.068 A 
HETATM   25  C   UNL     1       8.056  32.565  63.438  1.00  0.00     0.039 A 
HETATM   26  C   UNL     1       8.483  31.754  62.379  1.00  0.00     0.032 A 
BRANCH  24  27
HETATM   27  O   UNL     1       6.317  34.076  64.300  1.00  0.00    -0.356 OA
HETATM   28  C   UNL     1       5.159  33.615  64.985  1.00  0.00     0.210 C 
ENDBRANCH  24  27
ENDBRANCH  18  21
ENDBRANCH  16  17
ENDBRANCH   2  16
TORSDOF 6
ENDMDL
MODEL 8
REMARK VINA RESULT:      -8.0      2.042      2.951
REMARK  6 active torsions:
REMARK  status: ('A' for Active; 'I' for Inactive)
REMARK    1  A    between atoms: C_2  and  N_3 
REMARK    2  A    between atoms: C_2  and  C_16 
REMARK    3  A    between atoms: N_3  and  C_6 
REMARK    4  A    between atoms: C_16  and  C_17 
REMARK       I    between atoms: C_17  and  N_18 
REMARK    5  A    between atoms: N_18  and  C_19 
REMARK    6  A    between atoms: C_22  and  O_23 
ROOT
HETATM    1  C   UNL     1       5.231  27.974  53.551  1.00  0.00     0.040 C 
HETATM    2  C   UNL     1       5.417  27.855  55.061  1.00  0.00     0.191 C 
ENDROOT
BRANCH   2   3
HETATM    3  N   UNL     1       5.598  26.395  55.466  1.00  0.00    -0.063 N 
HETATM    4  H   UNL     1       5.013  26.209  56.287  1.00  0.00     0.278 HD
HETATM    5  H   UNL     1       5.201  25.817  54.713  1.00  0.00     0.278 HD
BRANCH   3   6
HETATM    6  C   UNL     1       6.989  25.822  55.743  1.00  0.00     0.221 C 
HETATM    7  C   UNL     1       7.433  24.755  54.762  1.00  0.00    -0.011 A 
HETATM    8  C   UNL     1       8.053  23.564  55.181  1.00  0.00     0.009 A 
HETATM    9  C   UNL     1       7.278  24.971  53.374  1.00  0.00     0.011 A 
HETATM   10  C   UNL     1       8.401  22.586  54.238  1.00  0.00     0.019 A 
HETATM   11  S   UNL     1       8.452  23.201  56.879  1.00  0.00    -0.129 SA
HETATM   12  C   UNL     1       8.185  22.794  52.878  1.00  0.00     0.001 A 
HETATM   13  C   UNL     1       7.639  23.994  52.445  1.00  0.00     0.001 A 
HETATM   14  C   UNL     1       8.434  24.868  57.578  1.00  0.00     0.082 C 
HETATM   15  C   UNL     1       7.101  25.508  57.240  1.00  0.00     0.048 C 
ENDBRANCH   3   6
ENDBRANCH   2   3
BRANCH   2  16
HETATM   16  C   UNL     1       6.668  28.621  55.529  1.00  0.00     0.135 C 
BRANCH  16  17
HETATM   17  C   UNL     1       6.484  29.106  56.953  1.00  0.00     0.224 C 
HETATM   18  N   UNL     1       7.496  29.950  57.366  1.00  0.00    -0.327 N 
HETATM   19  H   UNL     1       8.310  30.049  56.772  1.00  0.00     0.169 HD
HETATM   20  O   UNL     1       5.522  28.725  57.609  1.00  0.00    -0.273 OA
BRANCH  18  21
HETATM   21  C   UNL     1       7.536  30.699  58.562  1.00  0.00     0.034 A 
HETATM   22  C   UNL     1       8.418  30.446  59.611  1.00  0.00     0.032 A 
HETATM   23  C   UNL     1       8.364  31.215  60.778  1.00  0.00     0.039 A 
HETATM   24  C   UNL     1       7.438  32.250  60.915  1.00  0.00     0.068 A 
HETATM   25  C   UNL     1       6.553  32.506  59.871  1.00  0.00     0.039 A 
HETATM   26  C   UNL     1       6.601  31.733  58.703  1.00  0.00     0.032 A 
BRANCH  24  27
HETATM   27  O   UNL     1       7.495  32.917  62.105  1.00  0.00    -0.356 OA
HETATM   28  C   UNL     1       7.969  32.191  63.232  1.00  0.00     0.210 C 
ENDBRANCH  24  27
ENDBRANCH  18  21
ENDBRANCH  16  17
ENDBRANCH   2  16
TORSDOF 6
ENDMDL
MODEL 9
REMARK VINA RESULT:      -7.7      5.034      8.893
REMARK  6 active torsions:
REMARK  status: ('A' for Active; 'I' for Inactive)
REMARK    1  A    between atoms: C_2  and  N_3 
REMARK    2  A    between atoms: C_2  and  C_16 
REMARK    3  A    between atoms: N_3  and  C_6 
REMARK    4  A    between atoms: C_16  and  C_17 
REMARK       I    between atoms: C_17  and  N_18 
REMARK    5  A    between atoms: N_18  and  C_19 
REMARK    6  A    between atoms: C_22  and  O_23 
ROOT
HETATM    1  C   UNL     1       4.063  28.979  51.623  1.00  0.00     0.040 C 
HETATM    2  C   UNL     1       4.805  27.689  51.284  1.00  0.00     0.191 C 
ENDROOT
BRANCH   2   3
HETATM    3  N   UNL     1       5.485  27.803  49.923  1.00  0.00    -0.063 N 
HETATM    4  H   UNL     1       5.767  28.779  49.780  1.00  0.00     0.278 HD
HETATM    5  H   UNL     1       6.364  27.271  49.975  1.00  0.00     0.278 HD
BRANCH   3   6
HETATM    6  C   UNL     1       4.783  27.327  48.650  1.00  0.00     0.221 C 
HETATM    7  C   UNL     1       4.067  28.421  47.884  1.00  0.00    -0.011 A 
HETATM    8  C   UNL     1       2.773  28.244  47.358  1.00  0.00     0.009 A 
HETATM    9  C   UNL     1       4.724  29.646  47.632  1.00  0.00     0.011 A 
HETATM   10  C   UNL     1       2.134  29.304  46.700  1.00  0.00     0.019 A 
HETATM   11  S   UNL     1       1.864  26.715  47.463  1.00  0.00    -0.129 SA
HETATM   12  C   UNL     1       2.778  30.524  46.514  1.00  0.00     0.001 A 
HETATM   13  C   UNL     1       4.081  30.690  46.966  1.00  0.00     0.001 A 
HETATM   14  C   UNL     1       3.217  25.556  47.768  1.00  0.00     0.082 C 
HETATM   15  C   UNL     1       4.000  26.048  48.971  1.00  0.00     0.048 C 
ENDBRANCH   3   6
ENDBRANCH   2   3
BRANCH   2  16
HETATM   16  C   UNL     1       5.901  27.390  52.323  1.00  0.00     0.135 C 
BRANCH  16  17
HETATM   17  C   UNL     1       5.796  25.953  52.797  1.00  0.00     0.224 C 
HETATM   18  N   UNL     1       7.028  25.359  52.980  1.00  0.00    -0.327 N 
HETATM   19  H   UNL     1       7.852  25.851  52.655  1.00  0.00     0.169 HD
HETATM   20  O   UNL     1       4.694  25.442  52.957  1.00  0.00    -0.273 OA
BRANCH  18  21
HETATM   21  C   UNL     1       7.280  24.101  53.568  1.00  0.00     0.034 A 
HETATM   22  C   UNL     1       7.167  23.841  54.933  1.00  0.00     0.032 A 
HETATM   23  C   UNL     1       7.474  22.573  55.438  1.00  0.00     0.039 A 
HETATM   24  C   UNL     1       7.889  21.545  54.592  1.00  0.00     0.068 A 
HETATM   25  C   UNL     1       8.007  21.798  53.227  1.00  0.00     0.039 A 
HETATM   26  C   UNL     1       7.706  23.069  52.721  1.00  0.00     0.032 A 
BRANCH  24  27
HETATM   27  O   UNL     1       8.157  20.360  55.217  1.00  0.00    -0.356 OA
HETATM   28  C   UNL     1       9.298  20.319  56.065  1.00  0.00     0.210 C 
ENDBRANCH  24  27
ENDBRANCH  18  21
ENDBRANCH  16  17
ENDBRANCH   2  16
TORSDOF 6
ENDMDL
MODEL 10
REMARK VINA RESULT:      -7.6      3.662      6.460
REMARK  6 active torsions:
REMARK  status: ('A' for Active; 'I' for Inactive)
REMARK    1  A    between atoms: C_2  and  N_3 
REMARK    2  A    between atoms: C_2  and  C_16 
REMARK    3  A    between atoms: N_3  and  C_6 
REMARK    4  A    between atoms: C_16  and  C_17 
REMARK       I    between atoms: C_17  and  N_18 
REMARK    5  A    between atoms: N_18  and  C_19 
REMARK    6  A    between atoms: C_22  and  O_23 
ROOT
HETATM    1  C   UNL     1       4.692  24.451  52.365  1.00  0.00     0.040 C 
HETATM    2  C   UNL     1       5.265  25.352  53.456  1.00  0.00     0.191 C 
ENDROOT
BRANCH   2   3
HETATM    3  N   UNL     1       6.766  25.543  53.260  1.00  0.00    -0.063 N 
HETATM    4  H   UNL     1       7.013  25.234  52.314  1.00  0.00     0.278 HD
HETATM    5  H   UNL     1       6.950  26.556  53.272  1.00  0.00     0.278 HD
BRANCH   3   6
HETATM    6  C   UNL     1       7.771  24.924  54.232  1.00  0.00     0.221 C 
HETATM    7  C   UNL     1       7.849  23.412  54.174  1.00  0.00    -0.011 A 
HETATM    8  C   UNL     1       7.889  22.618  55.335  1.00  0.00     0.009 A 
HETATM    9  C   UNL     1       7.940  22.762  52.922  1.00  0.00     0.011 A 
HETATM   10  C   UNL     1       7.910  21.220  55.228  1.00  0.00     0.019 A 
HETATM   11  S   UNL     1       7.928  23.285  56.987  1.00  0.00    -0.129 SA
HETATM   12  C   UNL     1       7.940  20.598  53.983  1.00  0.00     0.001 A 
HETATM   13  C   UNL     1       7.971  21.370  52.829  1.00  0.00     0.001 A 
HETATM   14  C   UNL     1       8.509  24.962  56.645  1.00  0.00     0.082 C 
HETATM   15  C   UNL     1       7.590  25.579  55.608  1.00  0.00     0.048 C 
ENDBRANCH   3   6
ENDBRANCH   2   3
BRANCH   2  16
HETATM   16  C   UNL     1       4.615  26.748  53.420  1.00  0.00     0.135 C 
BRANCH  16  17
HETATM   17  C   UNL     1       5.116  27.530  52.222  1.00  0.00     0.224 C 
HETATM   18  N   UNL     1       4.316  27.370  51.108  1.00  0.00    -0.327 N 
HETATM   19  H   UNL     1       3.589  26.667  51.136  1.00  0.00     0.169 HD
HETATM   20  O   UNL     1       6.144  28.191  52.309  1.00  0.00    -0.273 OA
BRANCH  18  21
HETATM   21  C   UNL     1       4.408  28.085  49.893  1.00  0.00     0.034 A 
HETATM   22  C   UNL     1       4.917  27.550  48.711  1.00  0.00     0.032 A 
HETATM   23  C   UNL     1       5.007  28.342  47.561  1.00  0.00     0.039 A 
HETATM   24  C   UNL     1       4.585  29.671  47.569  1.00  0.00     0.068 A 
HETATM   25  C   UNL     1       4.077  30.211  48.747  1.00  0.00     0.039 A 
HETATM   26  C   UNL     1       3.992  29.423  49.902  1.00  0.00     0.032 A 
BRANCH  24  27
HETATM   27  O   UNL     1       4.731  30.326  46.379  1.00  0.00    -0.356 OA
HETATM   28  C   UNL     1       3.640  31.128  45.944  1.00  0.00     0.210 C 
ENDBRANCH  24  27
ENDBRANCH  18  21
ENDBRANCH  16  17
ENDBRANCH   2  16
TORSDOF 6
ENDMDL
