MODEL 1
REMARK VINA RESULT:      -8.5      0.000      0.000
REMARK  4 active torsions:
REMARK  status: ('A' for Active; 'I' for Inactive)
REMARK    1  A    between atoms: C_5  and  C_6 
REMARK    2  A    between atoms: C_6  and  N_7 
REMARK       I    between atoms: N_7  and  C_8 
REMARK       I    between atoms: C_8  and  N_9 
REMARK    3  A    between atoms: N_9  and  C_10 
REMARK    4  A    between atoms: C_11  and  C_12 
ROOT
HETATM    1  N   UNL     1       6.959  24.831  57.432  1.00  0.00    -0.339 N 
HETATM    2  C   UNL     1       5.908  25.491  56.859  1.00  0.00     0.321 C 
HETATM    3  N   UNL     1       6.250  26.424  55.923  1.00  0.00    -0.305 N 
HETATM    4  O   UNL     1       4.774  25.221  57.237  1.00  0.00    -0.247 OA
HETATM    5  H   UNL     1       6.634  24.119  58.075  1.00  0.00     0.164 HD
HETATM    6  H   UNL     1       7.154  26.841  56.058  1.00  0.00     0.171 HD
ENDROOT
BRANCH   1   7
HETATM    7  C   UNL     1       8.252  24.592  56.824  1.00  0.00     0.162 C 
BRANCH   7   8
HETATM    8  C   UNL     1       8.195  23.503  55.787  1.00  0.00    -0.040 A 
HETATM    9  C   UNL     1       8.286  23.812  54.424  1.00  0.00     0.009 A 
HETATM   10  C   UNL     1       8.287  22.796  53.463  1.00  0.00     0.007 A 
HETATM   11  C   UNL     1       8.205  21.454  53.848  1.00  0.00    -0.062 A 
HETATM   12  C   UNL     1       8.213  20.355  52.828  1.00  0.00     0.048 C 
HETATM   13  C   UNL     1       8.110  21.142  55.209  1.00  0.00     0.007 A 
HETATM   14  C   UNL     1       8.109  22.157  56.170  1.00  0.00     0.009 A 
ENDBRANCH   7   8
ENDBRANCH   1   7
BRANCH   3  15
HETATM   15  C   UNL     1       5.385  27.102  55.073  1.00  0.00     0.095 A 
HETATM   16  C   UNL     1       5.033  26.693  53.794  1.00  0.00     0.112 A 
HETATM   17  O   UNL     1       4.153  27.596  53.273  1.00  0.00    -0.215 OA
HETATM   18  N   UNL     1       3.895  28.588  54.183  1.00  0.00    -0.131 NA
HETATM   19  C   UNL     1       4.619  28.294  55.270  1.00  0.00     0.087 A 
HETATM   20  C   UNL     1       4.481  29.173  56.455  1.00  0.00     0.075 C 
BRANCH  16  21
HETATM   21  C   UNL     1       5.454  25.493  52.951  1.00  0.00     0.048 A 
HETATM   22  C   UNL     1       5.037  25.369  51.503  1.00  0.00     0.012 A 
HETATM   23  C   UNL     1       6.469  25.627  51.838  1.00  0.00     0.012 A 
ENDBRANCH  16  21
ENDBRANCH   3  15
TORSDOF 4
ENDMDL
MODEL 2
REMARK VINA RESULT:      -8.2      4.415      6.204
REMARK  4 active torsions:
REMARK  status: ('A' for Active; 'I' for Inactive)
REMARK    1  A    between atoms: C_5  and  C_6 
REMARK    2  A    between atoms: C_6  and  N_7 
REMARK       I    between atoms: N_7  and  C_8 
REMARK       I    between atoms: C_8  and  N_9 
REMARK    3  A    between atoms: N_9  and  C_10 
REMARK    4  A    between atoms: C_11  and  C_12 
ROOT
HETATM    1  N   UNL     1       6.794  27.461  57.399  1.00  0.00    -0.339 N 
HETATM    2  C   UNL     1       7.174  28.772  57.455  1.00  0.00     0.321 C 
HETATM    3  N   UNL     1       8.133  29.059  58.383  1.00  0.00    -0.305 N 
HETATM    4  O   UNL     1       6.622  29.571  56.707  1.00  0.00    -0.247 OA
HETATM    5  H   UNL     1       6.122  27.307  56.657  1.00  0.00     0.164 HD
HETATM    6  H   UNL     1       8.138  28.451  59.183  1.00  0.00     0.171 HD
ENDROOT
BRANCH   1   7
HETATM    7  C   UNL     1       7.610  26.319  57.760  1.00  0.00     0.162 C 
BRANCH   7   8
HETATM    8  C   UNL     1       7.772  25.357  56.614  1.00  0.00    -0.040 A 
HETATM    9  C   UNL     1       8.595  24.231  56.741  1.00  0.00     0.009 A 
HETATM   10  C   UNL     1       8.704  23.309  55.695  1.00  0.00     0.007 A 
HETATM   11  C   UNL     1       7.989  23.493  54.508  1.00  0.00    -0.062 A 
HETATM   12  C   UNL     1       8.092  22.507  53.383  1.00  0.00     0.048 C 
HETATM   13  C   UNL     1       7.169  24.619  54.377  1.00  0.00     0.007 A 
HETATM   14  C   UNL     1       7.058  25.541  55.421  1.00  0.00     0.009 A 
ENDBRANCH   7   8
ENDBRANCH   1   7
BRANCH   3  15
HETATM   15  C   UNL     1       8.815  30.261  58.526  1.00  0.00     0.095 A 
HETATM   16  C   UNL     1       8.438  31.302  59.364  1.00  0.00     0.112 A 
HETATM   17  O   UNL     1       9.355  32.305  59.255  1.00  0.00    -0.215 OA
HETATM   18  N   UNL     1      10.347  31.950  58.377  1.00  0.00    -0.131 NA
HETATM   19  C   UNL     1      10.038  30.721  57.945  1.00  0.00     0.087 A 
HETATM   20  C   UNL     1      10.986  30.051  57.024  1.00  0.00     0.075 C 
BRANCH  16  21
HETATM   21  C   UNL     1       7.248  31.481  60.302  1.00  0.00     0.048 A 
HETATM   22  C   UNL     1       7.025  32.780  61.043  1.00  0.00     0.012 A 
HETATM   23  C   UNL     1       6.091  32.388  59.945  1.00  0.00     0.012 A 
ENDBRANCH  16  21
ENDBRANCH   3  15
TORSDOF 4
ENDMDL
MODEL 3
REMARK VINA RESULT:      -7.9      0.771      2.766
REMARK  4 active torsions:
REMARK  status: ('A' for Active; 'I' for Inactive)
REMARK    1  A    between atoms: C_5  and  C_6 
REMARK    2  A    between atoms: C_6  and  N_7 
REMARK       I    between atoms: N_7  and  C_8 
REMARK       I    between atoms: C_8  and  N_9 
REMARK    3  A    between atoms: N_9  and  C_10 
REMARK    4  A    between atoms: C_11  and  C_12 
ROOT
HETATM    1  N   UNL     1       7.045  24.828  57.441  1.00  0.00    -0.339 N 
HETATM    2  C   UNL     1       6.013  25.449  56.795  1.00  0.00     0.321 C 
HETATM    3  N   UNL     1       6.384  26.294  55.788  1.00  0.00    -0.305 N 
HETATM    4  O   UNL     1       4.869  25.228  57.174  1.00  0.00    -0.247 OA
HETATM    5  H   UNL     1       6.699  24.179  58.137  1.00  0.00     0.164 HD
HETATM    6  H   UNL     1       7.291  26.710  55.902  1.00  0.00     0.171 HD
ENDROOT
BRANCH   1   7
HETATM    7  C   UNL     1       8.344  24.522  56.879  1.00  0.00     0.162 C 
BRANCH   7   8
HETATM    8  C   UNL     1       8.264  23.450  55.825  1.00  0.00    -0.040 A 
HETATM    9  C   UNL     1       8.291  23.785  54.465  1.00  0.00     0.009 A 
HETATM   10  C   UNL     1       8.271  22.786  53.487  1.00  0.00     0.007 A 
HETATM   11  C   UNL     1       8.230  21.437  53.850  1.00  0.00    -0.062 A 
HETATM   12  C   UNL     1       8.217  20.356  52.810  1.00  0.00     0.048 C 
HETATM   13  C   UNL     1       8.200  21.099  55.208  1.00  0.00     0.007 A 
HETATM   14  C   UNL     1       8.221  22.096  56.186  1.00  0.00     0.009 A 
ENDBRANCH   7   8
ENDBRANCH   1   7
BRANCH   3  15
HETATM   15  C   UNL     1       5.543  26.908  54.868  1.00  0.00     0.095 A 
HETATM   16  C   UNL     1       5.152  28.239  54.903  1.00  0.00     0.112 A 
HETATM   17  O   UNL     1       4.344  28.486  53.832  1.00  0.00    -0.215 OA
HETATM   18  N   UNL     1       4.203  27.354  53.071  1.00  0.00    -0.131 NA
HETATM   19  C   UNL     1       4.928  26.406  53.678  1.00  0.00     0.087 A 
HETATM   20  C   UNL     1       5.015  25.077  53.028  1.00  0.00     0.075 C 
BRANCH  16  21
HETATM   21  C   UNL     1       5.455  29.369  55.883  1.00  0.00     0.048 A 
HETATM   22  C   UNL     1       4.355  30.260  56.414  1.00  0.00     0.012 A 
HETATM   23  C   UNL     1       5.029  29.294  57.332  1.00  0.00     0.012 A 
ENDBRANCH  16  21
ENDBRANCH   3  15
TORSDOF 4
ENDMDL
MODEL 4
REMARK VINA RESULT:      -7.8      3.216      4.231
REMARK  4 active torsions:
REMARK  status: ('A' for Active; 'I' for Inactive)
REMARK    1  A    between atoms: C_5  and  C_6 
REMARK    2  A    between atoms: C_6  and  N_7 
REMARK       I    between atoms: N_7  and  C_8 
REMARK       I    between atoms: C_8  and  N_9 
REMARK    3  A    between atoms: N_9  and  C_10 
REMARK    4  A    between atoms: C_11  and  C_12 
ROOT
HETATM    1  N   UNL     1       6.589  26.312  55.211  1.00  0.00    -0.339 N 
HETATM    2  C   UNL     1       6.494  27.640  55.519  1.00  0.00     0.321 C 
HETATM    3  N   UNL     1       6.758  27.953  56.822  1.00  0.00    -0.305 N 
HETATM    4  O   UNL     1       6.165  28.422  54.635  1.00  0.00    -0.247 OA
HETATM    5  H   UNL     1       6.435  26.156  54.222  1.00  0.00     0.164 HD
HETATM    6  H   UNL     1       6.555  27.221  57.479  1.00  0.00     0.171 HD
ENDROOT
BRANCH   1   7
HETATM    7  C   UNL     1       7.423  25.336  55.883  1.00  0.00     0.162 C 
BRANCH   7   8
HETATM    8  C   UNL     1       7.582  24.078  55.074  1.00  0.00    -0.040 A 
HETATM    9  C   UNL     1       7.730  24.140  53.682  1.00  0.00     0.009 A 
HETATM   10  C   UNL     1       7.932  22.975  52.936  1.00  0.00     0.007 A 
HETATM   11  C   UNL     1       7.996  21.729  53.567  1.00  0.00    -0.062 A 
HETATM   12  C   UNL     1       8.220  20.474  52.778  1.00  0.00     0.048 C 
HETATM   13  C   UNL     1       7.845  21.663  54.957  1.00  0.00     0.007 A 
HETATM   14  C   UNL     1       7.644  22.827  55.703  1.00  0.00     0.009 A 
ENDBRANCH   7   8
ENDBRANCH   1   7
BRANCH   3  15
HETATM   15  C   UNL     1       6.903  29.228  57.355  1.00  0.00     0.095 A 
HETATM   16  C   UNL     1       8.114  29.855  57.614  1.00  0.00     0.112 A 
HETATM   17  O   UNL     1       7.864  31.099  58.114  1.00  0.00    -0.215 OA
HETATM   18  N   UNL     1       6.513  31.324  58.177  1.00  0.00    -0.131 NA
HETATM   19  C   UNL     1       5.929  30.213  57.713  1.00  0.00     0.087 A 
HETATM   20  C   UNL     1       4.452  30.200  57.601  1.00  0.00     0.075 C 
BRANCH  16  21
HETATM   21  C   UNL     1       9.560  29.397  57.447  1.00  0.00     0.048 A 
HETATM   22  C   UNL     1      10.341  29.713  56.191  1.00  0.00     0.012 A 
HETATM   23  C   UNL     1      10.709  30.380  57.476  1.00  0.00     0.012 A 
ENDBRANCH  16  21
ENDBRANCH   3  15
TORSDOF 4
ENDMDL
MODEL 5
REMARK VINA RESULT:      -7.8      6.988     10.398
REMARK  4 active torsions:
REMARK  status: ('A' for Active; 'I' for Inactive)
REMARK    1  A    between atoms: C_5  and  C_6 
REMARK    2  A    between atoms: C_6  and  N_7 
REMARK       I    between atoms: N_7  and  C_8 
REMARK       I    between atoms: C_8  and  N_9 
REMARK    3  A    between atoms: N_9  and  C_10 
REMARK    4  A    between atoms: C_11  and  C_12 
ROOT
HETATM    1  N   UNL     1       9.260  31.851  61.380  1.00  0.00    -0.339 N 
HETATM    2  C   UNL     1       8.971  31.764  60.047  1.00  0.00     0.321 C 
HETATM    3  N   UNL     1       8.087  30.780  59.709  1.00  0.00    -0.305 N 
HETATM    4  O   UNL     1       9.530  32.537  59.278  1.00  0.00    -0.247 OA
HETATM    5  H   UNL     1       9.877  32.631  61.569  1.00  0.00     0.164 HD
HETATM    6  H   UNL     1       8.088  29.986  60.323  1.00  0.00     0.171 HD
ENDROOT
BRANCH   1   7
HETATM    7  C   UNL     1       8.393  31.451  62.470  1.00  0.00     0.162 C 
BRANCH   7   8
HETATM    8  C   UNL     1       7.551  32.594  62.968  1.00  0.00    -0.040 A 
HETATM    9  C   UNL     1       7.626  33.005  64.306  1.00  0.00     0.009 A 
HETATM   10  C   UNL     1       6.884  34.100  64.756  1.00  0.00     0.007 A 
HETATM   11  C   UNL     1       6.059  34.809  63.878  1.00  0.00    -0.062 A 
HETATM   12  C   UNL     1       5.265  35.991  64.347  1.00  0.00     0.048 C 
HETATM   13  C   UNL     1       5.979  34.400  62.541  1.00  0.00     0.007 A 
HETATM   14  C   UNL     1       6.720  33.305  62.090  1.00  0.00     0.009 A 
ENDBRANCH   7   8
ENDBRANCH   1   7
BRANCH   3  15
HETATM   15  C   UNL     1       7.494  30.590  58.466  1.00  0.00     0.095 A 
HETATM   16  C   UNL     1       8.073  29.922  57.396  1.00  0.00     0.112 A 
HETATM   17  O   UNL     1       7.191  29.918  56.355  1.00  0.00    -0.215 OA
HETATM   18  N   UNL     1       6.029  30.550  56.713  1.00  0.00    -0.131 NA
HETATM   19  C   UNL     1       6.196  30.945  57.981  1.00  0.00     0.087 A 
HETATM   20  C   UNL     1       5.056  31.605  58.658  1.00  0.00     0.075 C 
BRANCH  16  21
HETATM   21  C   UNL     1       9.436  29.259  57.219  1.00  0.00     0.048 A 
HETATM   22  C   UNL     1      10.240  29.449  55.953  1.00  0.00     0.012 A 
HETATM   23  C   UNL     1      10.714  30.067  57.228  1.00  0.00     0.012 A 
ENDBRANCH  16  21
ENDBRANCH   3  15
TORSDOF 4
ENDMDL
MODEL 6
REMARK VINA RESULT:      -7.5      3.460      5.032
REMARK  4 active torsions:
REMARK  status: ('A' for Active; 'I' for Inactive)
REMARK    1  A    between atoms: C_5  and  C_6 
REMARK    2  A    between atoms: C_6  and  N_7 
REMARK       I    between atoms: N_7  and  C_8 
REMARK       I    between atoms: C_8  and  N_9 
REMARK    3  A    between atoms: N_9  and  C_10 
REMARK    4  A    between atoms: C_11  and  C_12 
ROOT
HETATM    1  N   UNL     1       6.326  25.876  52.506  1.00  0.00    -0.339 N 
HETATM    2  C   UNL     1       5.488  26.676  51.780  1.00  0.00     0.321 C 
HETATM    3  N   UNL     1       5.723  26.691  50.435  1.00  0.00    -0.305 N 
HETATM    4  O   UNL     1       4.633  27.319  52.377  1.00  0.00    -0.247 OA
HETATM    5  H   UNL     1       6.065  25.869  53.485  1.00  0.00     0.164 HD
HETATM    6  H   UNL     1       6.676  26.513  50.173  1.00  0.00     0.171 HD
ENDROOT
BRANCH   1   7
HETATM    7  C   UNL     1       7.007  24.692  52.024  1.00  0.00     0.162 C 
BRANCH   7   8
HETATM    8  C   UNL     1       7.268  23.703  53.127  1.00  0.00    -0.040 A 
HETATM    9  C   UNL     1       7.903  22.484  52.856  1.00  0.00     0.009 A 
HETATM   10  C   UNL     1       8.194  21.589  53.889  1.00  0.00     0.007 A 
HETATM   11  C   UNL     1       7.863  21.898  55.212  1.00  0.00    -0.062 A 
HETATM   12  C   UNL     1       8.177  20.949  56.330  1.00  0.00     0.048 C 
HETATM   13  C   UNL     1       7.225  23.113  55.486  1.00  0.00     0.007 A 
HETATM   14  C   UNL     1       6.935  24.009  54.454  1.00  0.00     0.009 A 
ENDBRANCH   7   8
ENDBRANCH   1   7
BRANCH   3  15
HETATM   15  C   UNL     1       4.921  27.272  49.460  1.00  0.00     0.095 A 
HETATM   16  C   UNL     1       4.975  28.602  49.066  1.00  0.00     0.112 A 
HETATM   17  O   UNL     1       4.056  28.802  48.077  1.00  0.00    -0.215 OA
HETATM   18  N   UNL     1       3.404  27.631  47.789  1.00  0.00    -0.131 NA
HETATM   19  C   UNL     1       3.924  26.706  48.604  1.00  0.00     0.087 A 
HETATM   20  C   UNL     1       3.448  25.310  48.463  1.00  0.00     0.075 C 
BRANCH  16  21
HETATM   21  C   UNL     1       5.826  29.776  49.539  1.00  0.00     0.048 A 
HETATM   22  C   UNL     1       5.460  31.200  49.187  1.00  0.00     0.012 A 
HETATM   23  C   UNL     1       5.332  30.734  50.600  1.00  0.00     0.012 A 
ENDBRANCH  16  21
ENDBRANCH   3  15
TORSDOF 4
ENDMDL
MODEL 7
REMARK VINA RESULT:      -7.5      2.844      4.347
REMARK  4 active torsions:
REMARK  status: ('A' for Active; 'I' for Inactive)
REMARK    1  A    between atoms: C_5  and  C_6 
REMARK    2  A    between atoms: C_6  and  N_7 
REMARK       I    between atoms: N_7  and  C_8 
REMARK       I    between atoms: C_8  and  N_9 
REMARK    3  A    between atoms: N_9  and  C_10 
REMARK    4  A    between atoms: C_11  and  C_12 
ROOT
HETATM    1  N   UNL     1       7.416  26.478  54.833  1.00  0.00    -0.339 N 
HETATM    2  C   UNL     1       7.534  27.778  55.237  1.00  0.00     0.321 C 
HETATM    3  N   UNL     1       6.996  28.056  56.461  1.00  0.00    -0.305 N 
HETATM    4  O   UNL     1       8.073  28.577  54.481  1.00  0.00    -0.247 OA
HETATM    5  H   UNL     1       7.880  26.329  53.945  1.00  0.00     0.164 HD
HETATM    6  H   UNL     1       6.227  27.465  56.726  1.00  0.00     0.171 HD
ENDROOT
BRANCH   1   7
HETATM    7  C   UNL     1       7.319  25.320  55.699  1.00  0.00     0.162 C 
BRANCH   7   8
HETATM    8  C   UNL     1       7.529  24.034  54.946  1.00  0.00    -0.040 A 
HETATM    9  C   UNL     1       7.721  24.045  53.558  1.00  0.00     0.009 A 
HETATM   10  C   UNL     1       7.970  22.856  52.866  1.00  0.00     0.007 A 
HETATM   11  C   UNL     1       8.038  21.638  53.547  1.00  0.00    -0.062 A 
HETATM   12  C   UNL     1       8.312  20.357  52.817  1.00  0.00     0.048 C 
HETATM   13  C   UNL     1       7.843  21.623  54.933  1.00  0.00     0.007 A 
HETATM   14  C   UNL     1       7.595  22.810  55.626  1.00  0.00     0.009 A 
ENDBRANCH   7   8
ENDBRANCH   1   7
BRANCH   3  15
HETATM   15  C   UNL     1       7.131  29.239  57.177  1.00  0.00     0.095 A 
HETATM   16  C   UNL     1       6.080  30.022  57.637  1.00  0.00     0.112 A 
HETATM   17  O   UNL     1       6.594  31.090  58.311  1.00  0.00    -0.215 OA
HETATM   18  N   UNL     1       7.964  31.028  58.330  1.00  0.00    -0.131 NA
HETATM   19  C   UNL     1       8.294  29.915  57.663  1.00  0.00     0.087 A 
HETATM   20  C   UNL     1       9.729  29.554  57.583  1.00  0.00     0.075 C 
BRANCH  16  21
HETATM   21  C   UNL     1       4.567  29.884  57.502  1.00  0.00     0.048 A 
HETATM   22  C   UNL     1       3.657  31.084  57.641  1.00  0.00     0.012 A 
HETATM   23  C   UNL     1       3.826  30.437  56.305  1.00  0.00     0.012 A 
ENDBRANCH  16  21
ENDBRANCH   3  15
TORSDOF 4
ENDMDL
MODEL 8
REMARK VINA RESULT:      -7.4      1.753      2.049
REMARK  4 active torsions:
REMARK  status: ('A' for Active; 'I' for Inactive)
REMARK    1  A    between atoms: C_5  and  C_6 
REMARK    2  A    between atoms: C_6  and  N_7 
REMARK       I    between atoms: N_7  and  C_8 
REMARK       I    between atoms: C_8  and  N_9 
REMARK    3  A    between atoms: N_9  and  C_10 
REMARK    4  A    between atoms: C_11  and  C_12 
ROOT
HETATM    1  N   UNL     1       7.511  26.199  55.436  1.00  0.00    -0.339 N 
HETATM    2  C   UNL     1       7.009  27.321  54.839  1.00  0.00     0.321 C 
HETATM    3  N   UNL     1       5.882  27.126  54.094  1.00  0.00    -0.305 N 
HETATM    4  O   UNL     1       7.607  28.380  54.993  1.00  0.00    -0.247 OA
HETATM    5  H   UNL     1       8.313  26.421  56.014  1.00  0.00     0.164 HD
HETATM    6  H   UNL     1       5.795  26.207  53.697  1.00  0.00     0.171 HD
ENDROOT
BRANCH   1   7
HETATM    7  C   UNL     1       6.753  25.028  55.828  1.00  0.00     0.162 C 
BRANCH   7   8
HETATM    8  C   UNL     1       7.153  23.808  55.043  1.00  0.00    -0.040 A 
HETATM    9  C   UNL     1       7.246  23.860  53.646  1.00  0.00     0.009 A 
HETATM   10  C   UNL     1       7.670  22.743  52.920  1.00  0.00     0.007 A 
HETATM   11  C   UNL     1       8.014  21.557  53.577  1.00  0.00    -0.062 A 
HETATM   12  C   UNL     1       8.477  20.355  52.810  1.00  0.00     0.048 C 
HETATM   13  C   UNL     1       7.918  21.501  54.972  1.00  0.00     0.007 A 
HETATM   14  C   UNL     1       7.496  22.617  55.699  1.00  0.00     0.009 A 
ENDBRANCH   7   8
ENDBRANCH   1   7
BRANCH   3  15
HETATM   15  C   UNL     1       5.079  28.112  53.533  1.00  0.00     0.095 A 
HETATM   16  C   UNL     1       4.867  28.296  52.174  1.00  0.00     0.112 A 
HETATM   17  O   UNL     1       4.009  29.342  52.003  1.00  0.00    -0.215 OA
HETATM   18  N   UNL     1       3.627  29.848  53.218  1.00  0.00    -0.131 NA
HETATM   19  C   UNL     1       4.254  29.109  54.142  1.00  0.00     0.087 A 
HETATM   20  C   UNL     1       3.969  29.393  55.568  1.00  0.00     0.075 C 
BRANCH  16  21
HETATM   21  C   UNL     1       5.412  27.572  50.946  1.00  0.00     0.048 A 
HETATM   22  C   UNL     1       5.351  26.065  50.834  1.00  0.00     0.012 A 
HETATM   23  C   UNL     1       4.492  26.906  49.948  1.00  0.00     0.012 A 
ENDBRANCH  16  21
ENDBRANCH   3  15
TORSDOF 4
ENDMDL
MODEL 9
REMARK VINA RESULT:      -7.4      3.577      5.013
REMARK  4 active torsions:
REMARK  status: ('A' for Active; 'I' for Inactive)
REMARK    1  A    between atoms: C_5  and  C_6 
REMARK    2  A    between atoms: C_6  and  N_7 
REMARK       I    between atoms: N_7  and  C_8 
REMARK       I    between atoms: C_8  and  N_9 
REMARK    3  A    between atoms: N_9  and  C_10 
REMARK    4  A    between atoms: C_11  and  C_12 
ROOT
HETATM    1  N   UNL     1       5.782  26.406  52.275  1.00  0.00    -0.339 N 
HETATM    2  C   UNL     1       5.190  27.349  51.482  1.00  0.00     0.321 C 
HETATM    3  N   UNL     1       5.795  27.555  50.276  1.00  0.00    -0.305 N 
HETATM    4  O   UNL     1       4.206  27.938  51.913  1.00  0.00    -0.247 OA
HETATM    5  H   UNL     1       5.255  26.265  53.128  1.00  0.00     0.164 HD
HETATM    6  H   UNL     1       6.782  27.369  50.264  1.00  0.00     0.171 HD
ENDROOT
BRANCH   1   7
HETATM    7  C   UNL     1       6.563  25.274  51.818  1.00  0.00     0.162 C 
BRANCH   7   8
HETATM    8  C   UNL     1       6.980  24.382  52.955  1.00  0.00    -0.040 A 
HETATM    9  C   UNL     1       7.877  23.327  52.741  1.00  0.00     0.009 A 
HETATM   10  C   UNL     1       8.307  22.531  53.807  1.00  0.00     0.007 A 
HETATM   11  C   UNL     1       7.854  22.779  55.106  1.00  0.00    -0.062 A 
HETATM   12  C   UNL     1       8.314  21.937  56.259  1.00  0.00     0.048 C 
HETATM   13  C   UNL     1       6.955  23.829  55.323  1.00  0.00     0.007 A 
HETATM   14  C   UNL     1       6.526  24.626  54.259  1.00  0.00     0.009 A 
ENDBRANCH   7   8
ENDBRANCH   1   7
BRANCH   3  15
HETATM   15  C   UNL     1       5.305  28.318  49.222  1.00  0.00     0.095 A 
HETATM   16  C   UNL     1       4.658  27.815  48.102  1.00  0.00     0.112 A 
HETATM   17  O   UNL     1       4.306  28.857  47.297  1.00  0.00    -0.215 OA
HETATM   18  N   UNL     1       4.684  30.047  47.863  1.00  0.00    -0.131 NA
HETATM   19  C   UNL     1       5.274  29.734  49.024  1.00  0.00     0.087 A 
HETATM   20  C   UNL     1       5.728  30.845  49.893  1.00  0.00     0.075 C 
BRANCH  16  21
HETATM   21  C   UNL     1       4.321  26.391  47.668  1.00  0.00     0.048 A 
HETATM   22  C   UNL     1       3.422  25.510  48.505  1.00  0.00     0.012 A 
HETATM   23  C   UNL     1       2.936  26.019  47.188  1.00  0.00     0.012 A 
ENDBRANCH  16  21
ENDBRANCH   3  15
TORSDOF 4
ENDMDL
MODEL 10
REMARK VINA RESULT:      -7.3      2.629      6.302
REMARK  4 active torsions:
REMARK  status: ('A' for Active; 'I' for Inactive)
REMARK    1  A    between atoms: C_5  and  C_6 
REMARK    2  A    between atoms: C_6  and  N_7 
REMARK       I    between atoms: N_7  and  C_8 
REMARK       I    between atoms: C_8  and  N_9 
REMARK    3  A    between atoms: N_9  and  C_10 
REMARK    4  A    between atoms: C_11  and  C_12 
ROOT
HETATM    1  N   UNL     1       7.083  24.962  57.496  1.00  0.00    -0.339 N 
HETATM    2  C   UNL     1       7.849  24.136  56.723  1.00  0.00     0.321 C 
HETATM    3  N   UNL     1       7.150  23.281  55.919  1.00  0.00    -0.305 N 
HETATM    4  O   UNL     1       9.068  24.205  56.827  1.00  0.00    -0.247 OA
HETATM    5  H   UNL     1       7.660  25.604  58.026  1.00  0.00     0.164 HD
HETATM    6  H   UNL     1       6.244  23.023  56.268  1.00  0.00     0.171 HD
ENDROOT
BRANCH   1   7
HETATM    7  C   UNL     1       5.744  25.422  57.188  1.00  0.00     0.162 C 
BRANCH   7   8
HETATM    8  C   UNL     1       5.703  26.904  56.931  1.00  0.00    -0.040 A 
HETATM    9  C   UNL     1       4.605  27.485  56.282  1.00  0.00     0.009 A 
HETATM   10  C   UNL     1       4.541  28.868  56.091  1.00  0.00     0.007 A 
HETATM   11  C   UNL     1       5.569  29.696  56.551  1.00  0.00    -0.062 A 
HETATM   12  C   UNL     1       5.509  31.183  56.360  1.00  0.00     0.048 C 
HETATM   13  C   UNL     1       6.669  29.120  57.197  1.00  0.00     0.007 A 
HETATM   14  C   UNL     1       6.733  27.738  57.389  1.00  0.00     0.009 A 
ENDBRANCH   7   8
ENDBRANCH   1   7
BRANCH   3  15
HETATM   15  C   UNL     1       7.673  22.470  54.919  1.00  0.00     0.095 A 
HETATM   16  C   UNL     1       7.658  22.761  53.562  1.00  0.00     0.112 A 
HETATM   17  O   UNL     1       8.275  21.746  52.891  1.00  0.00    -0.215 OA
HETATM   18  N   UNL     1       8.720  20.794  53.771  1.00  0.00    -0.131 NA
HETATM   19  C   UNL     1       8.374  21.225  54.991  1.00  0.00     0.087 A 
HETATM   20  C   UNL     1       8.794  20.415  56.158  1.00  0.00     0.075 C 
BRANCH  16  21
HETATM   21  C   UNL     1       7.093  23.939  52.774  1.00  0.00     0.048 A 
HETATM   22  C   UNL     1       7.223  25.356  53.285  1.00  0.00     0.012 A 
HETATM   23  C   UNL     1       7.998  24.932  52.080  1.00  0.00     0.012 A 
ENDBRANCH  16  21
ENDBRANCH   3  15
TORSDOF 4
ENDMDL
