MODEL 1
REMARK VINA RESULT:      -9.0      0.000      0.000
REMARK  6 active torsions:
REMARK  status: ('A' for Active; 'I' for Inactive)
REMARK    1  A    between atoms: C_2  and  N_3 
REMARK    2  A    between atoms: C_5  and  C_6 
REMARK    3  A    between atoms: C_6  and  N_7 
REMARK       I    between atoms: N_7  and  C_8 
REMARK    4  A    between atoms: C_8  and  C_9 
REMARK    5  A    between atoms: C_9  and  C_10 
REMARK    6  A    between atoms: C_11  and  C_12 
ROOT
HETATM    1  C   UNL     1       7.374  26.375  56.122  1.00  0.00     0.005 C 
HETATM    2  C   UNL     1       7.776  25.048  56.292  1.00  0.00     0.069 C 
HETATM    3  N   UNL     1       8.204  24.971  57.594  1.00  0.00    -0.277 N 
HETATM    4  H   UNL     1       8.656  24.190  58.060  1.00  0.00     0.189 HD
HETATM    5  N   UNL     1       7.935  26.063  58.314  1.00  0.00    -0.179 NA
HETATM    6  C   UNL     1       7.583  26.974  57.403  1.00  0.00     0.059 C 
HETATM    7  C   UNL     1       7.443  28.394  57.825  1.00  0.00     0.073 C 
ENDROOT
BRANCH   1   8
HETATM    8  C   UNL     1       6.876  27.035  54.868  1.00  0.00     0.146 C 
BRANCH   8   9
HETATM    9  C   UNL     1       5.365  27.113  54.781  1.00  0.00     0.222 C 
HETATM   10  N   UNL     1       4.689  26.611  53.705  1.00  0.00    -0.359 N 
HETATM   11  H   UNL     1       3.706  26.861  53.786  1.00  0.00     0.162 HD
HETATM   12  O   UNL     1       4.687  27.595  55.688  1.00  0.00    -0.273 OA
BRANCH  10  13
HETATM   13  C   UNL     1       5.173  26.254  52.378  1.00  0.00     0.155 C 
BRANCH  13  14
HETATM   14  C   UNL     1       5.379  27.439  51.432  1.00  0.00     0.206 C 
HETATM   15  N   UNL     1       5.466  27.113  49.947  1.00  0.00    -0.066 N 
HETATM   16  H   UNL     1       6.379  26.664  49.766  1.00  0.00     0.280 HD
HETATM   17  C   UNL     1       5.494  28.507  49.343  1.00  0.00     0.235 C 
HETATM   18  C   UNL     1       4.507  29.307  50.188  1.00  0.00     0.030 C 
HETATM   19  C   UNL     1       4.325  28.533  51.491  1.00  0.00     0.036 C 
BRANCH  15  20
HETATM   20  C   UNL     1       4.376  26.266  49.321  1.00  0.00     0.231 C 
HETATM   21  C   UNL     1       4.357  26.388  47.810  1.00  0.00     0.034 C 
ENDBRANCH  15  20
ENDBRANCH  13  14
ENDBRANCH  10  13
ENDBRANCH   8   9
ENDBRANCH   1   8
BRANCH   2  22
HETATM   22  C   UNL     1       7.849  23.896  55.391  1.00  0.00    -0.007 A 
HETATM   23  C   UNL     1       7.799  22.586  55.883  1.00  0.00     0.015 A 
HETATM   24  C   UNL     1       7.908  21.494  55.016  1.00  0.00     0.024 A 
HETATM   25  C   UNL     1       8.056  21.705  53.648  1.00  0.00     0.034 A 
HETATM   26 CL   UNL     1       8.203  20.364  52.584  1.00  0.00    -0.084 Cl
HETATM   27  C   UNL     1       8.086  22.999  53.138  1.00  0.00     0.024 A 
HETATM   28  C   UNL     1       7.982  24.091  54.006  1.00  0.00     0.015 A 
ENDBRANCH   2  22
TORSDOF 6
ENDMDL
MODEL 2
REMARK VINA RESULT:      -8.8      2.891      6.522
REMARK  6 active torsions:
REMARK  status: ('A' for Active; 'I' for Inactive)
REMARK    1  A    between atoms: C_2  and  N_3 
REMARK    2  A    between atoms: C_5  and  C_6 
REMARK    3  A    between atoms: C_6  and  N_7 
REMARK       I    between atoms: N_7  and  C_8 
REMARK    4  A    between atoms: C_8  and  C_9 
REMARK    5  A    between atoms: C_9  and  C_10 
REMARK    6  A    between atoms: C_11  and  C_12 
ROOT
HETATM    1  C   UNL     1       6.461  27.576  54.866  1.00  0.00     0.005 C 
HETATM    2  C   UNL     1       6.044  26.367  54.303  1.00  0.00     0.069 C 
HETATM    3  N   UNL     1       4.726  26.566  53.973  1.00  0.00    -0.277 N 
HETATM    4  H   UNL     1       4.058  25.884  53.625  1.00  0.00     0.189 HD
HETATM    5  N   UNL     1       4.326  27.833  54.096  1.00  0.00    -0.179 NA
HETATM    6  C   UNL     1       5.309  28.419  54.785  1.00  0.00     0.059 C 
HETATM    7  C   UNL     1       5.093  29.791  55.319  1.00  0.00     0.073 C 
ENDROOT
BRANCH   1   8
HETATM    8  C   UNL     1       7.800  27.903  55.464  1.00  0.00     0.146 C 
BRANCH   8   9
HETATM    9  C   UNL     1       7.942  27.467  56.909  1.00  0.00     0.222 C 
HETATM   10  N   UNL     1       7.605  28.300  57.938  1.00  0.00    -0.359 N 
HETATM   11  H   UNL     1       7.878  27.867  58.817  1.00  0.00     0.162 HD
HETATM   12  O   UNL     1       8.330  26.339  57.212  1.00  0.00    -0.273 OA
BRANCH  10  13
HETATM   13  C   UNL     1       7.401  29.743  57.946  1.00  0.00     0.155 C 
BRANCH  13  14
HETATM   14  C   UNL     1       7.945  30.459  59.184  1.00  0.00     0.206 C 
HETATM   15  N   UNL     1       9.457  30.608  59.271  1.00  0.00    -0.066 N 
HETATM   16  H   UNL     1       9.863  29.682  59.488  1.00  0.00     0.280 HD
HETATM   17  C   UNL     1       9.595  31.488  60.502  1.00  0.00     0.235 C 
HETATM   18  C   UNL     1       8.446  32.485  60.386  1.00  0.00     0.030 C 
HETATM   19  C   UNL     1       7.438  31.874  59.414  1.00  0.00     0.036 C 
BRANCH  15  20
HETATM   20  C   UNL     1      10.202  31.197  58.089  1.00  0.00     0.231 C 
HETATM   21  C   UNL     1      10.957  30.140  57.307  1.00  0.00     0.034 C 
ENDBRANCH  15  20
ENDBRANCH  13  14
ENDBRANCH  10  13
ENDBRANCH   8   9
ENDBRANCH   1   8
BRANCH   2  22
HETATM   22  C   UNL     1       6.702  25.077  54.090  1.00  0.00    -0.007 A 
HETATM   23  C   UNL     1       6.752  24.112  55.104  1.00  0.00     0.015 A 
HETATM   24  C   UNL     1       7.418  22.898  54.902  1.00  0.00     0.024 A 
HETATM   25  C   UNL     1       8.029  22.637  53.679  1.00  0.00     0.034 A 
HETATM   26 CL   UNL     1       8.858  21.152  53.435  1.00  0.00    -0.084 Cl
HETATM   27  C   UNL     1       7.972  23.575  52.652  1.00  0.00     0.024 A 
HETATM   28  C   UNL     1       7.311  24.789  52.857  1.00  0.00     0.015 A 
ENDBRANCH   2  22
TORSDOF 6
ENDMDL
MODEL 3
REMARK VINA RESULT:      -8.7      1.262      1.571
REMARK  6 active torsions:
REMARK  status: ('A' for Active; 'I' for Inactive)
REMARK    1  A    between atoms: C_2  and  N_3 
REMARK    2  A    between atoms: C_5  and  C_6 
REMARK    3  A    between atoms: C_6  and  N_7 
REMARK       I    between atoms: N_7  and  C_8 
REMARK    4  A    between atoms: C_8  and  C_9 
REMARK    5  A    between atoms: C_9  and  C_10 
REMARK    6  A    between atoms: C_11  and  C_12 
ROOT
HETATM    1  C   UNL     1       7.011  26.484  56.022  1.00  0.00     0.005 C 
HETATM    2  C   UNL     1       7.647  25.250  56.179  1.00  0.00     0.069 C 
HETATM    3  N   UNL     1       8.278  25.328  57.396  1.00  0.00    -0.277 N 
HETATM    4  H   UNL     1       8.918  24.660  57.813  1.00  0.00     0.189 HD
HETATM    5  N   UNL     1       7.949  26.412  58.103  1.00  0.00    -0.179 NA
HETATM    6  C   UNL     1       7.316  27.194  57.226  1.00  0.00     0.059 C 
HETATM    7  C   UNL     1       7.013  28.600  57.605  1.00  0.00     0.073 C 
ENDROOT
BRANCH   1   8
HETATM    8  C   UNL     1       6.224  26.974  54.840  1.00  0.00     0.146 C 
BRANCH   8   9
HETATM    9  C   UNL     1       6.979  27.967  53.978  1.00  0.00     0.222 C 
HETATM   10  N   UNL     1       6.321  28.835  53.154  1.00  0.00    -0.359 N 
HETATM   11  H   UNL     1       7.003  29.333  52.585  1.00  0.00     0.162 HD
HETATM   12  O   UNL     1       8.206  28.057  54.013  1.00  0.00    -0.273 OA
BRANCH  10  13
HETATM   13  C   UNL     1       4.949  28.805  52.665  1.00  0.00     0.155 C 
BRANCH  13  14
HETATM   14  C   UNL     1       4.805  28.959  51.149  1.00  0.00     0.206 C 
HETATM   15  N   UNL     1       5.373  27.832  50.297  1.00  0.00    -0.066 N 
HETATM   16  H   UNL     1       6.404  27.896  50.320  1.00  0.00     0.280 HD
HETATM   17  C   UNL     1       4.902  28.246  48.913  1.00  0.00     0.235 C 
HETATM   18  C   UNL     1       3.493  28.787  49.137  1.00  0.00     0.030 C 
HETATM   19  C   UNL     1       3.387  29.117  50.625  1.00  0.00     0.036 C 
BRANCH  15  20
HETATM   20  C   UNL     1       4.968  26.406  50.610  1.00  0.00     0.231 C 
HETATM   21  C   UNL     1       6.072  25.642  51.316  1.00  0.00     0.034 C 
ENDBRANCH  15  20
ENDBRANCH  13  14
ENDBRANCH  10  13
ENDBRANCH   8   9
ENDBRANCH   1   8
BRANCH   2  22
HETATM   22  C   UNL     1       7.766  24.066  55.327  1.00  0.00    -0.007 A 
HETATM   23  C   UNL     1       7.631  22.776  55.855  1.00  0.00     0.015 A 
HETATM   24  C   UNL     1       7.786  21.650  55.038  1.00  0.00     0.024 A 
HETATM   25  C   UNL     1       8.065  21.809  53.684  1.00  0.00     0.034 A 
HETATM   26 CL   UNL     1       8.267  20.427  52.683  1.00  0.00    -0.084 Cl
HETATM   27  C   UNL     1       8.181  23.082  53.136  1.00  0.00     0.024 A 
HETATM   28  C   UNL     1       8.032  24.207  53.954  1.00  0.00     0.015 A 
ENDBRANCH   2  22
TORSDOF 6
ENDMDL
MODEL 4
REMARK VINA RESULT:      -8.4      5.322      8.700
REMARK  6 active torsions:
REMARK  status: ('A' for Active; 'I' for Inactive)
REMARK    1  A    between atoms: C_2  and  N_3 
REMARK    2  A    between atoms: C_5  and  C_6 
REMARK    3  A    between atoms: C_6  and  N_7 
REMARK       I    between atoms: N_7  and  C_8 
REMARK    4  A    between atoms: C_8  and  C_9 
REMARK    5  A    between atoms: C_9  and  C_10 
REMARK    6  A    between atoms: C_11  and  C_12 
ROOT
HETATM    1  C   UNL     1       8.804  30.479  58.453  1.00  0.00     0.005 C 
HETATM    2  C   UNL     1       9.090  31.435  59.430  1.00  0.00     0.069 C 
HETATM    3  N   UNL     1      10.326  31.928  59.094  1.00  0.00    -0.277 N 
HETATM    4  H   UNL     1      10.907  32.574  59.620  1.00  0.00     0.189 HD
HETATM    5  N   UNL     1      10.762  31.517  57.901  1.00  0.00    -0.179 NA
HETATM    6  C   UNL     1       9.934  30.521  57.577  1.00  0.00     0.059 C 
HETATM    7  C   UNL     1      10.266  29.661  56.409  1.00  0.00     0.073 C 
ENDROOT
BRANCH   1   8
HETATM    8  C   UNL     1       7.605  29.578  58.364  1.00  0.00     0.146 C 
BRANCH   8   9
HETATM    9  C   UNL     1       6.523  30.098  57.438  1.00  0.00     0.222 C 
HETATM   10  N   UNL     1       6.177  29.423  56.301  1.00  0.00    -0.359 N 
HETATM   11  H   UNL     1       5.520  29.989  55.768  1.00  0.00     0.162 HD
HETATM   12  O   UNL     1       5.891  31.123  57.689  1.00  0.00    -0.273 OA
BRANCH  10  13
HETATM   13  C   UNL     1       6.891  28.380  55.578  1.00  0.00     0.155 C 
BRANCH  13  14
HETATM   14  C   UNL     1       6.283  26.981  55.705  1.00  0.00     0.206 C 
HETATM   15  N   UNL     1       7.252  25.845  55.998  1.00  0.00    -0.066 N 
HETATM   16  H   UNL     1       7.798  25.653  55.141  1.00  0.00     0.280 HD
HETATM   17  C   UNL     1       6.291  24.688  56.217  1.00  0.00     0.235 C 
HETATM   18  C   UNL     1       5.127  25.304  56.989  1.00  0.00     0.030 C 
HETATM   19  C   UNL     1       5.210  26.813  56.769  1.00  0.00     0.036 C 
BRANCH  15  20
HETATM   20  C   UNL     1       8.213  25.987  57.162  1.00  0.00     0.231 C 
HETATM   21  C   UNL     1       8.854  24.664  57.536  1.00  0.00     0.034 C 
ENDBRANCH  15  20
ENDBRANCH  13  14
ENDBRANCH  10  13
ENDBRANCH   8   9
ENDBRANCH   1   8
BRANCH   2  22
HETATM   22  C   UNL     1       8.383  31.888  60.629  1.00  0.00    -0.007 A 
HETATM   23  C   UNL     1       8.941  31.730  61.904  1.00  0.00     0.015 A 
HETATM   24  C   UNL     1       8.239  32.133  63.045  1.00  0.00     0.024 A 
HETATM   25  C   UNL     1       6.978  32.707  62.918  1.00  0.00     0.034 A 
HETATM   26 CL   UNL     1       6.109  33.189  64.320  1.00  0.00    -0.084 Cl
HETATM   27  C   UNL     1       6.415  32.892  61.659  1.00  0.00     0.024 A 
HETATM   28  C   UNL     1       7.115  32.485  60.519  1.00  0.00     0.015 A 
ENDBRANCH   2  22
TORSDOF 6
ENDMDL
MODEL 5
REMARK VINA RESULT:      -8.4      5.118      8.439
REMARK  6 active torsions:
REMARK  status: ('A' for Active; 'I' for Inactive)
REMARK    1  A    between atoms: C_2  and  N_3 
REMARK    2  A    between atoms: C_5  and  C_6 
REMARK    3  A    between atoms: C_6  and  N_7 
REMARK       I    between atoms: N_7  and  C_8 
REMARK    4  A    between atoms: C_8  and  C_9 
REMARK    5  A    between atoms: C_9  and  C_10 
REMARK    6  A    between atoms: C_11  and  C_12 
ROOT
HETATM    1  C   UNL     1       8.900  30.240  58.465  1.00  0.00     0.005 C 
HETATM    2  C   UNL     1       9.062  31.281  59.384  1.00  0.00     0.069 C 
HETATM    3  N   UNL     1      10.212  31.922  58.994  1.00  0.00    -0.277 N 
HETATM    4  H   UNL     1      10.704  32.671  59.472  1.00  0.00     0.189 HD
HETATM    5  N   UNL     1      10.685  31.509  57.816  1.00  0.00    -0.179 NA
HETATM    6  C   UNL     1      10.000  30.390  57.564  1.00  0.00     0.059 C 
HETATM    7  C   UNL     1      10.434  29.520  56.438  1.00  0.00     0.073 C 
ENDROOT
BRANCH   1   8
HETATM    8  C   UNL     1       7.838  29.178  58.452  1.00  0.00     0.146 C 
BRANCH   8   9
HETATM    9  C   UNL     1       6.702  29.468  57.490  1.00  0.00     0.222 C 
HETATM   10  N   UNL     1       6.471  28.672  56.404  1.00  0.00    -0.359 N 
HETATM   11  H   UNL     1       5.745  29.097  55.832  1.00  0.00     0.162 HD
HETATM   12  O   UNL     1       5.924  30.404  57.669  1.00  0.00    -0.273 OA
BRANCH  10  13
HETATM   13  C   UNL     1       7.338  27.698  55.756  1.00  0.00     0.155 C 
BRANCH  13  14
HETATM   14  C   UNL     1       7.107  26.248  56.188  1.00  0.00     0.206 C 
HETATM   15  N   UNL     1       6.877  25.237  55.073  1.00  0.00    -0.066 N 
HETATM   16  H   UNL     1       5.932  25.392  54.685  1.00  0.00     0.280 HD
HETATM   17  C   UNL     1       6.861  23.935  55.857  1.00  0.00     0.235 C 
HETATM   18  C   UNL     1       7.954  24.111  56.908  1.00  0.00     0.030 C 
HETATM   19  C   UNL     1       8.212  25.612  57.017  1.00  0.00     0.036 C 
BRANCH  15  20
HETATM   20  C   UNL     1       7.868  25.176  53.928  1.00  0.00     0.231 C 
HETATM   21  C   UNL     1       7.226  24.684  52.645  1.00  0.00     0.034 C 
ENDBRANCH  15  20
ENDBRANCH  13  14
ENDBRANCH  10  13
ENDBRANCH   8   9
ENDBRANCH   1   8
BRANCH   2  22
HETATM   22  C   UNL     1       8.316  31.698  60.572  1.00  0.00    -0.007 A 
HETATM   23  C   UNL     1       6.989  32.136  60.478  1.00  0.00     0.015 A 
HETATM   24  C   UNL     1       6.298  32.569  61.615  1.00  0.00     0.024 A 
HETATM   25  C   UNL     1       6.927  32.556  62.856  1.00  0.00     0.034 A 
HETATM   26 CL   UNL     1       6.084  33.100  64.251  1.00  0.00    -0.084 Cl
HETATM   27  C   UNL     1       8.238  32.104  62.973  1.00  0.00     0.024 A 
HETATM   28  C   UNL     1       8.929  31.676  61.836  1.00  0.00     0.015 A 
ENDBRANCH   2  22
TORSDOF 6
ENDMDL
MODEL 6
REMARK VINA RESULT:      -8.3      3.187      6.199
REMARK  6 active torsions:
REMARK  status: ('A' for Active; 'I' for Inactive)
REMARK    1  A    between atoms: C_2  and  N_3 
REMARK    2  A    between atoms: C_5  and  C_6 
REMARK    3  A    between atoms: C_6  and  N_7 
REMARK       I    between atoms: N_7  and  C_8 
REMARK    4  A    between atoms: C_8  and  C_9 
REMARK    5  A    between atoms: C_9  and  C_10 
REMARK    6  A    between atoms: C_11  and  C_12 
ROOT
HETATM    1  C   UNL     1       7.649  22.242  54.967  1.00  0.00     0.005 C 
HETATM    2  C   UNL     1       7.417  22.706  53.670  1.00  0.00     0.069 C 
HETATM    3  N   UNL     1       7.890  21.713  52.847  1.00  0.00    -0.277 N 
HETATM    4  H   UNL     1       7.979  21.728  51.836  1.00  0.00     0.189 HD
HETATM    5  N   UNL     1       8.222  20.593  53.493  1.00  0.00    -0.179 NA
HETATM    6  C   UNL     1       8.236  20.951  54.779  1.00  0.00     0.059 C 
HETATM    7  C   UNL     1       8.802  20.007  55.781  1.00  0.00     0.073 C 
ENDROOT
BRANCH   1   8
HETATM    8  C   UNL     1       7.386  22.953  56.263  1.00  0.00     0.146 C 
BRANCH   8   9
HETATM    9  C   UNL     1       8.420  24.011  56.595  1.00  0.00     0.222 C 
HETATM   10  N   UNL     1       8.072  25.165  57.239  1.00  0.00    -0.359 N 
HETATM   11  H   UNL     1       8.879  25.785  57.265  1.00  0.00     0.162 HD
HETATM   12  O   UNL     1       9.612  23.859  56.332  1.00  0.00    -0.273 OA
BRANCH  10  13
HETATM   13  C   UNL     1       6.763  25.776  57.424  1.00  0.00     0.155 C 
BRANCH  13  14
HETATM   14  C   UNL     1       6.489  26.988  56.531  1.00  0.00     0.206 C 
HETATM   15  N   UNL     1       6.522  28.351  57.209  1.00  0.00    -0.066 N 
HETATM   16  H   UNL     1       5.673  28.445  57.791  1.00  0.00     0.280 HD
HETATM   17  C   UNL     1       6.383  29.277  56.013  1.00  0.00     0.235 C 
HETATM   18  C   UNL     1       7.231  28.622  54.925  1.00  0.00     0.030 C 
HETATM   19  C   UNL     1       7.418  27.165  55.340  1.00  0.00     0.036 C 
BRANCH  15  20
HETATM   20  C   UNL     1       7.728  28.718  58.050  1.00  0.00     0.231 C 
HETATM   21  C   UNL     1       7.750  30.194  58.401  1.00  0.00     0.034 C 
ENDBRANCH  15  20
ENDBRANCH  13  14
ENDBRANCH  10  13
ENDBRANCH   8   9
ENDBRANCH   1   8
BRANCH   2  22
HETATM   22  C   UNL     1       6.865  23.951  53.132  1.00  0.00    -0.007 A 
HETATM   23  C   UNL     1       7.617  24.768  52.278  1.00  0.00     0.015 A 
HETATM   24  C   UNL     1       7.093  25.974  51.801  1.00  0.00     0.024 A 
HETATM   25  C   UNL     1       5.808  26.366  52.167  1.00  0.00     0.034 A 
HETATM   26 CL   UNL     1       5.170  27.854  51.592  1.00  0.00    -0.084 Cl
HETATM   27  C   UNL     1       5.038  25.557  52.997  1.00  0.00     0.024 A 
HETATM   28  C   UNL     1       5.564  24.354  53.477  1.00  0.00     0.015 A 
ENDBRANCH   2  22
TORSDOF 6
ENDMDL
MODEL 7
REMARK VINA RESULT:      -8.3      2.172      6.188
REMARK  6 active torsions:
REMARK  status: ('A' for Active; 'I' for Inactive)
REMARK    1  A    between atoms: C_2  and  N_3 
REMARK    2  A    between atoms: C_5  and  C_6 
REMARK    3  A    between atoms: C_6  and  N_7 
REMARK       I    between atoms: N_7  and  C_8 
REMARK    4  A    between atoms: C_8  and  C_9 
REMARK    5  A    between atoms: C_9  and  C_10 
REMARK    6  A    between atoms: C_11  and  C_12 
ROOT
HETATM    1  C   UNL     1       6.742  26.614  53.368  1.00  0.00     0.005 C 
HETATM    2  C   UNL     1       6.715  25.279  52.955  1.00  0.00     0.069 C 
HETATM    3  N   UNL     1       6.023  25.289  51.769  1.00  0.00    -0.277 N 
HETATM    4  H   UNL     1       5.720  24.494  51.214  1.00  0.00     0.189 HD
HETATM    5  N   UNL     1       5.777  26.515  51.300  1.00  0.00    -0.179 NA
HETATM    6  C   UNL     1       6.059  27.319  52.328  1.00  0.00     0.059 C 
HETATM    7  C   UNL     1       5.671  28.753  52.246  1.00  0.00     0.073 C 
ENDROOT
BRANCH   1   8
HETATM    8  C   UNL     1       7.315  27.176  54.638  1.00  0.00     0.146 C 
BRANCH   8   9
HETATM    9  C   UNL     1       6.290  27.352  55.741  1.00  0.00     0.222 C 
HETATM   10  N   UNL     1       6.619  27.945  56.927  1.00  0.00    -0.359 N 
HETATM   11  H   UNL     1       5.831  27.865  57.566  1.00  0.00     0.162 HD
HETATM   12  O   UNL     1       5.119  27.002  55.600  1.00  0.00    -0.273 OA
BRANCH  10  13
HETATM   13  C   UNL     1       7.926  28.197  57.517  1.00  0.00     0.155 C 
BRANCH  13  14
HETATM   14  C   UNL     1       7.973  29.379  58.488  1.00  0.00     0.206 C 
HETATM   15  N   UNL     1       9.316  30.082  58.635  1.00  0.00    -0.066 N 
HETATM   16  H   UNL     1       9.947  29.467  59.176  1.00  0.00     0.280 HD
HETATM   17  C   UNL     1       8.934  31.261  59.515  1.00  0.00     0.235 C 
HETATM   18  C   UNL     1       7.569  31.700  58.992  1.00  0.00     0.030 C 
HETATM   19  C   UNL     1       7.009  30.519  58.201  1.00  0.00     0.036 C 
BRANCH  15  20
HETATM   20  C   UNL     1      10.040  30.542  57.386  1.00  0.00     0.231 C 
HETATM   21  C   UNL     1      11.262  29.694  57.091  1.00  0.00     0.034 C 
ENDBRANCH  15  20
ENDBRANCH  13  14
ENDBRANCH  10  13
ENDBRANCH   8   9
ENDBRANCH   1   8
BRANCH   2  22
HETATM   22  C   UNL     1       7.205  24.034  53.547  1.00  0.00    -0.007 A 
HETATM   23  C   UNL     1       7.852  23.065  52.770  1.00  0.00     0.015 A 
HETATM   24  C   UNL     1       8.281  21.862  53.340  1.00  0.00     0.024 A 
HETATM   25  C   UNL     1       8.076  21.625  54.696  1.00  0.00     0.034 A 
HETATM   26 CL   UNL     1       8.591  20.141  55.394  1.00  0.00    -0.084 Cl
HETATM   27  C   UNL     1       7.454  22.583  55.490  1.00  0.00     0.024 A 
HETATM   28  C   UNL     1       7.021  23.783  54.918  1.00  0.00     0.015 A 
ENDBRANCH   2  22
TORSDOF 6
ENDMDL
MODEL 8
REMARK VINA RESULT:      -8.3      2.961      4.608
REMARK  6 active torsions:
REMARK  status: ('A' for Active; 'I' for Inactive)
REMARK    1  A    between atoms: C_2  and  N_3 
REMARK    2  A    between atoms: C_5  and  C_6 
REMARK    3  A    between atoms: C_6  and  N_7 
REMARK       I    between atoms: N_7  and  C_8 
REMARK    4  A    between atoms: C_8  and  C_9 
REMARK    5  A    between atoms: C_9  and  C_10 
REMARK    6  A    between atoms: C_11  and  C_12 
ROOT
HETATM    1  C   UNL     1       7.130  23.501  53.930  1.00  0.00     0.005 C 
HETATM    2  C   UNL     1       7.221  24.112  55.183  1.00  0.00     0.069 C 
HETATM    3  N   UNL     1       7.902  23.214  55.968  1.00  0.00    -0.277 N 
HETATM    4  H   UNL     1       8.080  23.263  56.966  1.00  0.00     0.189 HD
HETATM    5  N   UNL     1       8.414  22.186  55.287  1.00  0.00    -0.179 NA
HETATM    6  C   UNL     1       7.822  22.260  54.092  1.00  0.00     0.059 C 
HETATM    7  C   UNL     1       7.975  21.124  53.143  1.00  0.00     0.073 C 
ENDROOT
BRANCH   1   8
HETATM    8  C   UNL     1       6.428  24.010  52.703  1.00  0.00     0.146 C 
BRANCH   8   9
HETATM    9  C   UNL     1       7.158  25.145  52.013  1.00  0.00     0.222 C 
HETATM   10  N   UNL     1       6.480  26.099  51.307  1.00  0.00    -0.359 N 
HETATM   11  H   UNL     1       7.152  26.699  50.833  1.00  0.00     0.162 HD
HETATM   12  O   UNL     1       8.379  25.275  52.092  1.00  0.00    -0.273 OA
BRANCH  10  13
HETATM   13  C   UNL     1       5.120  26.088  50.785  1.00  0.00     0.155 C 
BRANCH  13  14
HETATM   14  C   UNL     1       4.859  27.089  49.658  1.00  0.00     0.206 C 
HETATM   15  N   UNL     1       4.464  26.503  48.310  1.00  0.00    -0.066 N 
HETATM   16  H   UNL     1       5.301  26.071  47.885  1.00  0.00     0.280 HD
HETATM   17  C   UNL     1       4.132  27.764  47.528  1.00  0.00     0.235 C 
HETATM   18  C   UNL     1       3.417  28.658  48.537  1.00  0.00     0.030 C 
HETATM   19  C   UNL     1       3.779  28.126  49.921  1.00  0.00     0.036 C 
BRANCH  15  20
HETATM   20  C   UNL     1       3.323  25.507  48.253  1.00  0.00     0.231 C 
HETATM   21  C   UNL     1       2.696  25.437  46.874  1.00  0.00     0.034 C 
ENDBRANCH  15  20
ENDBRANCH  13  14
ENDBRANCH  10  13
ENDBRANCH   8   9
ENDBRANCH   1   8
BRANCH   2  22
HETATM   22  C   UNL     1       6.716  25.375  55.724  1.00  0.00    -0.007 A 
HETATM   23  C   UNL     1       7.436  26.567  55.575  1.00  0.00     0.015 A 
HETATM   24  C   UNL     1       6.963  27.761  56.130  1.00  0.00     0.024 A 
HETATM   25  C   UNL     1       5.759  27.772  56.828  1.00  0.00     0.034 A 
HETATM   26 CL   UNL     1       5.184  29.236  57.521  1.00  0.00    -0.084 Cl
HETATM   27  C   UNL     1       5.019  26.603  56.969  1.00  0.00     0.024 A 
HETATM   28  C   UNL     1       5.495  25.409  56.418  1.00  0.00     0.015 A 
ENDBRANCH   2  22
TORSDOF 6
ENDMDL
MODEL 9
REMARK VINA RESULT:      -8.2      2.911      4.728
REMARK  6 active torsions:
REMARK  status: ('A' for Active; 'I' for Inactive)
REMARK    1  A    between atoms: C_2  and  N_3 
REMARK    2  A    between atoms: C_5  and  C_6 
REMARK    3  A    between atoms: C_6  and  N_7 
REMARK       I    between atoms: N_7  and  C_8 
REMARK    4  A    between atoms: C_8  and  C_9 
REMARK    5  A    between atoms: C_9  and  C_10 
REMARK    6  A    between atoms: C_11  and  C_12 
ROOT
HETATM    1  C   UNL     1       7.297  23.734  54.061  1.00  0.00     0.005 C 
HETATM    2  C   UNL     1       7.429  24.359  55.303  1.00  0.00     0.069 C 
HETATM    3  N   UNL     1       8.253  23.536  56.029  1.00  0.00    -0.277 N 
HETATM    4  H   UNL     1       8.505  23.609  57.010  1.00  0.00     0.189 HD
HETATM    5  N   UNL     1       8.803  22.555  55.309  1.00  0.00    -0.179 NA
HETATM    6  C   UNL     1       8.113  22.564  54.166  1.00  0.00     0.059 C 
HETATM    7  C   UNL     1       8.295  21.440  53.208  1.00  0.00     0.073 C 
ENDROOT
BRANCH   1   8
HETATM    8  C   UNL     1       6.453  24.165  52.895  1.00  0.00     0.146 C 
BRANCH   8   9
HETATM    9  C   UNL     1       7.129  25.187  52.002  1.00  0.00     0.222 C 
HETATM   10  N   UNL     1       6.403  26.009  51.188  1.00  0.00    -0.359 N 
HETATM   11  H   UNL     1       7.042  26.535  50.595  1.00  0.00     0.162 HD
HETATM   12  O   UNL     1       8.350  25.342  52.002  1.00  0.00    -0.273 OA
BRANCH  10  13
HETATM   13  C   UNL     1       5.022  25.900  50.739  1.00  0.00     0.155 C 
BRANCH  13  14
HETATM   14  C   UNL     1       4.450  27.173  50.111  1.00  0.00     0.206 C 
HETATM   15  N   UNL     1       3.766  28.148  51.060  1.00  0.00    -0.066 N 
HETATM   16  H   UNL     1       2.858  27.743  51.342  1.00  0.00     0.280 HD
HETATM   17  C   UNL     1       3.495  29.320  50.131  1.00  0.00     0.235 C 
HETATM   18  C   UNL     1       4.742  29.405  49.254  1.00  0.00     0.030 C 
HETATM   19  C   UNL     1       5.438  28.049  49.358  1.00  0.00     0.036 C 
BRANCH  15  20
HETATM   20  C   UNL     1       4.506  28.595  52.305  1.00  0.00     0.231 C 
HETATM   21  C   UNL     1       3.847  28.087  53.572  1.00  0.00     0.034 C 
ENDBRANCH  15  20
ENDBRANCH  13  14
ENDBRANCH  10  13
ENDBRANCH   8   9
ENDBRANCH   1   8
BRANCH   2  22
HETATM   22  C   UNL     1       6.854  25.574  55.883  1.00  0.00    -0.007 A 
HETATM   23  C   UNL     1       5.534  25.600  56.350  1.00  0.00     0.015 A 
HETATM   24  C   UNL     1       4.983  26.778  56.867  1.00  0.00     0.024 A 
HETATM   25  C   UNL     1       5.753  27.935  56.930  1.00  0.00     0.034 A 
HETATM   26 CL   UNL     1       5.072  29.385  57.552  1.00  0.00    -0.084 Cl
HETATM   27  C   UNL     1       7.073  27.924  56.490  1.00  0.00     0.024 A 
HETATM   28  C   UNL     1       7.622  26.748  55.970  1.00  0.00     0.015 A 
ENDBRANCH   2  22
TORSDOF 6
ENDMDL
MODEL 10
REMARK VINA RESULT:      -8.1      1.877      6.220
REMARK  6 active torsions:
REMARK  status: ('A' for Active; 'I' for Inactive)
REMARK    1  A    between atoms: C_2  and  N_3 
REMARK    2  A    between atoms: C_5  and  C_6 
REMARK    3  A    between atoms: C_6  and  N_7 
REMARK       I    between atoms: N_7  and  C_8 
REMARK    4  A    between atoms: C_8  and  C_9 
REMARK    5  A    between atoms: C_9  and  C_10 
REMARK    6  A    between atoms: C_11  and  C_12 
ROOT
HETATM    1  C   UNL     1       5.310  27.915  51.152  1.00  0.00     0.005 C 
HETATM    2  C   UNL     1       5.614  26.554  51.082  1.00  0.00     0.069 C 
HETATM    3  N   UNL     1       5.214  26.164  49.828  1.00  0.00    -0.277 N 
HETATM    4  H   UNL     1       5.188  25.225  49.442  1.00  0.00     0.189 HD
HETATM    5  N   UNL     1       4.864  27.181  49.036  1.00  0.00    -0.179 NA
HETATM    6  C   UNL     1       4.761  28.221  49.867  1.00  0.00     0.059 C 
HETATM    7  C   UNL     1       4.152  29.483  49.367  1.00  0.00     0.073 C 
ENDROOT
BRANCH   1   8
HETATM    8  C   UNL     1       5.477  28.840  52.324  1.00  0.00     0.146 C 
BRANCH   8   9
HETATM    9  C   UNL     1       4.395  28.687  53.376  1.00  0.00     0.222 C 
HETATM   10  N   UNL     1       4.662  28.882  54.701  1.00  0.00    -0.359 N 
HETATM   11  H   UNL     1       3.842  28.624  55.245  1.00  0.00     0.162 HD
HETATM   12  O   UNL     1       3.232  28.418  53.077  1.00  0.00    -0.273 OA
BRANCH  10  13
HETATM   13  C   UNL     1       5.937  28.919  55.404  1.00  0.00     0.155 C 
BRANCH  13  14
HETATM   14  C   UNL     1       6.491  27.547  55.798  1.00  0.00     0.206 C 
HETATM   15  N   UNL     1       7.850  27.536  56.483  1.00  0.00    -0.066 N 
HETATM   16  H   UNL     1       8.572  27.750  55.774  1.00  0.00     0.280 HD
HETATM   17  C   UNL     1       7.976  26.070  56.860  1.00  0.00     0.235 C 
HETATM   18  C   UNL     1       6.572  25.670  57.305  1.00  0.00     0.030 C 
HETATM   19  C   UNL     1       5.621  26.717  56.729  1.00  0.00     0.036 C 
BRANCH  15  20
HETATM   20  C   UNL     1       8.069  28.433  57.685  1.00  0.00     0.231 C 
HETATM   21  C   UNL     1       9.235  29.381  57.483  1.00  0.00     0.034 C 
ENDBRANCH  15  20
ENDBRANCH  13  14
ENDBRANCH  10  13
ENDBRANCH   8   9
ENDBRANCH   1   8
BRANCH   2  22
HETATM   22  C   UNL     1       6.174  25.598  52.040  1.00  0.00    -0.007 A 
HETATM   23  C   UNL     1       7.464  25.078  51.877  1.00  0.00     0.015 A 
HETATM   24  C   UNL     1       7.973  24.137  52.778  1.00  0.00     0.024 A 
HETATM   25  C   UNL     1       7.198  23.718  53.855  1.00  0.00     0.034 A 
HETATM   26 CL   UNL     1       7.818  22.552  54.955  1.00  0.00    -0.084 Cl
HETATM   27  C   UNL     1       5.923  24.239  54.047  1.00  0.00     0.024 A 
HETATM   28  C   UNL     1       5.413  25.176  53.143  1.00  0.00     0.015 A 
ENDBRANCH   2  22
TORSDOF 6
ENDMDL
