MODEL 1
REMARK VINA RESULT:      -8.9      0.000      0.000
REMARK  5 active torsions:
REMARK  status: ('A' for Active; 'I' for Inactive)
REMARK    1  A    between atoms: C_2  and  N_4 
REMARK    2  A    between atoms: N_4  and  C_5 
REMARK       I    between atoms: N_4  and  C_12 
REMARK    3  A    between atoms: C_5  and  C_6 
REMARK       I    between atoms: C_12  and  N_14 
REMARK    4  A    between atoms: N_14  and  C_15 
REMARK    5  A    between atoms: C_18  and  C_21 
ROOT
HETATM    1  N   UNL     1       6.532  26.421  53.093  1.00  0.00    -0.326 N 
HETATM    2  C   UNL     1       6.500  27.348  54.144  1.00  0.00     0.323 C 
HETATM    3  O   UNL     1       5.448  27.833  54.548  1.00  0.00    -0.247 OA
HETATM    4  N   UNL     1       7.740  27.668  54.657  1.00  0.00    -0.309 N 
HETATM    5  H   UNL     1       8.520  27.540  54.030  1.00  0.00     0.170 HD
ENDROOT
BRANCH   4   6
HETATM    6  C   UNL     1       8.017  28.403  55.827  1.00  0.00     0.036 A 
HETATM    7  C   UNL     1       7.299  28.270  57.014  1.00  0.00     0.030 A 
HETATM    8  C   UNL     1       7.645  29.024  58.144  1.00  0.00     0.014 A 
HETATM    9  C   UNL     1       8.720  29.920  58.110  1.00  0.00    -0.023 A 
HETATM   10  C   UNL     1       9.448  30.039  56.921  1.00  0.00     0.014 A 
HETATM   11  C   UNL     1       9.101  29.286  55.791  1.00  0.00     0.030 A 
BRANCH   9  12
HETATM   12  C   UNL     1       9.086  30.705  59.276  1.00  0.00     0.010 A 
HETATM   13  C   UNL     1       9.816  31.912  59.391  1.00  0.00     0.152 A 
HETATM   14  N   UNL     1       9.928  32.334  60.654  1.00  0.00    -0.187 NA
HETATM   15  N   UNL     1       9.269  31.399  61.355  1.00  0.00    -0.289 N 
HETATM   16  H   UNL     1       9.210  31.504  62.362  1.00  0.00     0.188 HD
HETATM   17  C   UNL     1       8.745  30.405  60.579  1.00  0.00     0.123 A 
ENDBRANCH   9  12
ENDBRANCH   4   6
BRANCH   1  18
HETATM   18  C   UNL     1       5.283  26.062  52.389  1.00  0.00     0.081 C 
HETATM   19  C   UNL     1       5.483  25.926  50.878  1.00  0.00     0.032 C 
HETATM   20  C   UNL     1       4.597  24.825  52.976  1.00  0.00     0.032 C 
ENDBRANCH   1  18
BRANCH   1  21
HETATM   21  C   UNL     1       7.711  25.602  52.789  1.00  0.00     0.166 C 
BRANCH  21  22
HETATM   22  C   UNL     1       7.758  24.256  53.483  1.00  0.00    -0.040 A 
HETATM   23  C   UNL     1       7.874  23.099  52.693  1.00  0.00     0.009 A 
HETATM   24  C   UNL     1       7.900  21.831  53.278  1.00  0.00     0.001 A 
HETATM   25  C   UNL     1       7.810  21.699  54.661  1.00  0.00     0.000 A 
HETATM   26  C   UNL     1       7.698  22.834  55.459  1.00  0.00     0.001 A 
HETATM   27  C   UNL     1       7.673  24.102  54.875  1.00  0.00     0.009 A 
ENDBRANCH  21  22
ENDBRANCH   1  21
TORSDOF 5
ENDMDL
MODEL 2
REMARK VINA RESULT:      -8.4      4.293      7.008
REMARK  5 active torsions:
REMARK  status: ('A' for Active; 'I' for Inactive)
REMARK    1  A    between atoms: C_2  and  N_4 
REMARK    2  A    between atoms: N_4  and  C_5 
REMARK       I    between atoms: N_4  and  C_12 
REMARK    3  A    between atoms: C_5  and  C_6 
REMARK       I    between atoms: C_12  and  N_14 
REMARK    4  A    between atoms: N_14  and  C_15 
REMARK    5  A    between atoms: C_18  and  C_21 
ROOT
HETATM    1  N   UNL     1       8.924  29.924  58.130  1.00  0.00    -0.326 N 
HETATM    2  C   UNL     1       8.796  30.937  59.091  1.00  0.00     0.323 C 
HETATM    3  O   UNL     1       9.324  32.036  58.947  1.00  0.00    -0.247 OA
HETATM    4  N   UNL     1       8.052  30.582  60.196  1.00  0.00    -0.309 N 
HETATM    5  H   UNL     1       8.009  29.595  60.397  1.00  0.00     0.170 HD
ENDROOT
BRANCH   4   6
HETATM    6  C   UNL     1       7.586  31.430  61.221  1.00  0.00     0.036 A 
HETATM    7  C   UNL     1       6.423  32.193  61.128  1.00  0.00     0.030 A 
HETATM    8  C   UNL     1       6.013  33.000  62.197  1.00  0.00     0.014 A 
HETATM    9  C   UNL     1       6.755  33.055  63.383  1.00  0.00    -0.023 A 
HETATM   10  C   UNL     1       7.913  32.275  63.479  1.00  0.00     0.014 A 
HETATM   11  C   UNL     1       8.323  31.469  62.409  1.00  0.00     0.030 A 
BRANCH   9  12
HETATM   12  C   UNL     1       6.337  33.889  64.497  1.00  0.00     0.010 A 
HETATM   13  C   UNL     1       5.333  34.882  64.588  1.00  0.00     0.152 A 
HETATM   14  N   UNL     1       5.242  35.420  65.808  1.00  0.00    -0.187 NA
HETATM   15  N   UNL     1       6.188  34.772  66.506  1.00  0.00    -0.289 N 
HETATM   16  H   UNL     1       6.311  35.009  67.484  1.00  0.00     0.188 HD
HETATM   17  C   UNL     1       6.869  33.846  65.770  1.00  0.00     0.123 A 
ENDBRANCH   9  12
ENDBRANCH   4   6
BRANCH   1  18
HETATM   18  C   UNL     1       9.774  30.139  56.941  1.00  0.00     0.081 C 
HETATM   19  C   UNL     1      11.258  29.901  57.234  1.00  0.00     0.032 C 
HETATM   20  C   UNL     1       9.310  29.343  55.719  1.00  0.00     0.032 C 
ENDBRANCH   1  18
BRANCH   1  21
HETATM   21  C   UNL     1       8.073  28.728  58.117  1.00  0.00     0.166 C 
BRANCH  21  22
HETATM   22  C   UNL     1       6.714  28.910  57.473  1.00  0.00    -0.040 A 
HETATM   23  C   UNL     1       6.054  27.775  56.973  1.00  0.00     0.009 A 
HETATM   24  C   UNL     1       4.808  27.886  56.350  1.00  0.00     0.001 A 
HETATM   25  C   UNL     1       4.204  29.133  56.217  1.00  0.00     0.000 A 
HETATM   26  C   UNL     1       4.842  30.267  56.709  1.00  0.00     0.001 A 
HETATM   27  C   UNL     1       6.086  30.157  57.333  1.00  0.00     0.009 A 
ENDBRANCH  21  22
ENDBRANCH   1  21
TORSDOF 5
ENDMDL
MODEL 3
REMARK VINA RESULT:      -8.4      4.741      7.533
REMARK  5 active torsions:
REMARK  status: ('A' for Active; 'I' for Inactive)
REMARK    1  A    between atoms: C_2  and  N_4 
REMARK    2  A    between atoms: N_4  and  C_5 
REMARK       I    between atoms: N_4  and  C_12 
REMARK    3  A    between atoms: C_5  and  C_6 
REMARK       I    between atoms: C_12  and  N_14 
REMARK    4  A    between atoms: N_14  and  C_15 
REMARK    5  A    between atoms: C_18  and  C_21 
ROOT
HETATM    1  N   UNL     1       5.146  28.547  51.925  1.00  0.00    -0.326 N 
HETATM    2  C   UNL     1       5.470  27.549  52.855  1.00  0.00     0.323 C 
HETATM    3  O   UNL     1       4.810  27.376  53.875  1.00  0.00    -0.247 OA
HETATM    4  N   UNL     1       6.587  26.809  52.528  1.00  0.00    -0.309 N 
HETATM    5  H   UNL     1       7.252  27.265  51.922  1.00  0.00     0.170 HD
ENDROOT
BRANCH   4   6
HETATM    6  C   UNL     1       7.041  25.628  53.149  1.00  0.00     0.036 A 
HETATM    7  C   UNL     1       7.357  25.536  54.504  1.00  0.00     0.030 A 
HETATM    8  C   UNL     1       7.786  24.321  55.053  1.00  0.00     0.014 A 
HETATM    9  C   UNL     1       7.902  23.173  54.261  1.00  0.00    -0.023 A 
HETATM   10  C   UNL     1       7.569  23.266  52.905  1.00  0.00     0.014 A 
HETATM   11  C   UNL     1       7.140  24.481  52.355  1.00  0.00     0.030 A 
BRANCH   9  12
HETATM   12  C   UNL     1       8.346  21.909  54.824  1.00  0.00     0.010 A 
HETATM   13  C   UNL     1       8.706  21.557  56.146  1.00  0.00     0.152 A 
HETATM   14  N   UNL     1       9.048  20.271  56.267  1.00  0.00    -0.187 NA
HETATM   15  N   UNL     1       8.906  19.792  55.022  1.00  0.00    -0.289 N 
HETATM   16  H   UNL     1       9.108  18.811  54.857  1.00  0.00     0.188 HD
HETATM   17  C   UNL     1       8.487  20.729  54.123  1.00  0.00     0.123 A 
ENDBRANCH   9  12
ENDBRANCH   4   6
BRANCH   1  18
HETATM   18  C   UNL     1       4.028  29.475  52.199  1.00  0.00     0.081 C 
HETATM   19  C   UNL     1       4.294  30.882  51.660  1.00  0.00     0.032 C 
HETATM   20  C   UNL     1       2.674  28.940  51.727  1.00  0.00     0.032 C 
ENDBRANCH   1  18
BRANCH   1  21
HETATM   21  C   UNL     1       5.710  28.587  50.571  1.00  0.00     0.166 C 
BRANCH  21  22
HETATM   22  C   UNL     1       4.891  27.882  49.510  1.00  0.00    -0.040 A 
HETATM   23  C   UNL     1       4.398  28.638  48.432  1.00  0.00     0.009 A 
HETATM   24  C   UNL     1       3.620  28.046  47.436  1.00  0.00     0.001 A 
HETATM   25  C   UNL     1       3.320  26.687  47.501  1.00  0.00     0.000 A 
HETATM   26  C   UNL     1       3.803  25.922  48.559  1.00  0.00     0.001 A 
HETATM   27  C   UNL     1       4.582  26.514  49.554  1.00  0.00     0.009 A 
ENDBRANCH  21  22
ENDBRANCH   1  21
TORSDOF 5
ENDMDL
MODEL 4
REMARK VINA RESULT:      -8.2      3.756      7.798
REMARK  5 active torsions:
REMARK  status: ('A' for Active; 'I' for Inactive)
REMARK    1  A    between atoms: C_2  and  N_4 
REMARK    2  A    between atoms: N_4  and  C_5 
REMARK       I    between atoms: N_4  and  C_12 
REMARK    3  A    between atoms: C_5  and  C_6 
REMARK       I    between atoms: C_12  and  N_14 
REMARK    4  A    between atoms: N_14  and  C_15 
REMARK    5  A    between atoms: C_18  and  C_21 
ROOT
HETATM    1  N   UNL     1       6.643  25.928  55.014  1.00  0.00    -0.326 N 
HETATM    2  C   UNL     1       5.794  26.529  54.075  1.00  0.00     0.323 C 
HETATM    3  O   UNL     1       4.862  27.252  54.414  1.00  0.00    -0.247 OA
HETATM    4  N   UNL     1       6.090  26.223  52.763  1.00  0.00    -0.309 N 
HETATM    5  H   UNL     1       6.583  25.355  52.616  1.00  0.00     0.170 HD
ENDROOT
BRANCH   4   6
HETATM    6  C   UNL     1       5.554  26.819  51.604  1.00  0.00     0.036 A 
HETATM    7  C   UNL     1       4.967  26.101  50.563  1.00  0.00     0.030 A 
HETATM    8  C   UNL     1       4.439  26.767  49.449  1.00  0.00     0.014 A 
HETATM    9  C   UNL     1       4.481  28.162  49.357  1.00  0.00    -0.023 A 
HETATM   10  C   UNL     1       5.056  28.881  50.412  1.00  0.00     0.014 A 
HETATM   11  C   UNL     1       5.585  28.215  51.525  1.00  0.00     0.030 A 
BRANCH   9  12
HETATM   12  C   UNL     1       3.935  28.861  48.206  1.00  0.00     0.010 A 
HETATM   13  C   UNL     1       4.418  29.978  47.482  1.00  0.00     0.152 A 
HETATM   14  N   UNL     1       3.627  30.317  46.460  1.00  0.00    -0.187 NA
HETATM   15  N   UNL     1       2.634  29.416  46.522  1.00  0.00    -0.289 N 
HETATM   16  H   UNL     1       1.894  29.466  45.829  1.00  0.00     0.188 HD
HETATM   17  C   UNL     1       2.771  28.524  47.545  1.00  0.00     0.123 A 
ENDBRANCH   9  12
ENDBRANCH   4   6
BRANCH   1  18
HETATM   18  C   UNL     1       6.380  26.095  56.459  1.00  0.00     0.081 C 
HETATM   19  C   UNL     1       5.357  25.087  56.986  1.00  0.00     0.032 C 
HETATM   20  C   UNL     1       7.656  26.094  57.306  1.00  0.00     0.032 C 
ENDBRANCH   1  18
BRANCH   1  21
HETATM   21  C   UNL     1       7.928  25.319  54.651  1.00  0.00     0.166 C 
BRANCH  21  22
HETATM   22  C   UNL     1       7.906  23.813  54.489  1.00  0.00    -0.040 A 
HETATM   23  C   UNL     1       7.924  23.279  53.189  1.00  0.00     0.009 A 
HETATM   24  C   UNL     1       7.883  21.899  52.979  1.00  0.00     0.001 A 
HETATM   25  C   UNL     1       7.822  21.030  54.065  1.00  0.00     0.000 A 
HETATM   26  C   UNL     1       7.807  21.541  55.360  1.00  0.00     0.001 A 
HETATM   27  C   UNL     1       7.849  22.920  55.570  1.00  0.00     0.009 A 
ENDBRANCH  21  22
ENDBRANCH   1  21
TORSDOF 5
ENDMDL
MODEL 5
REMARK VINA RESULT:      -8.1      3.366      7.687
REMARK  5 active torsions:
REMARK  status: ('A' for Active; 'I' for Inactive)
REMARK    1  A    between atoms: C_2  and  N_4 
REMARK    2  A    between atoms: N_4  and  C_5 
REMARK       I    between atoms: N_4  and  C_12 
REMARK    3  A    between atoms: C_5  and  C_6 
REMARK       I    between atoms: C_12  and  N_14 
REMARK    4  A    between atoms: N_14  and  C_15 
REMARK    5  A    between atoms: C_18  and  C_21 
ROOT
HETATM    1  N   UNL     1       7.070  25.636  55.762  1.00  0.00    -0.326 N 
HETATM    2  C   UNL     1       6.722  26.505  54.718  1.00  0.00     0.323 C 
HETATM    3  O   UNL     1       7.362  27.526  54.484  1.00  0.00    -0.247 OA
HETATM    4  N   UNL     1       5.606  26.119  54.006  1.00  0.00    -0.309 N 
HETATM    5  H   UNL     1       4.955  25.527  54.499  1.00  0.00     0.170 HD
ENDROOT
BRANCH   4   6
HETATM    6  C   UNL     1       5.131  26.667  52.797  1.00  0.00     0.036 A 
HETATM    7  C   UNL     1       4.430  27.869  52.713  1.00  0.00     0.030 A 
HETATM    8  C   UNL     1       4.005  28.360  51.471  1.00  0.00     0.014 A 
HETATM    9  C   UNL     1       4.280  27.663  50.289  1.00  0.00    -0.023 A 
HETATM   10  C   UNL     1       4.999  26.465  50.376  1.00  0.00     0.014 A 
HETATM   11  C   UNL     1       5.422  25.974  51.618  1.00  0.00     0.030 A 
BRANCH   9  12
HETATM   12  C   UNL     1       3.844  28.165  48.997  1.00  0.00     0.010 A 
HETATM   13  C   UNL     1       2.739  27.808  48.188  1.00  0.00     0.152 A 
HETATM   14  N   UNL     1       2.668  28.522  47.060  1.00  0.00    -0.187 NA
HETATM   15  N   UNL     1       3.728  29.342  47.143  1.00  0.00    -0.289 N 
HETATM   16  H   UNL     1       3.889  29.999  46.387  1.00  0.00     0.188 HD
HETATM   17  C   UNL     1       4.461  29.169  48.281  1.00  0.00     0.123 A 
ENDBRANCH   9  12
ENDBRANCH   4   6
BRANCH   1  18
HETATM   18  C   UNL     1       8.189  25.979  56.664  1.00  0.00     0.081 C 
HETATM   19  C   UNL     1       7.819  27.082  57.659  1.00  0.00     0.032 C 
HETATM   20  C   UNL     1       8.784  24.760  57.374  1.00  0.00     0.032 C 
ENDBRANCH   1  18
BRANCH   1  21
HETATM   21  C   UNL     1       6.530  24.277  55.879  1.00  0.00     0.166 C 
BRANCH  21  22
HETATM   22  C   UNL     1       7.178  23.245  54.979  1.00  0.00    -0.040 A 
HETATM   23  C   UNL     1       7.532  22.003  55.532  1.00  0.00     0.009 A 
HETATM   24  C   UNL     1       8.152  21.021  54.754  1.00  0.00     0.001 A 
HETATM   25  C   UNL     1       8.427  21.267  53.412  1.00  0.00     0.000 A 
HETATM   26  C   UNL     1       8.079  22.490  52.846  1.00  0.00     0.001 A 
HETATM   27  C   UNL     1       7.459  23.471  53.623  1.00  0.00     0.009 A 
ENDBRANCH  21  22
ENDBRANCH   1  21
TORSDOF 5
ENDMDL
MODEL 6
REMARK VINA RESULT:      -8.1      2.983      8.186
REMARK  5 active torsions:
REMARK  status: ('A' for Active; 'I' for Inactive)
REMARK    1  A    between atoms: C_2  and  N_4 
REMARK    2  A    between atoms: N_4  and  C_5 
REMARK       I    between atoms: N_4  and  C_12 
REMARK    3  A    between atoms: C_5  and  C_6 
REMARK       I    between atoms: C_12  and  N_14 
REMARK    4  A    between atoms: N_14  and  C_15 
REMARK    5  A    between atoms: C_18  and  C_21 
ROOT
HETATM    1  N   UNL     1       5.670  29.209  56.667  1.00  0.00    -0.326 N 
HETATM    2  C   UNL     1       5.691  27.814  56.531  1.00  0.00     0.323 C 
HETATM    3  O   UNL     1       4.678  27.175  56.261  1.00  0.00    -0.247 OA
HETATM    4  N   UNL     1       6.927  27.240  56.743  1.00  0.00    -0.309 N 
HETATM    5  H   UNL     1       7.561  27.769  57.323  1.00  0.00     0.170 HD
ENDROOT
BRANCH   4   6
HETATM    6  C   UNL     1       7.305  25.907  56.489  1.00  0.00     0.036 A 
HETATM    7  C   UNL     1       8.030  25.122  57.385  1.00  0.00     0.030 A 
HETATM    8  C   UNL     1       8.354  23.797  57.068  1.00  0.00     0.014 A 
HETATM    9  C   UNL     1       7.954  23.227  55.854  1.00  0.00    -0.023 A 
HETATM   10  C   UNL     1       7.212  24.013  54.965  1.00  0.00     0.014 A 
HETATM   11  C   UNL     1       6.889  25.339  55.281  1.00  0.00     0.030 A 
BRANCH   9  12
HETATM   12  C   UNL     1       8.286  21.853  55.518  1.00  0.00     0.010 A 
HETATM   13  C   UNL     1       8.324  21.185  54.270  1.00  0.00     0.152 A 
HETATM   14  N   UNL     1       8.698  19.907  54.376  1.00  0.00    -0.187 NA
HETATM   15  N   UNL     1       8.904  19.750  55.693  1.00  0.00    -0.289 N 
HETATM   16  H   UNL     1       9.207  18.841  56.028  1.00  0.00     0.188 HD
HETATM   17  C   UNL     1       8.673  20.882  56.419  1.00  0.00     0.123 A 
ENDBRANCH   9  12
ENDBRANCH   4   6
BRANCH   1  18
HETATM   18  C   UNL     1       4.391  29.941  56.560  1.00  0.00     0.081 C 
HETATM   19  C   UNL     1       3.796  30.279  57.929  1.00  0.00     0.032 C 
HETATM   20  C   UNL     1       4.482  31.182  55.668  1.00  0.00     0.032 C 
ENDBRANCH   1  18
BRANCH   1  21
HETATM   21  C   UNL     1       6.890  30.025  56.684  1.00  0.00     0.166 C 
BRANCH  21  22
HETATM   22  C   UNL     1       7.324  30.508  58.053  1.00  0.00    -0.040 A 
HETATM   23  C   UNL     1       6.778  31.707  58.543  1.00  0.00     0.009 A 
HETATM   24  C   UNL     1       7.157  32.211  59.789  1.00  0.00     0.001 A 
HETATM   25  C   UNL     1       8.089  31.527  60.564  1.00  0.00     0.000 A 
HETATM   26  C   UNL     1       8.638  30.336  60.096  1.00  0.00     0.001 A 
HETATM   27  C   UNL     1       8.258  29.831  58.851  1.00  0.00     0.009 A 
ENDBRANCH  21  22
ENDBRANCH   1  21
TORSDOF 5
ENDMDL
MODEL 7
REMARK VINA RESULT:      -7.9      2.779      8.496
REMARK  5 active torsions:
REMARK  status: ('A' for Active; 'I' for Inactive)
REMARK    1  A    between atoms: C_2  and  N_4 
REMARK    2  A    between atoms: N_4  and  C_5 
REMARK       I    between atoms: N_4  and  C_12 
REMARK    3  A    between atoms: C_5  and  C_6 
REMARK       I    between atoms: C_12  and  N_14 
REMARK    4  A    between atoms: N_14  and  C_15 
REMARK    5  A    between atoms: C_18  and  C_21 
ROOT
HETATM    1  N   UNL     1       5.927  30.647  57.821  1.00  0.00    -0.326 N 
HETATM    2  C   UNL     1       5.760  29.335  57.356  1.00  0.00     0.323 C 
HETATM    3  O   UNL     1       4.672  28.920  56.967  1.00  0.00    -0.247 OA
HETATM    4  N   UNL     1       6.905  28.568  57.394  1.00  0.00    -0.309 N 
HETATM    5  H   UNL     1       7.601  28.853  58.067  1.00  0.00     0.170 HD
ENDROOT
BRANCH   4   6
HETATM    6  C   UNL     1       7.102  27.296  56.820  1.00  0.00     0.036 A 
HETATM    7  C   UNL     1       7.245  26.124  57.561  1.00  0.00     0.030 A 
HETATM    8  C   UNL     1       7.419  24.892  56.918  1.00  0.00     0.014 A 
HETATM    9  C   UNL     1       7.448  24.807  55.521  1.00  0.00    -0.023 A 
HETATM   10  C   UNL     1       7.288  25.983  54.780  1.00  0.00     0.014 A 
HETATM   11  C   UNL     1       7.115  27.215  55.424  1.00  0.00     0.030 A 
BRANCH   9  12
HETATM   12  C   UNL     1       7.629  23.533  54.846  1.00  0.00     0.010 A 
HETATM   13  C   UNL     1       7.857  23.229  53.482  1.00  0.00     0.152 A 
HETATM   14  N   UNL     1       7.988  21.919  53.256  1.00  0.00    -0.187 NA
HETATM   15  N   UNL     1       7.846  21.376  54.475  1.00  0.00    -0.289 N 
HETATM   16  H   UNL     1       7.913  20.368  54.565  1.00  0.00     0.188 HD
HETATM   17  C   UNL     1       7.631  22.297  55.459  1.00  0.00     0.123 A 
ENDBRANCH   9  12
ENDBRANCH   4   6
BRANCH   1  18
HETATM   18  C   UNL     1       4.759  31.547  57.923  1.00  0.00     0.081 C 
HETATM   19  C   UNL     1       4.098  31.489  59.303  1.00  0.00     0.032 C 
HETATM   20  C   UNL     1       5.073  32.988  57.513  1.00  0.00     0.032 C 
ENDBRANCH   1  18
BRANCH   1  21
HETATM   21  C   UNL     1       7.245  31.266  58.001  1.00  0.00     0.166 C 
BRANCH  21  22
HETATM   22  C   UNL     1       7.734  31.336  59.433  1.00  0.00    -0.040 A 
HETATM   23  C   UNL     1       7.334  32.427  60.224  1.00  0.00     0.009 A 
HETATM   24  C   UNL     1       7.771  32.555  61.544  1.00  0.00     0.001 A 
HETATM   25  C   UNL     1       8.617  31.596  62.095  1.00  0.00     0.000 A 
HETATM   26  C   UNL     1       9.021  30.507  61.327  1.00  0.00     0.001 A 
HETATM   27  C   UNL     1       8.583  30.378  60.008  1.00  0.00     0.009 A 
ENDBRANCH  21  22
ENDBRANCH   1  21
TORSDOF 5
ENDMDL
MODEL 8
REMARK VINA RESULT:      -7.8      6.315     12.284
REMARK  5 active torsions:
REMARK  status: ('A' for Active; 'I' for Inactive)
REMARK    1  A    between atoms: C_2  and  N_4 
REMARK    2  A    between atoms: N_4  and  C_5 
REMARK       I    between atoms: N_4  and  C_12 
REMARK    3  A    between atoms: C_5  and  C_6 
REMARK       I    between atoms: C_12  and  N_14 
REMARK    4  A    between atoms: N_14  and  C_15 
REMARK    5  A    between atoms: C_18  and  C_21 
ROOT
HETATM    1  N   UNL     1       5.065  34.620  65.302  1.00  0.00    -0.326 N 
HETATM    2  C   UNL     1       5.489  33.592  64.449  1.00  0.00     0.323 C 
HETATM    3  O   UNL     1       5.010  32.463  64.508  1.00  0.00    -0.247 OA
HETATM    4  N   UNL     1       6.487  33.957  63.570  1.00  0.00    -0.309 N 
HETATM    5  H   UNL     1       7.061  34.735  63.858  1.00  0.00     0.170 HD
ENDROOT
BRANCH   4   6
HETATM    6  C   UNL     1       6.975  33.217  62.475  1.00  0.00     0.036 A 
HETATM    7  C   UNL     1       6.343  33.160  61.234  1.00  0.00     0.030 A 
HETATM    8  C   UNL     1       6.898  32.415  60.186  1.00  0.00     0.014 A 
HETATM    9  C   UNL     1       8.100  31.719  60.355  1.00  0.00    -0.023 A 
HETATM   10  C   UNL     1       8.741  31.791  61.597  1.00  0.00     0.014 A 
HETATM   11  C   UNL     1       8.185  32.535  62.646  1.00  0.00     0.030 A 
BRANCH   9  12
HETATM   12  C   UNL     1       8.684  30.944  59.273  1.00  0.00     0.010 A 
HETATM   13  C   UNL     1       8.244  29.758  58.637  1.00  0.00     0.152 A 
HETATM   14  N   UNL     1       9.060  29.359  57.658  1.00  0.00    -0.187 NA
HETATM   15  N   UNL     1      10.027  30.290  57.659  1.00  0.00    -0.289 N 
HETATM   16  H   UNL     1      10.779  30.204  56.984  1.00  0.00     0.188 HD
HETATM   17  C   UNL     1       9.848  31.259  58.604  1.00  0.00     0.123 A 
ENDBRANCH   9  12
ENDBRANCH   4   6
BRANCH   1  18
HETATM   18  C   UNL     1       4.068  34.339  66.356  1.00  0.00     0.081 C 
HETATM   19  C   UNL     1       4.719  34.009  67.701  1.00  0.00     0.032 C 
HETATM   20  C   UNL     1       3.017  35.443  66.499  1.00  0.00     0.032 C 
ENDBRANCH   1  18
BRANCH   1  21
HETATM   21  C   UNL     1       5.384  36.033  65.065  1.00  0.00     0.166 C 
BRANCH  21  22
HETATM   22  C   UNL     1       4.937  36.580  63.725  1.00  0.00    -0.040 A 
HETATM   23  C   UNL     1       5.848  37.345  62.977  1.00  0.00     0.009 A 
HETATM   24  C   UNL     1       5.483  37.893  61.745  1.00  0.00     0.001 A 
HETATM   25  C   UNL     1       4.202  37.685  61.242  1.00  0.00     0.000 A 
HETATM   26  C   UNL     1       3.288  36.927  61.967  1.00  0.00     0.001 A 
HETATM   27  C   UNL     1       3.652  36.378  63.198  1.00  0.00     0.009 A 
ENDBRANCH  21  22
ENDBRANCH   1  21
TORSDOF 5
ENDMDL
MODEL 9
REMARK VINA RESULT:      -7.5      2.955      8.651
REMARK  5 active torsions:
REMARK  status: ('A' for Active; 'I' for Inactive)
REMARK    1  A    between atoms: C_2  and  N_4 
REMARK    2  A    between atoms: N_4  and  C_5 
REMARK       I    between atoms: N_4  and  C_12 
REMARK    3  A    between atoms: C_5  and  C_6 
REMARK       I    between atoms: C_12  and  N_14 
REMARK    4  A    between atoms: N_14  and  C_15 
REMARK    5  A    between atoms: C_18  and  C_21 
ROOT
HETATM    1  N   UNL     1       5.288  31.589  58.640  1.00  0.00    -0.326 N 
HETATM    2  C   UNL     1       5.218  30.400  57.901  1.00  0.00     0.323 C 
HETATM    3  O   UNL     1       4.157  29.981  57.447  1.00  0.00    -0.247 OA
HETATM    4  N   UNL     1       6.426  29.751  57.751  1.00  0.00    -0.309 N 
HETATM    5  H   UNL     1       7.118  29.945  58.459  1.00  0.00     0.170 HD
ENDROOT
BRANCH   4   6
HETATM    6  C   UNL     1       6.711  28.658  56.908  1.00  0.00     0.036 A 
HETATM    7  C   UNL     1       6.527  27.326  57.276  1.00  0.00     0.030 A 
HETATM    8  C   UNL     1       6.816  26.292  56.376  1.00  0.00     0.014 A 
HETATM    9  C   UNL     1       7.287  26.570  55.088  1.00  0.00    -0.023 A 
HETATM   10  C   UNL     1       7.455  27.909  54.716  1.00  0.00     0.014 A 
HETATM   11  C   UNL     1       7.167  28.943  55.617  1.00  0.00     0.030 A 
BRANCH   9  12
HETATM   12  C   UNL     1       7.589  25.504  54.147  1.00  0.00     0.010 A 
HETATM   13  C   UNL     1       7.871  24.133  54.357  1.00  0.00     0.152 A 
HETATM   14  N   UNL     1       8.083  23.466  53.219  1.00  0.00    -0.187 NA
HETATM   15  N   UNL     1       7.934  24.406  52.273  1.00  0.00    -0.289 N 
HETATM   16  H   UNL     1       8.045  24.134  51.302  1.00  0.00     0.188 HD
HETATM   17  C   UNL     1       7.636  25.640  52.775  1.00  0.00     0.123 A 
ENDBRANCH   9  12
ENDBRANCH   4   6
BRANCH   1  18
HETATM   18  C   UNL     1       4.052  32.334  58.957  1.00  0.00     0.081 C 
HETATM   19  C   UNL     1       3.355  31.801  60.211  1.00  0.00     0.032 C 
HETATM   20  C   UNL     1       4.266  33.847  59.035  1.00  0.00     0.032 C 
ENDBRANCH   1  18
BRANCH   1  21
HETATM   21  C   UNL     1       6.554  32.271  58.931  1.00  0.00     0.166 C 
BRANCH  21  22
HETATM   22  C   UNL     1       7.233  31.850  60.218  1.00  0.00    -0.040 A 
HETATM   23  C   UNL     1       6.704  32.312  61.436  1.00  0.00     0.009 A 
HETATM   24  C   UNL     1       7.302  31.973  62.652  1.00  0.00     0.001 A 
HETATM   25  C   UNL     1       8.438  31.169  62.671  1.00  0.00     0.000 A 
HETATM   26  C   UNL     1       8.973  30.700  61.475  1.00  0.00     0.001 A 
HETATM   27  C   UNL     1       8.376  31.036  60.259  1.00  0.00     0.009 A 
ENDBRANCH  21  22
ENDBRANCH   1  21
TORSDOF 5
ENDMDL
MODEL 10
REMARK VINA RESULT:      -7.5      3.354      9.270
REMARK  5 active torsions:
REMARK  status: ('A' for Active; 'I' for Inactive)
REMARK    1  A    between atoms: C_2  and  N_4 
REMARK    2  A    between atoms: N_4  and  C_5 
REMARK       I    between atoms: N_4  and  C_12 
REMARK    3  A    between atoms: C_5  and  C_6 
REMARK       I    between atoms: C_12  and  N_14 
REMARK    4  A    between atoms: N_14  and  C_15 
REMARK    5  A    between atoms: C_18  and  C_21 
ROOT
HETATM    1  N   UNL     1       4.760  32.114  59.494  1.00  0.00    -0.326 N 
HETATM    2  C   UNL     1       4.343  31.108  58.612  1.00  0.00     0.323 C 
HETATM    3  O   UNL     1       3.163  30.789  58.506  1.00  0.00    -0.247 OA
HETATM    4  N   UNL     1       5.366  30.513  57.903  1.00  0.00    -0.309 N 
HETATM    5  H   UNL     1       6.278  30.557  58.331  1.00  0.00     0.170 HD
ENDROOT
BRANCH   4   6
HETATM    6  C   UNL     1       5.248  29.625  56.815  1.00  0.00     0.036 A 
HETATM    7  C   UNL     1       5.008  30.033  55.504  1.00  0.00     0.030 A 
HETATM    8  C   UNL     1       4.921  29.091  54.470  1.00  0.00     0.014 A 
HETATM    9  C   UNL     1       5.079  27.724  54.727  1.00  0.00    -0.023 A 
HETATM   10  C   UNL     1       5.336  27.320  56.042  1.00  0.00     0.014 A 
HETATM   11  C   UNL     1       5.421  28.262  57.075  1.00  0.00     0.030 A 
BRANCH   9  12
HETATM   12  C   UNL     1       4.991  26.741  53.661  1.00  0.00     0.010 A 
HETATM   13  C   UNL     1       5.080  25.328  53.691  1.00  0.00     0.152 A 
HETATM   14  N   UNL     1       4.929  24.772  52.486  1.00  0.00    -0.187 NA
HETATM   15  N   UNL     1       4.739  25.825  51.677  1.00  0.00    -0.289 N 
HETATM   16  H   UNL     1       4.593  25.654  50.688  1.00  0.00     0.188 HD
HETATM   17  C   UNL     1       4.765  27.024  52.330  1.00  0.00     0.123 A 
ENDBRANCH   9  12
ENDBRANCH   4   6
BRANCH   1  18
HETATM   18  C   UNL     1       3.778  32.768  60.384  1.00  0.00     0.081 C 
HETATM   19  C   UNL     1       3.695  32.094  61.756  1.00  0.00     0.032 C 
HETATM   20  C   UNL     1       3.997  34.278  60.514  1.00  0.00     0.032 C 
ENDBRANCH   1  18
BRANCH   1  21
HETATM   21  C   UNL     1       6.092  32.728  59.430  1.00  0.00     0.166 C 
BRANCH  21  22
HETATM   22  C   UNL     1       7.110  32.162  60.398  1.00  0.00    -0.040 A 
HETATM   23  C   UNL     1       7.233  32.760  61.664  1.00  0.00     0.009 A 
HETATM   24  C   UNL     1       8.170  32.294  62.590  1.00  0.00     0.001 A 
HETATM   25  C   UNL     1       8.999  31.224  62.264  1.00  0.00     0.000 A 
HETATM   26  C   UNL     1       8.889  30.617  61.016  1.00  0.00     0.001 A 
HETATM   27  C   UNL     1       7.952  31.082  60.091  1.00  0.00     0.009 A 
ENDBRANCH  21  22
ENDBRANCH   1  21
TORSDOF 5
ENDMDL
