MODEL 1
REMARK VINA RESULT:     -10.1      0.000      0.000
REMARK  5 active torsions:
REMARK  status: ('A' for Active; 'I' for Inactive)
REMARK    1  A    between atoms: C_3  and  O_4 
REMARK    2  A    between atoms: C_6  and  N_7 
REMARK       I    between atoms: N_7  and  C_8 
REMARK    3  A    between atoms: C_8  and  C_9 
REMARK    4  A    between atoms: C_14  and  C_15 
REMARK    5  A    between atoms: C_23  and  C_24 
ROOT
HETATM    1  C   UNL     1       7.755  30.928  58.420  1.00  0.00     0.148 A 
HETATM    2  N   UNL     1       6.596  30.817  57.729  1.00  0.00    -0.165 NA
HETATM    3  N   UNL     1       6.883  29.903  56.782  1.00  0.00    -0.240 N 
HETATM    4  C   UNL     1       8.188  29.500  56.778  1.00  0.00     0.123 A 
HETATM    5  N   UNL     1       8.669  28.647  55.850  1.00  0.00    -0.366 N 
HETATM    6  C   UNL     1       7.816  28.005  54.858  1.00  0.00     0.118 C 
HETATM    7  C   UNL     1       6.560  28.852  54.582  1.00  0.00     0.066 C 
HETATM    8  C   UNL     1       5.886  29.440  55.836  1.00  0.00     0.221 C 
HETATM    9  C   UNL     1       8.777  30.125  57.843  1.00  0.00     0.089 A 
HETATM   10  H   UNL     1       9.613  28.271  55.924  1.00  0.00     0.161 HD
ENDROOT
BRANCH   1  11
HETATM   11  C   UNL     1       7.886  31.789  59.610  1.00  0.00     0.276 C 
HETATM   12  N   UNL     1       7.010  31.420  60.612  1.00  0.00    -0.322 N 
HETATM   13  H   UNL     1       6.407  30.643  60.354  1.00  0.00     0.169 HD
HETATM   14  O   UNL     1       8.692  32.711  59.640  1.00  0.00    -0.266 OA
BRANCH  12  15
HETATM   15  C   UNL     1       6.868  31.975  61.895  1.00  0.00     0.037 A 
HETATM   16  C   UNL     1       5.636  32.242  62.497  1.00  0.00     0.066 A 
HETATM   17  C   UNL     1       5.591  32.809  63.769  1.00  0.00     0.067 A 
HETATM   18  C   UNL     1       6.758  33.110  64.465  1.00  0.00     0.036 A 
HETATM   19  C   UNL     1       7.989  32.843  63.873  1.00  0.00     0.005 A 
HETATM   20  C   UNL     1       8.044  32.283  62.592  1.00  0.00     0.029 A 
BRANCH  17  21
HETATM   21  O   UNL     1       4.363  33.062  64.308  1.00  0.00    -0.361 OA
HETATM   22  H   UNL     1       3.829  32.253  64.266  1.00  0.00     0.217 HD
ENDBRANCH  17  21
ENDBRANCH  12  15
ENDBRANCH   1  11
BRANCH   8  23
HETATM   23  C   UNL     1       4.923  28.493  56.515  1.00  0.00     0.409 C 
HETATM   24  F   UNL     1       5.433  27.875  57.596  1.00  0.00    -0.169 F 
HETATM   25  F   UNL     1       3.790  29.123  56.907  1.00  0.00    -0.169 F 
HETATM   26  F   UNL     1       4.533  27.524  55.647  1.00  0.00    -0.169 F 
ENDBRANCH   8  23
BRANCH   6  27
HETATM   27  C   UNL     1       7.557  26.539  55.168  1.00  0.00    -0.035 A 
HETATM   28  C   UNL     1       7.816  25.967  56.427  1.00  0.00     0.012 A 
HETATM   29  C   UNL     1       7.589  24.608  56.659  1.00  0.00     0.043 A 
HETATM   30  C   UNL     1       7.109  23.808  55.633  1.00  0.00     0.116 A 
HETATM   31  F   UNL     1       6.898  22.504  55.853  1.00  0.00    -0.206 F 
HETATM   32  C   UNL     1       6.849  24.342  54.378  1.00  0.00     0.043 A 
HETATM   33  C   UNL     1       7.070  25.701  54.146  1.00  0.00     0.012 A 
ENDBRANCH   6  27
TORSDOF 5
ENDMDL
MODEL 2
REMARK VINA RESULT:      -9.9      1.863      2.377
REMARK  5 active torsions:
REMARK  status: ('A' for Active; 'I' for Inactive)
REMARK    1  A    between atoms: C_3  and  O_4 
REMARK    2  A    between atoms: C_6  and  N_7 
REMARK       I    between atoms: N_7  and  C_8 
REMARK    3  A    between atoms: C_8  and  C_9 
REMARK    4  A    between atoms: C_14  and  C_15 
REMARK    5  A    between atoms: C_23  and  C_24 
ROOT
HETATM    1  C   UNL     1       7.879  29.331  57.140  1.00  0.00     0.148 A 
HETATM    2  N   UNL     1       6.671  28.727  57.220  1.00  0.00    -0.165 NA
HETATM    3  N   UNL     1       6.648  27.931  56.133  1.00  0.00    -0.240 N 
HETATM    4  C   UNL     1       7.737  28.070  55.321  1.00  0.00     0.123 A 
HETATM    5  N   UNL     1       7.844  27.408  54.150  1.00  0.00    -0.366 N 
HETATM    6  C   UNL     1       6.870  26.413  53.720  1.00  0.00     0.118 C 
HETATM    7  C   UNL     1       5.494  26.679  54.358  1.00  0.00     0.066 C 
HETATM    8  C   UNL     1       5.532  27.047  55.854  1.00  0.00     0.221 C 
HETATM    9  C   UNL     1       8.568  28.952  55.956  1.00  0.00     0.089 A 
HETATM   10  H   UNL     1       8.708  27.437  53.610  1.00  0.00     0.161 HD
ENDROOT
BRANCH   1  11
HETATM   11  C   UNL     1       8.368  30.260  58.177  1.00  0.00     0.276 C 
HETATM   12  N   UNL     1       7.442  30.436  59.187  1.00  0.00    -0.322 N 
HETATM   13  H   UNL     1       6.576  29.925  59.035  1.00  0.00     0.169 HD
HETATM   14  O   UNL     1       9.471  30.785  58.091  1.00  0.00    -0.266 OA
BRANCH  12  15
HETATM   15  C   UNL     1       7.561  31.210  60.354  1.00  0.00     0.037 A 
HETATM   16  C   UNL     1       6.808  32.358  60.608  1.00  0.00     0.066 A 
HETATM   17  C   UNL     1       7.004  33.073  61.789  1.00  0.00     0.067 A 
HETATM   18  C   UNL     1       7.937  32.659  62.734  1.00  0.00     0.036 A 
HETATM   19  C   UNL     1       8.689  31.512  62.490  1.00  0.00     0.005 A 
HETATM   20  C   UNL     1       8.505  30.794  61.304  1.00  0.00     0.029 A 
BRANCH  17  21
HETATM   21  O   UNL     1       6.254  34.196  61.983  1.00  0.00    -0.361 OA
HETATM   22  H   UNL     1       5.417  34.101  61.500  1.00  0.00     0.217 HD
ENDBRANCH  17  21
ENDBRANCH  12  15
ENDBRANCH   1  11
BRANCH   8  23
HETATM   23  C   UNL     1       5.570  25.852  56.778  1.00  0.00     0.409 C 
HETATM   24  F   UNL     1       6.745  25.685  57.411  1.00  0.00    -0.169 F 
HETATM   25  F   UNL     1       4.606  25.918  57.727  1.00  0.00    -0.169 F 
HETATM   26  F   UNL     1       5.328  24.713  56.077  1.00  0.00    -0.169 F 
ENDBRANCH   8  23
BRANCH   6  27
HETATM   27  C   UNL     1       7.386  24.990  53.858  1.00  0.00    -0.035 A 
HETATM   28  C   UNL     1       8.219  24.577  54.914  1.00  0.00     0.012 A 
HETATM   29  C   UNL     1       8.693  23.265  54.986  1.00  0.00     0.043 A 
HETATM   30  C   UNL     1       8.346  22.356  53.997  1.00  0.00     0.116 A 
HETATM   31  F   UNL     1       8.806  21.100  54.061  1.00  0.00    -0.206 F 
HETATM   32  C   UNL     1       7.531  22.734  52.938  1.00  0.00     0.043 A 
HETATM   33  C   UNL     1       7.052  24.044  52.869  1.00  0.00     0.012 A 
ENDBRANCH   6  27
TORSDOF 5
ENDMDL
MODEL 3
REMARK VINA RESULT:      -9.4      8.168     10.557
REMARK  5 active torsions:
REMARK  status: ('A' for Active; 'I' for Inactive)
REMARK    1  A    between atoms: C_3  and  O_4 
REMARK    2  A    between atoms: C_6  and  N_7 
REMARK       I    between atoms: N_7  and  C_8 
REMARK    3  A    between atoms: C_8  and  C_9 
REMARK    4  A    between atoms: C_14  and  C_15 
REMARK    5  A    between atoms: C_23  and  C_24 
ROOT
HETATM    1  C   UNL     1       6.318  26.214  51.810  1.00  0.00     0.148 A 
HETATM    2  N   UNL     1       5.572  25.987  50.704  1.00  0.00    -0.165 NA
HETATM    3  N   UNL     1       4.911  27.148  50.530  1.00  0.00    -0.240 N 
HETATM    4  C   UNL     1       5.128  28.063  51.521  1.00  0.00     0.123 A 
HETATM    5  N   UNL     1       4.488  29.251  51.548  1.00  0.00    -0.366 N 
HETATM    6  C   UNL     1       3.612  29.695  50.472  1.00  0.00     0.118 C 
HETATM    7  C   UNL     1       3.020  28.492  49.714  1.00  0.00     0.066 C 
HETATM    8  C   UNL     1       4.021  27.363  49.405  1.00  0.00     0.221 C 
HETATM    9  C   UNL     1       6.055  27.500  52.355  1.00  0.00     0.089 A 
HETATM   10  H   UNL     1       4.741  29.966  52.229  1.00  0.00     0.161 HD
ENDROOT
BRANCH   1  11
HETATM   11  C   UNL     1       7.265  25.215  52.343  1.00  0.00     0.276 C 
HETATM   12  N   UNL     1       6.626  24.253  53.099  1.00  0.00    -0.322 N 
HETATM   13  H   UNL     1       5.625  24.408  53.188  1.00  0.00     0.169 HD
HETATM   14  O   UNL     1       8.464  25.291  52.108  1.00  0.00    -0.266 OA
BRANCH  12  15
HETATM   15  C   UNL     1       7.184  23.130  53.733  1.00  0.00     0.037 A 
HETATM   16  C   UNL     1       7.658  22.006  53.053  1.00  0.00     0.066 A 
HETATM   17  C   UNL     1       8.183  20.930  53.766  1.00  0.00     0.067 A 
HETATM   18  C   UNL     1       8.254  20.953  55.156  1.00  0.00     0.036 A 
HETATM   19  C   UNL     1       7.786  22.072  55.841  1.00  0.00     0.005 A 
HETATM   20  C   UNL     1       7.250  23.153  55.133  1.00  0.00     0.029 A 
BRANCH  17  21
HETATM   21  O   UNL     1       8.620  19.850  53.056  1.00  0.00    -0.361 OA
HETATM   22  H   UNL     1       9.003  19.204  53.672  1.00  0.00     0.217 HD
ENDBRANCH  17  21
ENDBRANCH  12  15
ENDBRANCH   1  11
BRANCH   8  23
HETATM   23  C   UNL     1       4.821  27.583  48.142  1.00  0.00     0.409 C 
HETATM   24  F   UNL     1       5.947  28.297  48.323  1.00  0.00    -0.169 F 
HETATM   25  F   UNL     1       5.176  26.412  47.560  1.00  0.00    -0.169 F 
HETATM   26  F   UNL     1       4.070  28.245  47.224  1.00  0.00    -0.169 F 
ENDBRANCH   8  23
BRANCH   6  27
HETATM   27  C   UNL     1       4.250  30.763  49.599  1.00  0.00    -0.035 A 
HETATM   28  C   UNL     1       3.630  31.281  48.447  1.00  0.00     0.012 A 
HETATM   29  C   UNL     1       4.266  32.242  47.659  1.00  0.00     0.043 A 
HETATM   30  C   UNL     1       5.531  32.689  48.010  1.00  0.00     0.116 A 
HETATM   31  F   UNL     1       6.145  33.605  47.250  1.00  0.00    -0.206 F 
HETATM   32  C   UNL     1       6.172  32.194  49.137  1.00  0.00     0.043 A 
HETATM   33  C   UNL     1       5.535  31.237  49.929  1.00  0.00     0.012 A 
ENDBRANCH   6  27
TORSDOF 5
ENDMDL
MODEL 4
REMARK VINA RESULT:      -9.2      7.462      9.768
REMARK  5 active torsions:
REMARK  status: ('A' for Active; 'I' for Inactive)
REMARK    1  A    between atoms: C_3  and  O_4 
REMARK    2  A    between atoms: C_6  and  N_7 
REMARK       I    between atoms: N_7  and  C_8 
REMARK    3  A    between atoms: C_8  and  C_9 
REMARK    4  A    between atoms: C_14  and  C_15 
REMARK    5  A    between atoms: C_23  and  C_24 
ROOT
HETATM    1  C   UNL     1       5.554  26.229  52.324  1.00  0.00     0.148 A 
HETATM    2  N   UNL     1       5.377  27.572  52.323  1.00  0.00    -0.165 NA
HETATM    3  N   UNL     1       5.091  27.847  51.035  1.00  0.00    -0.240 N 
HETATM    4  C   UNL     1       5.170  26.765  50.206  1.00  0.00     0.123 A 
HETATM    5  N   UNL     1       4.990  26.871  48.873  1.00  0.00    -0.366 N 
HETATM    6  C   UNL     1       4.587  28.117  48.233  1.00  0.00     0.118 C 
HETATM    7  C   UNL     1       5.018  29.332  49.076  1.00  0.00     0.066 C 
HETATM    8  C   UNL     1       4.775  29.191  50.591  1.00  0.00     0.221 C 
HETATM    9  C   UNL     1       5.443  25.693  51.012  1.00  0.00     0.089 A 
HETATM   10  H   UNL     1       4.943  26.042  48.283  1.00  0.00     0.161 HD
ENDROOT
BRANCH   1  11
HETATM   11  C   UNL     1       5.828  25.470  53.559  1.00  0.00     0.276 C 
HETATM   12  N   UNL     1       6.768  24.480  53.356  1.00  0.00    -0.322 N 
HETATM   13  H   UNL     1       7.089  24.419  52.393  1.00  0.00     0.169 HD
HETATM   14  O   UNL     1       5.252  25.734  54.607  1.00  0.00    -0.266 OA
BRANCH  12  15
HETATM   15  C   UNL     1       7.308  23.584  54.295  1.00  0.00     0.037 A 
HETATM   16  C   UNL     1       7.565  23.913  55.628  1.00  0.00     0.066 A 
HETATM   17  C   UNL     1       8.116  22.963  56.486  1.00  0.00     0.067 A 
HETATM   18  C   UNL     1       8.412  21.677  56.042  1.00  0.00     0.036 A 
HETATM   19  C   UNL     1       8.155  21.341  54.715  1.00  0.00     0.005 A 
HETATM   20  C   UNL     1       7.610  22.291  53.845  1.00  0.00     0.029 A 
BRANCH  17  21
HETATM   21  O   UNL     1       8.361  23.337  57.774  1.00  0.00    -0.361 OA
HETATM   22  H   UNL     1       9.315  23.271  57.944  1.00  0.00     0.217 HD
ENDBRANCH  17  21
ENDBRANCH  12  15
ENDBRANCH   1  11
BRANCH   8  23
HETATM   23  C   UNL     1       3.376  29.567  51.024  1.00  0.00     0.409 C 
HETATM   24  F   UNL     1       2.517  28.532  51.062  1.00  0.00    -0.169 F 
HETATM   25  F   UNL     1       3.367  30.145  52.249  1.00  0.00    -0.169 F 
HETATM   26  F   UNL     1       2.856  30.488  50.171  1.00  0.00    -0.169 F 
ENDBRANCH   8  23
BRANCH   6  27
HETATM   27  C   UNL     1       3.129  28.110  47.801  1.00  0.00    -0.035 A 
HETATM   28  C   UNL     1       2.249  27.053  48.098  1.00  0.00     0.012 A 
HETATM   29  C   UNL     1       0.924  27.076  47.657  1.00  0.00     0.043 A 
HETATM   30  C   UNL     1       0.470  28.151  46.907  1.00  0.00     0.116 A 
HETATM   31  F   UNL     1      -0.798  28.169  46.477  1.00  0.00    -0.206 F 
HETATM   32  C   UNL     1       1.315  29.206  46.592  1.00  0.00     0.043 A 
HETATM   33  C   UNL     1       2.638  29.187  47.038  1.00  0.00     0.012 A 
ENDBRANCH   6  27
TORSDOF 5
ENDMDL
MODEL 5
REMARK VINA RESULT:      -9.1      3.061      4.203
REMARK  5 active torsions:
REMARK  status: ('A' for Active; 'I' for Inactive)
REMARK    1  A    between atoms: C_3  and  O_4 
REMARK    2  A    between atoms: C_6  and  N_7 
REMARK       I    between atoms: N_7  and  C_8 
REMARK    3  A    between atoms: C_8  and  C_9 
REMARK    4  A    between atoms: C_14  and  C_15 
REMARK    5  A    between atoms: C_23  and  C_24 
ROOT
HETATM    1  C   UNL     1       5.898  28.891  54.819  1.00  0.00     0.148 A 
HETATM    2  N   UNL     1       5.186  28.251  53.861  1.00  0.00    -0.165 NA
HETATM    3  N   UNL     1       6.016  27.267  53.463  1.00  0.00    -0.240 N 
HETATM    4  C   UNL     1       7.248  27.308  54.050  1.00  0.00     0.123 A 
HETATM    5  N   UNL     1       8.230  26.446  53.713  1.00  0.00    -0.366 N 
HETATM    6  C   UNL     1       8.018  25.339  52.788  1.00  0.00     0.118 C 
HETATM    7  C   UNL     1       6.865  25.649  51.815  1.00  0.00     0.066 C 
HETATM    8  C   UNL     1       5.623  26.291  52.464  1.00  0.00     0.221 C 
HETATM    9  C   UNL     1       7.198  28.334  54.954  1.00  0.00     0.089 A 
HETATM   10  H   UNL     1       9.104  26.418  54.235  1.00  0.00     0.161 HD
ENDROOT
BRANCH   1  11
HETATM   11  C   UNL     1       5.345  30.020  55.591  1.00  0.00     0.276 C 
HETATM   12  N   UNL     1       5.684  29.946  56.927  1.00  0.00    -0.322 N 
HETATM   13  H   UNL     1       6.227  29.118  57.160  1.00  0.00     0.169 HD
HETATM   14  O   UNL     1       4.668  30.886  55.051  1.00  0.00    -0.266 OA
BRANCH  12  15
HETATM   15  C   UNL     1       5.376  30.850  57.957  1.00  0.00     0.037 A 
HETATM   16  C   UNL     1       4.088  31.048  58.461  1.00  0.00     0.066 A 
HETATM   17  C   UNL     1       3.872  31.979  59.476  1.00  0.00     0.067 A 
HETATM   18  C   UNL     1       4.924  32.717  60.011  1.00  0.00     0.036 A 
HETATM   19  C   UNL     1       6.211  32.522  59.516  1.00  0.00     0.005 A 
HETATM   20  C   UNL     1       6.435  31.596  58.491  1.00  0.00     0.029 A 
BRANCH  17  21
HETATM   21  O   UNL     1       2.594  32.145  59.924  1.00  0.00    -0.361 OA
HETATM   22  H   UNL     1       1.986  32.065  59.172  1.00  0.00     0.217 HD
ENDBRANCH  17  21
ENDBRANCH  12  15
ENDBRANCH   1  11
BRANCH   8  23
HETATM   23  C   UNL     1       4.660  25.291  53.063  1.00  0.00     0.409 C 
HETATM   24  F   UNL     1       4.989  24.888  54.303  1.00  0.00    -0.169 F 
HETATM   25  F   UNL     1       3.398  25.780  53.118  1.00  0.00    -0.169 F 
HETATM   26  F   UNL     1       4.598  24.180  52.284  1.00  0.00    -0.169 F 
ENDBRANCH   8  23
BRANCH   6  27
HETATM   27  C   UNL     1       7.932  23.995  53.492  1.00  0.00    -0.035 A 
HETATM   28  C   UNL     1       7.944  23.863  54.893  1.00  0.00     0.012 A 
HETATM   29  C   UNL     1       7.890  22.605  55.497  1.00  0.00     0.043 A 
HETATM   30  C   UNL     1       7.833  21.467  54.705  1.00  0.00     0.116 A 
HETATM   31  F   UNL     1       7.790  20.260  55.284  1.00  0.00    -0.206 F 
HETATM   32  C   UNL     1       7.826  21.563  53.321  1.00  0.00     0.043 A 
HETATM   33  C   UNL     1       7.873  22.821  52.716  1.00  0.00     0.012 A 
ENDBRANCH   6  27
TORSDOF 5
ENDMDL
MODEL 6
REMARK VINA RESULT:      -8.9      5.388      9.604
REMARK  5 active torsions:
REMARK  status: ('A' for Active; 'I' for Inactive)
REMARK    1  A    between atoms: C_3  and  O_4 
REMARK    2  A    between atoms: C_6  and  N_7 
REMARK       I    between atoms: N_7  and  C_8 
REMARK    3  A    between atoms: C_8  and  C_9 
REMARK    4  A    between atoms: C_14  and  C_15 
REMARK    5  A    between atoms: C_23  and  C_24 
ROOT
HETATM    1  C   UNL     1       5.535  28.221  52.526  1.00  0.00     0.148 A 
HETATM    2  N   UNL     1       4.734  28.486  53.585  1.00  0.00    -0.165 NA
HETATM    3  N   UNL     1       5.521  28.220  54.645  1.00  0.00    -0.240 N 
HETATM    4  C   UNL     1       6.744  27.711  54.315  1.00  0.00     0.123 A 
HETATM    5  N   UNL     1       7.631  27.316  55.251  1.00  0.00    -0.366 N 
HETATM    6  C   UNL     1       7.402  27.507  56.678  1.00  0.00     0.118 C 
HETATM    7  C   UNL     1       5.895  27.572  56.989  1.00  0.00     0.066 C 
HETATM    8  C   UNL     1       5.066  28.423  56.008  1.00  0.00     0.221 C 
HETATM    9  C   UNL     1       6.797  27.722  52.947  1.00  0.00     0.089 A 
HETATM   10  H   UNL     1       8.578  27.043  54.993  1.00  0.00     0.161 HD
ENDROOT
BRANCH   1  11
HETATM   11  C   UNL     1       5.099  28.438  51.133  1.00  0.00     0.276 C 
HETATM   12  N   UNL     1       4.004  27.661  50.810  1.00  0.00    -0.322 N 
HETATM   13  H   UNL     1       3.702  27.054  51.568  1.00  0.00     0.169 HD
HETATM   14  O   UNL     1       5.687  29.224  50.400  1.00  0.00    -0.266 OA
BRANCH  12  15
HETATM   15  C   UNL     1       3.291  27.621  49.600  1.00  0.00     0.037 A 
HETATM   16  C   UNL     1       3.521  26.684  48.591  1.00  0.00     0.066 A 
HETATM   17  C   UNL     1       2.774  26.728  47.415  1.00  0.00     0.067 A 
HETATM   18  C   UNL     1       1.786  27.689  47.226  1.00  0.00     0.036 A 
HETATM   19  C   UNL     1       1.547  28.624  48.231  1.00  0.00     0.005 A 
HETATM   20  C   UNL     1       2.299  28.592  49.410  1.00  0.00     0.029 A 
BRANCH  17  21
HETATM   21  O   UNL     1       3.047  25.800  46.453  1.00  0.00    -0.361 OA
HETATM   22  H   UNL     1       3.038  26.235  45.586  1.00  0.00     0.217 HD
ENDBRANCH  17  21
ENDBRANCH  12  15
ENDBRANCH   1  11
BRANCH   8  23
HETATM   23  C   UNL     1       5.053  29.898  56.338  1.00  0.00     0.409 C 
HETATM   24  F   UNL     1       6.135  30.568  55.901  1.00  0.00    -0.169 F 
HETATM   25  F   UNL     1       3.961  30.518  55.829  1.00  0.00    -0.169 F 
HETATM   26  F   UNL     1       4.990  30.074  57.684  1.00  0.00    -0.169 F 
ENDBRANCH   8  23
BRANCH   6  27
HETATM   27  C   UNL     1       8.235  28.638  57.259  1.00  0.00    -0.035 A 
HETATM   28  C   UNL     1       7.923  29.270  58.477  1.00  0.00     0.012 A 
HETATM   29  C   UNL     1       8.702  30.325  58.959  1.00  0.00     0.043 A 
HETATM   30  C   UNL     1       9.794  30.763  58.224  1.00  0.00     0.116 A 
HETATM   31  F   UNL     1      10.536  31.779  58.683  1.00  0.00    -0.206 F 
HETATM   32  C   UNL     1      10.124  30.164  57.017  1.00  0.00     0.043 A 
HETATM   33  C   UNL     1       9.350  29.106  56.536  1.00  0.00     0.012 A 
ENDBRANCH   6  27
TORSDOF 5
ENDMDL
MODEL 7
REMARK VINA RESULT:      -8.3      4.564      5.448
REMARK  5 active torsions:
REMARK  status: ('A' for Active; 'I' for Inactive)
REMARK    1  A    between atoms: C_3  and  O_4 
REMARK    2  A    between atoms: C_6  and  N_7 
REMARK       I    between atoms: N_7  and  C_8 
REMARK    3  A    between atoms: C_8  and  C_9 
REMARK    4  A    between atoms: C_14  and  C_15 
REMARK    5  A    between atoms: C_23  and  C_24 
ROOT
HETATM    1  C   UNL     1       6.142  28.760  54.867  1.00  0.00     0.148 A 
HETATM    2  N   UNL     1       5.369  28.150  53.939  1.00  0.00    -0.165 NA
HETATM    3  N   UNL     1       6.149  27.144  53.496  1.00  0.00    -0.240 N 
HETATM    4  C   UNL     1       7.407  27.143  54.026  1.00  0.00     0.123 A 
HETATM    5  N   UNL     1       8.345  26.254  53.639  1.00  0.00    -0.366 N 
HETATM    6  C   UNL     1       8.057  25.162  52.717  1.00  0.00     0.118 C 
HETATM    7  C   UNL     1       6.871  25.515  51.801  1.00  0.00     0.066 C 
HETATM    8  C   UNL     1       5.681  26.189  52.510  1.00  0.00     0.221 C 
HETATM    9  C   UNL     1       7.430  28.162  54.939  1.00  0.00     0.089 A 
HETATM   10  H   UNL     1       9.241  26.195  54.120  1.00  0.00     0.161 HD
ENDROOT
BRANCH   1  11
HETATM   11  C   UNL     1       5.660  29.899  55.671  1.00  0.00     0.276 C 
HETATM   12  N   UNL     1       4.972  30.816  54.902  1.00  0.00    -0.322 N 
HETATM   13  H   UNL     1       4.938  30.572  53.916  1.00  0.00     0.169 HD
HETATM   14  O   UNL     1       5.882  29.966  56.874  1.00  0.00    -0.266 OA
BRANCH  12  15
HETATM   15  C   UNL     1       4.338  32.001  55.316  1.00  0.00     0.037 A 
HETATM   16  C   UNL     1       4.991  33.044  55.976  1.00  0.00     0.066 A 
HETATM   17  C   UNL     1       4.278  34.178  56.363  1.00  0.00     0.067 A 
HETATM   18  C   UNL     1       2.918  34.299  56.095  1.00  0.00     0.036 A 
HETATM   19  C   UNL     1       2.261  33.264  55.433  1.00  0.00     0.005 A 
HETATM   20  C   UNL     1       2.967  32.119  55.050  1.00  0.00     0.029 A 
BRANCH  17  21
HETATM   21  O   UNL     1       4.958  35.163  57.018  1.00  0.00    -0.361 OA
HETATM   22  H   UNL     1       5.101  34.887  57.938  1.00  0.00     0.217 HD
ENDBRANCH  17  21
ENDBRANCH  12  15
ENDBRANCH   1  11
BRANCH   8  23
HETATM   23  C   UNL     1       4.715  25.214  53.146  1.00  0.00     0.409 C 
HETATM   24  F   UNL     1       5.032  24.874  54.408  1.00  0.00    -0.169 F 
HETATM   25  F   UNL     1       3.450  25.698  53.162  1.00  0.00    -0.169 F 
HETATM   26  F   UNL     1       4.669  24.066  52.421  1.00  0.00    -0.169 F 
ENDBRANCH   8  23
BRANCH   6  27
HETATM   27  C   UNL     1       7.962  23.816  53.415  1.00  0.00    -0.035 A 
HETATM   28  C   UNL     1       7.885  22.596  52.717  1.00  0.00     0.012 A 
HETATM   29  C   UNL     1       7.770  21.383  53.400  1.00  0.00     0.043 A 
HETATM   30  C   UNL     1       7.722  21.379  54.787  1.00  0.00     0.116 A 
HETATM   31  F   UNL     1       7.604  20.217  55.442  1.00  0.00    -0.206 F 
HETATM   32  C   UNL     1       7.790  22.565  55.504  1.00  0.00     0.043 A 
HETATM   33  C   UNL     1       7.911  23.778  54.822  1.00  0.00     0.012 A 
ENDBRANCH   6  27
TORSDOF 5
ENDMDL
MODEL 8
REMARK VINA RESULT:      -8.2      7.361     10.022
REMARK  5 active torsions:
REMARK  status: ('A' for Active; 'I' for Inactive)
REMARK    1  A    between atoms: C_3  and  O_4 
REMARK    2  A    between atoms: C_6  and  N_7 
REMARK       I    between atoms: N_7  and  C_8 
REMARK    3  A    between atoms: C_8  and  C_9 
REMARK    4  A    between atoms: C_14  and  C_15 
REMARK    5  A    between atoms: C_23  and  C_24 
ROOT
HETATM    1  C   UNL     1       5.442  27.187  52.791  1.00  0.00     0.148 A 
HETATM    2  N   UNL     1       4.944  26.755  51.608  1.00  0.00    -0.165 NA
HETATM    3  N   UNL     1       4.399  27.866  51.076  1.00  0.00    -0.240 N 
HETATM    4  C   UNL     1       4.442  28.955  51.899  1.00  0.00     0.123 A 
HETATM    5  N   UNL     1       3.875  30.131  51.558  1.00  0.00    -0.366 N 
HETATM    6  C   UNL     1       3.278  30.364  50.249  1.00  0.00     0.118 C 
HETATM    7  C   UNL     1       2.804  29.041  49.618  1.00  0.00     0.066 C 
HETATM    8  C   UNL     1       3.788  27.864  49.760  1.00  0.00     0.221 C 
HETATM    9  C   UNL     1       5.134  28.558  53.010  1.00  0.00     0.089 A 
HETATM   10  H   UNL     1       4.009  30.962  52.132  1.00  0.00     0.161 HD
ENDROOT
BRANCH   1  11
HETATM   11  C   UNL     1       6.196  26.303  53.700  1.00  0.00     0.276 C 
HETATM   12  N   UNL     1       6.342  25.033  53.179  1.00  0.00    -0.322 N 
HETATM   13  H   UNL     1       5.884  24.911  52.280  1.00  0.00     0.169 HD
HETATM   14  O   UNL     1       6.613  26.709  54.778  1.00  0.00    -0.266 OA
BRANCH  12  15
HETATM   15  C   UNL     1       7.025  23.936  53.732  1.00  0.00     0.037 A 
HETATM   16  C   UNL     1       7.222  23.751  55.102  1.00  0.00     0.066 A 
HETATM   17  C   UNL     1       7.926  22.639  55.561  1.00  0.00     0.067 A 
HETATM   18  C   UNL     1       8.435  21.694  54.675  1.00  0.00     0.036 A 
HETATM   19  C   UNL     1       8.239  21.870  53.307  1.00  0.00     0.005 A 
HETATM   20  C   UNL     1       7.541  22.988  52.838  1.00  0.00     0.029 A 
BRANCH  17  21
HETATM   21  O   UNL     1       8.104  22.510  56.907  1.00  0.00    -0.361 OA
HETATM   22  H   UNL     1       8.604  23.276  57.232  1.00  0.00     0.217 HD
ENDBRANCH  17  21
ENDBRANCH  12  15
ENDBRANCH   1  11
BRANCH   8  23
HETATM   23  C   UNL     1       4.855  27.826  48.690  1.00  0.00     0.409 C 
HETATM   24  F   UNL     1       5.991  28.462  49.026  1.00  0.00    -0.169 F 
HETATM   25  F   UNL     1       5.186  26.556  48.355  1.00  0.00    -0.169 F 
HETATM   26  F   UNL     1       4.393  28.406  47.551  1.00  0.00    -0.169 F 
ENDBRANCH   8  23
BRANCH   6  27
HETATM   27  C   UNL     1       4.146  31.235  49.356  1.00  0.00    -0.035 A 
HETATM   28  C   UNL     1       3.774  31.601  48.050  1.00  0.00     0.012 A 
HETATM   29  C   UNL     1       4.615  32.381  47.254  1.00  0.00     0.043 A 
HETATM   30  C   UNL     1       5.842  32.795  47.754  1.00  0.00     0.116 A 
HETATM   31  F   UNL     1       6.653  33.537  46.989  1.00  0.00    -0.206 F 
HETATM   32  C   UNL     1       6.241  32.446  49.037  1.00  0.00     0.043 A 
HETATM   33  C   UNL     1       5.397  31.671  49.835  1.00  0.00     0.012 A 
ENDBRANCH   6  27
TORSDOF 5
ENDMDL
MODEL 9
REMARK VINA RESULT:      -8.0      4.105      9.067
REMARK  5 active torsions:
REMARK  status: ('A' for Active; 'I' for Inactive)
REMARK    1  A    between atoms: C_3  and  O_4 
REMARK    2  A    between atoms: C_6  and  N_7 
REMARK       I    between atoms: N_7  and  C_8 
REMARK    3  A    between atoms: C_8  and  C_9 
REMARK    4  A    between atoms: C_14  and  C_15 
REMARK    5  A    between atoms: C_23  and  C_24 
ROOT
HETATM    1  C   UNL     1       6.464  26.244  56.298  1.00  0.00     0.148 A 
HETATM    2  N   UNL     1       7.238  27.340  56.115  1.00  0.00    -0.165 NA
HETATM    3  N   UNL     1       6.364  28.360  56.223  1.00  0.00    -0.240 N 
HETATM    4  C   UNL     1       5.065  27.964  56.370  1.00  0.00     0.123 A 
HETATM    5  N   UNL     1       4.049  28.851  56.417  1.00  0.00    -0.366 N 
HETATM    6  C   UNL     1       4.266  30.292  56.431  1.00  0.00     0.118 C 
HETATM    7  C   UNL     1       5.604  30.653  55.760  1.00  0.00     0.066 C 
HETATM    8  C   UNL     1       6.788  29.744  56.143  1.00  0.00     0.221 C 
HETATM    9  C   UNL     1       5.096  26.598  56.448  1.00  0.00     0.089 A 
HETATM   10  H   UNL     1       3.101  28.549  56.636  1.00  0.00     0.161 HD
ENDROOT
BRANCH   1  11
HETATM   11  C   UNL     1       7.023  24.879  56.324  1.00  0.00     0.276 C 
HETATM   12  N   UNL     1       6.937  24.264  55.091  1.00  0.00    -0.322 N 
HETATM   13  H   UNL     1       6.481  24.837  54.385  1.00  0.00     0.169 HD
HETATM   14  O   UNL     1       7.489  24.404  57.352  1.00  0.00    -0.266 OA
BRANCH  12  15
HETATM   15  C   UNL     1       7.393  22.988  54.719  1.00  0.00     0.037 A 
HETATM   16  C   UNL     1       7.659  21.960  55.626  1.00  0.00     0.066 A 
HETATM   17  C   UNL     1       8.123  20.728  55.167  1.00  0.00     0.067 A 
HETATM   18  C   UNL     1       8.320  20.494  53.810  1.00  0.00     0.036 A 
HETATM   19  C   UNL     1       8.052  21.513  52.899  1.00  0.00     0.005 A 
HETATM   20  C   UNL     1       7.595  22.755  53.352  1.00  0.00     0.029 A 
BRANCH  17  21
HETATM   21  O   UNL     1       8.382  19.762  56.095  1.00  0.00    -0.361 OA
HETATM   22  H   UNL     1       9.002  19.120  55.714  1.00  0.00     0.217 HD
ENDBRANCH  17  21
ENDBRANCH  12  15
ENDBRANCH   1  11
BRANCH   8  23
HETATM   23  C   UNL     1       7.484  30.152  57.422  1.00  0.00     0.409 C 
HETATM   24  F   UNL     1       7.390  31.465  57.702  1.00  0.00    -0.169 F 
HETATM   25  F   UNL     1       7.005  29.475  58.493  1.00  0.00    -0.169 F 
HETATM   26  F   UNL     1       8.807  29.852  57.349  1.00  0.00    -0.169 F 
ENDBRANCH   8  23
BRANCH   6  27
HETATM   27  C   UNL     1       4.040  30.905  57.803  1.00  0.00    -0.035 A 
HETATM   28  C   UNL     1       3.258  30.290  58.797  1.00  0.00     0.012 A 
HETATM   29  C   UNL     1       3.055  30.903  60.035  1.00  0.00     0.043 A 
HETATM   30  C   UNL     1       3.625  32.143  60.287  1.00  0.00     0.116 A 
HETATM   31  F   UNL     1       3.424  32.735  61.471  1.00  0.00    -0.206 F 
HETATM   32  C   UNL     1       4.397  32.779  59.326  1.00  0.00     0.043 A 
HETATM   33  C   UNL     1       4.605  32.164  58.089  1.00  0.00     0.012 A 
ENDBRANCH   6  27
TORSDOF 5
ENDMDL
MODEL 10
REMARK VINA RESULT:      -7.8      4.496      9.177
REMARK  5 active torsions:
REMARK  status: ('A' for Active; 'I' for Inactive)
REMARK    1  A    between atoms: C_3  and  O_4 
REMARK    2  A    between atoms: C_6  and  N_7 
REMARK       I    between atoms: N_7  and  C_8 
REMARK    3  A    between atoms: C_8  and  C_9 
REMARK    4  A    between atoms: C_14  and  C_15 
REMARK    5  A    between atoms: C_23  and  C_24 
ROOT
HETATM    1  C   UNL     1       6.590  26.078  54.642  1.00  0.00     0.148 A 
HETATM    2  N   UNL     1       7.554  26.580  55.449  1.00  0.00    -0.165 NA
HETATM    3  N   UNL     1       7.167  27.856  55.639  1.00  0.00    -0.240 N 
HETATM    4  C   UNL     1       6.063  28.214  54.920  1.00  0.00     0.123 A 
HETATM    5  N   UNL     1       5.581  29.475  54.930  1.00  0.00    -0.366 N 
HETATM    6  C   UNL     1       6.129  30.516  55.791  1.00  0.00     0.118 C 
HETATM    7  C   UNL     1       7.601  30.226  56.138  1.00  0.00     0.066 C 
HETATM    8  C   UNL     1       7.905  28.760  56.501  1.00  0.00     0.221 C 
HETATM    9  C   UNL     1       5.646  27.078  54.282  1.00  0.00     0.089 A 
HETATM   10  H   UNL     1       4.696  29.701  54.479  1.00  0.00     0.161 HD
ENDROOT
BRANCH   1  11
HETATM   11  C   UNL     1       6.572  24.664  54.218  1.00  0.00     0.276 C 
HETATM   12  N   UNL     1       7.562  23.929  54.839  1.00  0.00    -0.322 N 
HETATM   13  H   UNL     1       8.151  24.483  55.455  1.00  0.00     0.169 HD
HETATM   14  O   UNL     1       5.753  24.257  53.404  1.00  0.00    -0.266 OA
BRANCH  12  15
HETATM   15  C   UNL     1       7.833  22.555  54.719  1.00  0.00     0.037 A 
HETATM   16  C   UNL     1       7.946  21.887  53.498  1.00  0.00     0.066 A 
HETATM   17  C   UNL     1       8.203  20.517  53.474  1.00  0.00     0.067 A 
HETATM   18  C   UNL     1       8.359  19.794  54.653  1.00  0.00     0.036 A 
HETATM   19  C   UNL     1       8.251  20.454  55.874  1.00  0.00     0.005 A 
HETATM   20  C   UNL     1       7.985  21.827  55.907  1.00  0.00     0.029 A 
BRANCH  17  21
HETATM   21  O   UNL     1       8.291  19.908  52.257  1.00  0.00    -0.361 OA
HETATM   22  H   UNL     1       9.049  20.277  51.776  1.00  0.00     0.217 HD
ENDBRANCH  17  21
ENDBRANCH  12  15
ENDBRANCH   1  11
BRANCH   8  23
HETATM   23  C   UNL     1       7.646  28.423  57.952  1.00  0.00     0.409 C 
HETATM   24  F   UNL     1       8.229  27.282  58.362  1.00  0.00    -0.169 F 
HETATM   25  F   UNL     1       8.063  29.410  58.780  1.00  0.00    -0.169 F 
HETATM   26  F   UNL     1       6.311  28.291  58.169  1.00  0.00    -0.169 F 
ENDBRANCH   8  23
BRANCH   6  27
HETATM   27  C   UNL     1       5.231  30.828  56.977  1.00  0.00    -0.035 A 
HETATM   28  C   UNL     1       3.944  30.279  57.128  1.00  0.00     0.012 A 
HETATM   29  C   UNL     1       3.142  30.616  58.220  1.00  0.00     0.043 A 
HETATM   30  C   UNL     1       3.616  31.512  59.168  1.00  0.00     0.116 A 
HETATM   31  F   UNL     1       2.844  31.841  60.212  1.00  0.00    -0.206 F 
HETATM   32  C   UNL     1       4.878  32.075  59.045  1.00  0.00     0.043 A 
HETATM   33  C   UNL     1       5.683  31.735  57.956  1.00  0.00     0.012 A 
ENDBRANCH   6  27
TORSDOF 5
ENDMDL
