MODEL 1
REMARK VINA RESULT:     -10.6      0.000      0.000
REMARK  5 active torsions:
REMARK  status: ('A' for Active; 'I' for Inactive)
REMARK    1  A    between atoms: C_3  and  O_4 
REMARK    2  A    between atoms: C_6  and  N_7 
REMARK       I    between atoms: N_7  and  C_8 
REMARK    3  A    between atoms: C_8  and  C_9 
REMARK    4  A    between atoms: C_14  and  C_15 
REMARK    5  A    between atoms: C_23  and  C_24 
ROOT
HETATM    1  C   UNL     1       8.113  28.578  56.875  1.00  0.00     0.148 A 
HETATM    2  N   UNL     1       8.138  28.714  55.526  1.00  0.00    -0.165 NA
HETATM    3  N   UNL     1       7.556  27.579  55.094  1.00  0.00    -0.240 N 
HETATM    4  C   UNL     1       7.281  26.681  56.085  1.00  0.00     0.123 A 
HETATM    5  N   UNL     1       6.846  25.438  55.799  1.00  0.00    -0.366 N 
HETATM    6  C   UNL     1       6.805  24.909  54.438  1.00  0.00     0.118 C 
HETATM    7  C   UNL     1       7.616  25.785  53.459  1.00  0.00     0.066 C 
HETATM    8  C   UNL     1       7.374  27.285  53.687  1.00  0.00     0.221 C 
HETATM    9  C   UNL     1       7.558  27.324  57.260  1.00  0.00     0.089 A 
HETATM   10  H   UNL     1       6.607  24.776  56.539  1.00  0.00     0.161 HD
ENDROOT
BRANCH   1  11
HETATM   11  C   UNL     1       8.658  29.608  57.779  1.00  0.00     0.276 C 
HETATM   12  N   UNL     1       7.894  29.739  58.922  1.00  0.00    -0.322 N 
HETATM   13  H   UNL     1       7.100  29.104  58.950  1.00  0.00     0.169 HD
HETATM   14  O   UNL     1       9.652  30.258  57.478  1.00  0.00    -0.266 OA
BRANCH  12  15
HETATM   15  C   UNL     1       8.056  30.646  59.982  1.00  0.00     0.037 A 
HETATM   16  C   UNL     1       7.166  31.683  60.264  1.00  0.00     0.066 A 
HETATM   17  C   UNL     1       7.406  32.532  61.345  1.00  0.00     0.067 A 
HETATM   18  C   UNL     1       8.522  32.364  62.157  1.00  0.00     0.036 A 
HETATM   19  C   UNL     1       9.415  31.332  61.881  1.00  0.00     0.005 A 
HETATM   20  C   UNL     1       9.185  30.480  60.797  1.00  0.00     0.029 A 
BRANCH  17  21
HETATM   21  O   UNL     1       6.510  33.535  61.575  1.00  0.00    -0.361 OA
HETATM   22  H   UNL     1       5.611  33.175  61.506  1.00  0.00     0.217 HD
ENDBRANCH  17  21
ENDBRANCH  12  15
ENDBRANCH   1  11
BRANCH   8  23
HETATM   23  C   UNL     1       6.001  27.732  53.239  1.00  0.00     0.409 C 
HETATM   24  F   UNL     1       5.155  27.916  54.275  1.00  0.00    -0.169 F 
HETATM   25  F   UNL     1       6.097  28.929  52.603  1.00  0.00    -0.169 F 
HETATM   26  F   UNL     1       5.412  26.883  52.370  1.00  0.00    -0.169 F 
ENDBRANCH   8  23
BRANCH   6  27
HETATM   27  C   UNL     1       7.332  23.482  54.449  1.00  0.00    -0.035 A 
HETATM   28  C   UNL     1       7.512  22.799  55.663  1.00  0.00     0.012 A 
HETATM   29  C   UNL     1       7.996  21.488  55.670  1.00  0.00     0.043 A 
HETATM   30  C   UNL     1       8.300  20.857  54.470  1.00  0.00     0.116 A 
HETATM   31  F   UNL     1       8.763  19.602  54.483  1.00  0.00    -0.206 F 
HETATM   32  C   UNL     1       8.131  21.512  53.257  1.00  0.00     0.043 A 
HETATM   33  C   UNL     1       7.650  22.820  53.246  1.00  0.00     0.012 A 
ENDBRANCH   6  27
TORSDOF 5
ENDMDL
MODEL 2
REMARK VINA RESULT:     -10.3      1.517      2.024
REMARK  5 active torsions:
REMARK  status: ('A' for Active; 'I' for Inactive)
REMARK    1  A    between atoms: C_3  and  O_4 
REMARK    2  A    between atoms: C_6  and  N_7 
REMARK       I    between atoms: N_7  and  C_8 
REMARK    3  A    between atoms: C_8  and  C_9 
REMARK    4  A    between atoms: C_14  and  C_15 
REMARK    5  A    between atoms: C_23  and  C_24 
ROOT
HETATM    1  C   UNL     1       6.896  28.182  55.553  1.00  0.00     0.148 A 
HETATM    2  N   UNL     1       7.206  28.143  54.233  1.00  0.00    -0.165 NA
HETATM    3  N   UNL     1       6.897  26.880  53.884  1.00  0.00    -0.240 N 
HETATM    4  C   UNL     1       6.530  26.085  54.932  1.00  0.00     0.123 A 
HETATM    5  N   UNL     1       6.344  24.760  54.772  1.00  0.00    -0.366 N 
HETATM    6  C   UNL     1       6.684  24.059  53.536  1.00  0.00     0.118 C 
HETATM    7  C   UNL     1       7.568  24.924  52.611  1.00  0.00     0.066 C 
HETATM    8  C   UNL     1       7.079  26.379  52.537  1.00  0.00     0.221 C 
HETATM    9  C   UNL     1       6.444  26.914  56.017  1.00  0.00     0.089 A 
HETATM   10  H   UNL     1       6.037  24.170  55.545  1.00  0.00     0.161 HD
ENDROOT
BRANCH   1  11
HETATM   11  C   UNL     1       7.076  29.398  56.367  1.00  0.00     0.276 C 
HETATM   12  N   UNL     1       8.104  29.254  57.279  1.00  0.00    -0.322 N 
HETATM   13  H   UNL     1       8.562  28.347  57.227  1.00  0.00     0.169 HD
HETATM   14  O   UNL     1       6.348  30.373  56.226  1.00  0.00    -0.266 OA
BRANCH  12  15
HETATM   15  C   UNL     1       8.537  30.162  58.259  1.00  0.00     0.037 A 
HETATM   16  C   UNL     1       7.860  30.399  59.456  1.00  0.00     0.066 A 
HETATM   17  C   UNL     1       8.370  31.316  60.374  1.00  0.00     0.067 A 
HETATM   18  C   UNL     1       9.552  32.004  60.124  1.00  0.00     0.036 A 
HETATM   19  C   UNL     1      10.233  31.772  58.930  1.00  0.00     0.005 A 
HETATM   20  C   UNL     1       9.725  30.859  58.002  1.00  0.00     0.029 A 
BRANCH  17  21
HETATM   21  O   UNL     1       7.667  31.518  61.527  1.00  0.00    -0.361 OA
HETATM   22  H   UNL     1       7.300  30.670  61.823  1.00  0.00     0.217 HD
ENDBRANCH  17  21
ENDBRANCH  12  15
ENDBRANCH   1  11
BRANCH   8  23
HETATM   23  C   UNL     1       5.795  26.525  51.753  1.00  0.00     0.409 C 
HETATM   24  F   UNL     1       4.702  26.511  52.545  1.00  0.00    -0.169 F 
HETATM   25  F   UNL     1       5.789  27.723  51.110  1.00  0.00    -0.169 F 
HETATM   26  F   UNL     1       5.630  25.581  50.803  1.00  0.00    -0.169 F 
ENDBRANCH   8  23
BRANCH   6  27
HETATM   27  C   UNL     1       7.384  22.755  53.887  1.00  0.00    -0.035 A 
HETATM   28  C   UNL     1       7.871  21.913  52.874  1.00  0.00     0.012 A 
HETATM   29  C   UNL     1       8.514  20.716  53.198  1.00  0.00     0.043 A 
HETATM   30  C   UNL     1       8.674  20.357  54.531  1.00  0.00     0.116 A 
HETATM   31  F   UNL     1       9.290  19.209  54.837  1.00  0.00    -0.206 F 
HETATM   32  C   UNL     1       8.200  21.172  55.551  1.00  0.00     0.043 A 
HETATM   33  C   UNL     1       7.557  22.367  55.231  1.00  0.00     0.012 A 
ENDBRANCH   6  27
TORSDOF 5
ENDMDL
MODEL 3
REMARK VINA RESULT:     -10.2      2.932      4.573
REMARK  5 active torsions:
REMARK  status: ('A' for Active; 'I' for Inactive)
REMARK    1  A    between atoms: C_3  and  O_4 
REMARK    2  A    between atoms: C_6  and  N_7 
REMARK       I    between atoms: N_7  and  C_8 
REMARK    3  A    between atoms: C_8  and  C_9 
REMARK    4  A    between atoms: C_14  and  C_15 
REMARK    5  A    between atoms: C_23  and  C_24 
ROOT
HETATM    1  C   UNL     1       6.861  31.296  58.760  1.00  0.00     0.148 A 
HETATM    2  N   UNL     1       7.961  30.508  58.860  1.00  0.00    -0.165 NA
HETATM    3  N   UNL     1       8.021  29.915  57.653  1.00  0.00    -0.240 N 
HETATM    4  C   UNL     1       6.954  30.185  56.844  1.00  0.00     0.123 A 
HETATM    5  N   UNL     1       6.787  29.544  55.671  1.00  0.00    -0.366 N 
HETATM    6  C   UNL     1       7.617  28.413  55.264  1.00  0.00     0.118 C 
HETATM    7  C   UNL     1       8.435  27.849  56.446  1.00  0.00     0.066 C 
HETATM    8  C   UNL     1       9.055  28.962  57.305  1.00  0.00     0.221 C 
HETATM    9  C   UNL     1       6.221  31.136  57.499  1.00  0.00     0.089 A 
HETATM   10  H   UNL     1       6.009  29.769  55.050  1.00  0.00     0.161 HD
ENDROOT
BRANCH   1  11
HETATM   11  C   UNL     1       6.403  32.149  59.873  1.00  0.00     0.276 C 
HETATM   12  N   UNL     1       6.989  31.785  61.070  1.00  0.00    -0.322 N 
HETATM   13  H   UNL     1       7.637  31.006  60.979  1.00  0.00     0.169 HD
HETATM   14  O   UNL     1       5.574  33.034  59.697  1.00  0.00    -0.266 OA
BRANCH  12  15
HETATM   15  C   UNL     1       6.764  32.317  62.350  1.00  0.00     0.037 A 
HETATM   16  C   UNL     1       5.497  32.510  62.902  1.00  0.00     0.066 A 
HETATM   17  C   UNL     1       5.370  33.038  64.187  1.00  0.00     0.067 A 
HETATM   18  C   UNL     1       6.490  33.376  64.939  1.00  0.00     0.036 A 
HETATM   19  C   UNL     1       7.758  33.186  64.394  1.00  0.00     0.005 A 
HETATM   20  C   UNL     1       7.893  32.663  63.105  1.00  0.00     0.029 A 
BRANCH  17  21
HETATM   21  O   UNL     1       4.110  33.215  64.680  1.00  0.00    -0.361 OA
HETATM   22  H   UNL     1       3.928  32.519  65.331  1.00  0.00     0.217 HD
ENDBRANCH  17  21
ENDBRANCH  12  15
ENDBRANCH   1  11
BRANCH   8  23
HETATM   23  C   UNL     1      10.197  29.669  56.611  1.00  0.00     0.409 C 
HETATM   24  F   UNL     1      10.367  30.933  57.056  1.00  0.00    -0.169 F 
HETATM   25  F   UNL     1      11.360  29.012  56.864  1.00  0.00    -0.169 F 
HETATM   26  F   UNL     1      10.069  29.717  55.268  1.00  0.00    -0.169 F 
ENDBRANCH   8  23
BRANCH   6  27
HETATM   27  C   UNL     1       6.723  27.338  54.665  1.00  0.00    -0.035 A 
HETATM   28  C   UNL     1       5.540  27.687  53.995  1.00  0.00     0.012 A 
HETATM   29  C   UNL     1       4.720  26.698  53.445  1.00  0.00     0.043 A 
HETATM   30  C   UNL     1       5.079  25.361  53.562  1.00  0.00     0.116 A 
HETATM   31  F   UNL     1       4.290  24.417  53.034  1.00  0.00    -0.206 F 
HETATM   32  C   UNL     1       6.243  24.989  54.221  1.00  0.00     0.043 A 
HETATM   33  C   UNL     1       7.062  25.974  54.772  1.00  0.00     0.012 A 
ENDBRANCH   6  27
TORSDOF 5
ENDMDL
MODEL 4
REMARK VINA RESULT:     -10.2      4.835      8.693
REMARK  5 active torsions:
REMARK  status: ('A' for Active; 'I' for Inactive)
REMARK    1  A    between atoms: C_3  and  O_4 
REMARK    2  A    between atoms: C_6  and  N_7 
REMARK       I    between atoms: N_7  and  C_8 
REMARK    3  A    between atoms: C_8  and  C_9 
REMARK    4  A    between atoms: C_14  and  C_15 
REMARK    5  A    between atoms: C_23  and  C_24 
ROOT
HETATM    1  C   UNL     1       5.740  26.790  51.586  1.00  0.00     0.148 A 
HETATM    2  N   UNL     1       5.376  27.146  52.844  1.00  0.00    -0.165 NA
HETATM    3  N   UNL     1       6.261  26.487  53.614  1.00  0.00    -0.240 N 
HETATM    4  C   UNL     1       7.080  25.639  52.925  1.00  0.00     0.123 A 
HETATM    5  N   UNL     1       7.909  24.793  53.568  1.00  0.00    -0.366 N 
HETATM    6  C   UNL     1       7.871  24.597  55.015  1.00  0.00     0.118 C 
HETATM    7  C   UNL     1       6.588  25.186  55.639  1.00  0.00     0.066 C 
HETATM    8  C   UNL     1       6.244  26.568  55.061  1.00  0.00     0.221 C 
HETATM    9  C   UNL     1       6.822  25.866  51.601  1.00  0.00     0.089 A 
HETATM   10  H   UNL     1       8.546  24.183  53.054  1.00  0.00     0.161 HD
ENDROOT
BRANCH   1  11
HETATM   11  C   UNL     1       5.030  27.287  50.393  1.00  0.00     0.276 C 
HETATM   12  N   UNL     1       4.056  26.403  49.973  1.00  0.00    -0.322 N 
HETATM   13  H   UNL     1       3.989  25.573  50.557  1.00  0.00     0.169 HD
HETATM   14  O   UNL     1       5.338  28.349  49.865  1.00  0.00    -0.266 OA
BRANCH  12  15
HETATM   15  C   UNL     1       3.217  26.495  48.850  1.00  0.00     0.037 A 
HETATM   16  C   UNL     1       3.282  25.631  47.756  1.00  0.00     0.066 A 
HETATM   17  C   UNL     1       2.402  25.795  46.686  1.00  0.00     0.067 A 
HETATM   18  C   UNL     1       1.449  26.808  46.688  1.00  0.00     0.036 A 
HETATM   19  C   UNL     1       1.379  27.674  47.777  1.00  0.00     0.005 A 
HETATM   20  C   UNL     1       2.261  27.520  48.850  1.00  0.00     0.029 A 
BRANCH  17  21
HETATM   21  O   UNL     1       2.510  24.930  45.636  1.00  0.00    -0.361 OA
HETATM   22  H   UNL     1       2.409  24.023  45.966  1.00  0.00     0.217 HD
ENDBRANCH  17  21
ENDBRANCH  12  15
ENDBRANCH   1  11
BRANCH   8  23
HETATM   23  C   UNL     1       7.190  27.650  55.530  1.00  0.00     0.409 C 
HETATM   24  F   UNL     1       8.139  27.938  54.614  1.00  0.00    -0.169 F 
HETATM   25  F   UNL     1       6.496  28.801  55.740  1.00  0.00    -0.169 F 
HETATM   26  F   UNL     1       7.811  27.361  56.693  1.00  0.00    -0.169 F 
ENDBRANCH   8  23
BRANCH   6  27
HETATM   27  C   UNL     1       7.982  23.110  55.312  1.00  0.00    -0.035 A 
HETATM   28  C   UNL     1       7.773  22.163  54.296  1.00  0.00     0.012 A 
HETATM   29  C   UNL     1       7.876  20.797  54.571  1.00  0.00     0.043 A 
HETATM   30  C   UNL     1       8.188  20.373  55.857  1.00  0.00     0.116 A 
HETATM   31  F   UNL     1       8.285  19.063  56.116  1.00  0.00    -0.206 F 
HETATM   32  C   UNL     1       8.398  21.289  56.880  1.00  0.00     0.043 A 
HETATM   33  C   UNL     1       8.295  22.653  56.608  1.00  0.00     0.012 A 
ENDBRANCH   6  27
TORSDOF 5
ENDMDL
MODEL 5
REMARK VINA RESULT:      -9.8      4.886      8.495
REMARK  5 active torsions:
REMARK  status: ('A' for Active; 'I' for Inactive)
REMARK    1  A    between atoms: C_3  and  O_4 
REMARK    2  A    between atoms: C_6  and  N_7 
REMARK       I    between atoms: N_7  and  C_8 
REMARK    3  A    between atoms: C_8  and  C_9 
REMARK    4  A    between atoms: C_14  and  C_15 
REMARK    5  A    between atoms: C_23  and  C_24 
ROOT
HETATM    1  C   UNL     1       4.677  27.686  51.746  1.00  0.00     0.148 A 
HETATM    2  N   UNL     1       4.777  27.917  53.078  1.00  0.00    -0.165 NA
HETATM    3  N   UNL     1       5.856  27.194  53.432  1.00  0.00    -0.240 N 
HETATM    4  C   UNL     1       6.365  26.422  52.428  1.00  0.00     0.123 A 
HETATM    5  N   UNL     1       7.342  25.524  52.664  1.00  0.00    -0.366 N 
HETATM    6  C   UNL     1       7.799  25.190  54.011  1.00  0.00     0.118 C 
HETATM    7  C   UNL     1       6.825  25.709  55.091  1.00  0.00     0.066 C 
HETATM    8  C   UNL     1       6.340  27.137  54.797  1.00  0.00     0.221 C 
HETATM    9  C   UNL     1       5.673  26.772  51.301  1.00  0.00     0.089 A 
HETATM   10  H   UNL     1       7.747  24.970  51.909  1.00  0.00     0.161 HD
ENDROOT
BRANCH   1  11
HETATM   11  C   UNL     1       3.613  28.290  50.921  1.00  0.00     0.276 C 
HETATM   12  N   UNL     1       3.528  27.691  49.680  1.00  0.00    -0.322 N 
HETATM   13  H   UNL     1       4.200  26.939  49.550  1.00  0.00     0.169 HD
HETATM   14  O   UNL     1       2.943  29.228  51.335  1.00  0.00    -0.266 OA
BRANCH  12  15
HETATM   15  C   UNL     1       2.687  28.024  48.605  1.00  0.00     0.037 A 
HETATM   16  C   UNL     1       2.926  29.081  47.726  1.00  0.00     0.066 A 
HETATM   17  C   UNL     1       2.036  29.332  46.681  1.00  0.00     0.067 A 
HETATM   18  C   UNL     1       0.908  28.543  46.492  1.00  0.00     0.036 A 
HETATM   19  C   UNL     1       0.663  27.485  47.365  1.00  0.00     0.005 A 
HETATM   20  C   UNL     1       1.546  27.231  48.419  1.00  0.00     0.029 A 
BRANCH  17  21
HETATM   21  O   UNL     1       2.310  30.382  45.853  1.00  0.00    -0.361 OA
HETATM   22  H   UNL     1       2.808  31.051  46.350  1.00  0.00     0.217 HD
ENDBRANCH  17  21
ENDBRANCH  12  15
ENDBRANCH   1  11
BRANCH   8  23
HETATM   23  C   UNL     1       7.417  28.176  55.008  1.00  0.00     0.409 C 
HETATM   24  F   UNL     1       8.084  28.465  53.871  1.00  0.00    -0.169 F 
HETATM   25  F   UNL     1       6.852  29.338  55.430  1.00  0.00    -0.169 F 
HETATM   26  F   UNL     1       8.326  27.831  55.944  1.00  0.00    -0.169 F 
ENDBRANCH   8  23
BRANCH   6  27
HETATM   27  C   UNL     1       7.966  23.682  54.114  1.00  0.00    -0.035 A 
HETATM   28  C   UNL     1       8.238  23.079  55.353  1.00  0.00     0.012 A 
HETATM   29  C   UNL     1       8.391  21.693  55.445  1.00  0.00     0.043 A 
HETATM   30  C   UNL     1       8.273  20.908  54.305  1.00  0.00     0.116 A 
HETATM   31  F   UNL     1       8.421  19.581  54.398  1.00  0.00    -0.206 F 
HETATM   32  C   UNL     1       8.006  21.481  53.068  1.00  0.00     0.043 A 
HETATM   33  C   UNL     1       7.855  22.863  52.972  1.00  0.00     0.012 A 
ENDBRANCH   6  27
TORSDOF 5
ENDMDL
MODEL 6
REMARK VINA RESULT:      -9.8      3.727      8.855
REMARK  5 active torsions:
REMARK  status: ('A' for Active; 'I' for Inactive)
REMARK    1  A    between atoms: C_3  and  O_4 
REMARK    2  A    between atoms: C_6  and  N_7 
REMARK       I    between atoms: N_7  and  C_8 
REMARK    3  A    between atoms: C_8  and  C_9 
REMARK    4  A    between atoms: C_14  and  C_15 
REMARK    5  A    between atoms: C_23  and  C_24 
ROOT
HETATM    1  C   UNL     1       6.900  26.359  54.286  1.00  0.00     0.148 A 
HETATM    2  N   UNL     1       5.564  26.574  54.382  1.00  0.00    -0.165 NA
HETATM    3  N   UNL     1       5.490  27.858  54.780  1.00  0.00    -0.240 N 
HETATM    4  C   UNL     1       6.700  28.426  55.062  1.00  0.00     0.123 A 
HETATM    5  N   UNL     1       6.783  29.649  55.622  1.00  0.00    -0.366 N 
HETATM    6  C   UNL     1       5.615  30.370  56.121  1.00  0.00     0.118 C 
HETATM    7  C   UNL     1       4.382  29.449  56.241  1.00  0.00     0.066 C 
HETATM    8  C   UNL     1       4.227  28.525  55.024  1.00  0.00     0.221 C 
HETATM    9  C   UNL     1       7.640  27.509  54.680  1.00  0.00     0.089 A 
HETATM   10  H   UNL     1       7.686  30.089  55.802  1.00  0.00     0.161 HD
ENDROOT
BRANCH   1  11
HETATM   11  C   UNL     1       7.459  25.058  53.871  1.00  0.00     0.276 C 
HETATM   12  N   UNL     1       7.213  24.075  54.810  1.00  0.00    -0.322 N 
HETATM   13  H   UNL     1       6.687  24.410  55.614  1.00  0.00     0.169 HD
HETATM   14  O   UNL     1       8.084  24.938  52.824  1.00  0.00    -0.266 OA
BRANCH  12  15
HETATM   15  C   UNL     1       7.633  22.735  54.801  1.00  0.00     0.037 A 
HETATM   16  C   UNL     1       7.752  21.963  53.645  1.00  0.00     0.066 A 
HETATM   17  C   UNL     1       8.185  20.639  53.734  1.00  0.00     0.067 A 
HETATM   18  C   UNL     1       8.506  20.068  54.960  1.00  0.00     0.036 A 
HETATM   19  C   UNL     1       8.389  20.833  56.119  1.00  0.00     0.005 A 
HETATM   20  C   UNL     1       7.950  22.158  56.039  1.00  0.00     0.029 A 
BRANCH  17  21
HETATM   21  O   UNL     1       8.278  19.923  52.576  1.00  0.00    -0.361 OA
HETATM   22  H   UNL     1       7.384  19.711  52.266  1.00  0.00     0.217 HD
ENDBRANCH  17  21
ENDBRANCH  12  15
ENDBRANCH   1  11
BRANCH   8  23
HETATM   23  C   UNL     1       3.784  29.263  53.781  1.00  0.00     0.409 C 
HETATM   24  F   UNL     1       2.994  28.509  52.988  1.00  0.00    -0.169 F 
HETATM   25  F   UNL     1       3.049  30.350  54.135  1.00  0.00    -0.169 F 
HETATM   26  F   UNL     1       4.808  29.721  53.030  1.00  0.00    -0.169 F 
ENDBRANCH   8  23
BRANCH   6  27
HETATM   27  C   UNL     1       5.959  30.991  57.466  1.00  0.00    -0.035 A 
HETATM   28  C   UNL     1       7.183  30.703  58.091  1.00  0.00     0.012 A 
HETATM   29  C   UNL     1       7.496  31.275  59.327  1.00  0.00     0.043 A 
HETATM   30  C   UNL     1       6.593  32.134  59.940  1.00  0.00     0.116 A 
HETATM   31  F   UNL     1       6.898  32.679  61.123  1.00  0.00    -0.206 F 
HETATM   32  C   UNL     1       5.375  32.434  59.342  1.00  0.00     0.043 A 
HETATM   33  C   UNL     1       5.059  31.864  58.110  1.00  0.00     0.012 A 
ENDBRANCH   6  27
TORSDOF 5
ENDMDL
MODEL 7
REMARK VINA RESULT:      -9.7      3.626      9.230
REMARK  5 active torsions:
REMARK  status: ('A' for Active; 'I' for Inactive)
REMARK    1  A    between atoms: C_3  and  O_4 
REMARK    2  A    between atoms: C_6  and  N_7 
REMARK       I    between atoms: N_7  and  C_8 
REMARK    3  A    between atoms: C_8  and  C_9 
REMARK    4  A    between atoms: C_14  and  C_15 
REMARK    5  A    between atoms: C_23  and  C_24 
ROOT
HETATM    1  C   UNL     1       6.387  27.424  56.920  1.00  0.00     0.148 A 
HETATM    2  N   UNL     1       5.257  28.173  56.931  1.00  0.00    -0.165 NA
HETATM    3  N   UNL     1       5.683  29.361  57.399  1.00  0.00    -0.240 N 
HETATM    4  C   UNL     1       6.987  29.367  57.802  1.00  0.00     0.123 A 
HETATM    5  N   UNL     1       7.516  30.431  58.438  1.00  0.00    -0.366 N 
HETATM    6  C   UNL     1       6.710  31.561  58.893  1.00  0.00     0.118 C 
HETATM    7  C   UNL     1       5.201  31.234  58.867  1.00  0.00     0.066 C 
HETATM    8  C   UNL     1       4.791  30.488  57.588  1.00  0.00     0.221 C 
HETATM    9  C   UNL     1       7.497  28.152  57.436  1.00  0.00     0.089 A 
HETATM   10  H   UNL     1       8.500  30.451  58.710  1.00  0.00     0.161 HD
ENDROOT
BRANCH   1  11
HETATM   11  C   UNL     1       6.395  26.019  56.471  1.00  0.00     0.276 C 
HETATM   12  N   UNL     1       7.509  25.734  55.706  1.00  0.00    -0.322 N 
HETATM   13  H   UNL     1       8.132  26.530  55.592  1.00  0.00     0.169 HD
HETATM   14  O   UNL     1       5.477  25.257  56.749  1.00  0.00    -0.266 OA
BRANCH  12  15
HETATM   15  C   UNL     1       7.839  24.533  55.057  1.00  0.00     0.037 A 
HETATM   16  C   UNL     1       8.433  23.442  55.691  1.00  0.00     0.066 A 
HETATM   17  C   UNL     1       8.718  22.285  54.964  1.00  0.00     0.067 A 
HETATM   18  C   UNL     1       8.417  22.194  53.610  1.00  0.00     0.036 A 
HETATM   19  C   UNL     1       7.823  23.280  52.971  1.00  0.00     0.005 A 
HETATM   20  C   UNL     1       7.540  24.445  53.690  1.00  0.00     0.029 A 
BRANCH  17  21
HETATM   21  O   UNL     1       9.307  21.248  55.627  1.00  0.00    -0.361 OA
HETATM   22  H   UNL     1       9.373  21.475  56.568  1.00  0.00     0.217 HD
ENDBRANCH  17  21
ENDBRANCH  12  15
ENDBRANCH   1  11
BRANCH   8  23
HETATM   23  C   UNL     1       4.808  31.372  56.363  1.00  0.00     0.409 C 
HETATM   24  F   UNL     1       5.604  30.887  55.387  1.00  0.00    -0.169 F 
HETATM   25  F   UNL     1       3.556  31.446  55.838  1.00  0.00    -0.169 F 
HETATM   26  F   UNL     1       5.191  32.641  56.617  1.00  0.00    -0.169 F 
ENDBRANCH   8  23
BRANCH   6  27
HETATM   27  C   UNL     1       7.154  31.951  60.294  1.00  0.00    -0.035 A 
HETATM   28  C   UNL     1       6.336  32.757  61.102  1.00  0.00     0.012 A 
HETATM   29  C   UNL     1       6.746  33.114  62.389  1.00  0.00     0.043 A 
HETATM   30  C   UNL     1       7.970  32.667  62.873  1.00  0.00     0.116 A 
HETATM   31  F   UNL     1       8.358  33.011  64.107  1.00  0.00    -0.206 F 
HETATM   32  C   UNL     1       8.797  31.869  62.093  1.00  0.00     0.043 A 
HETATM   33  C   UNL     1       8.391  31.513  60.808  1.00  0.00     0.012 A 
ENDBRANCH   6  27
TORSDOF 5
ENDMDL
MODEL 8
REMARK VINA RESULT:      -9.6      2.599      3.056
REMARK  5 active torsions:
REMARK  status: ('A' for Active; 'I' for Inactive)
REMARK    1  A    between atoms: C_3  and  O_4 
REMARK    2  A    between atoms: C_6  and  N_7 
REMARK       I    between atoms: N_7  and  C_8 
REMARK    3  A    between atoms: C_8  and  C_9 
REMARK    4  A    between atoms: C_14  and  C_15 
REMARK    5  A    between atoms: C_23  and  C_24 
ROOT
HETATM    1  C   UNL     1       5.413  28.434  55.033  1.00  0.00     0.148 A 
HETATM    2  N   UNL     1       5.895  28.317  53.770  1.00  0.00    -0.165 NA
HETATM    3  N   UNL     1       5.942  26.985  53.585  1.00  0.00    -0.240 N 
HETATM    4  C   UNL     1       5.638  26.254  54.698  1.00  0.00     0.123 A 
HETATM    5  N   UNL     1       5.794  24.916  54.719  1.00  0.00    -0.366 N 
HETATM    6  C   UNL     1       6.450  24.180  53.641  1.00  0.00     0.118 C 
HETATM    7  C   UNL     1       7.219  25.123  52.689  1.00  0.00     0.066 C 
HETATM    8  C   UNL     1       6.413  26.387  52.351  1.00  0.00     0.221 C 
HETATM    9  C   UNL     1       5.216  27.158  55.634  1.00  0.00     0.089 A 
HETATM   10  H   UNL     1       5.536  24.365  55.538  1.00  0.00     0.161 HD
ENDROOT
BRANCH   1  11
HETATM   11  C   UNL     1       5.192  29.745  55.671  1.00  0.00     0.276 C 
HETATM   12  N   UNL     1       5.324  29.673  57.044  1.00  0.00    -0.322 N 
HETATM   13  H   UNL     1       5.558  28.741  57.376  1.00  0.00     0.169 HD
HETATM   14  O   UNL     1       4.895  30.733  55.010  1.00  0.00    -0.266 OA
BRANCH  12  15
HETATM   15  C   UNL     1       5.133  30.690  57.995  1.00  0.00     0.037 A 
HETATM   16  C   UNL     1       3.893  31.019  58.544  1.00  0.00     0.066 A 
HETATM   17  C   UNL     1       3.801  32.041  59.490  1.00  0.00     0.067 A 
HETATM   18  C   UNL     1       4.928  32.742  59.903  1.00  0.00     0.036 A 
HETATM   19  C   UNL     1       6.168  32.418  59.359  1.00  0.00     0.005 A 
HETATM   20  C   UNL     1       6.269  31.400  58.406  1.00  0.00     0.029 A 
BRANCH  17  21
HETATM   21  O   UNL     1       2.565  32.331  59.992  1.00  0.00    -0.361 OA
HETATM   22  H   UNL     1       1.915  32.280  59.274  1.00  0.00     0.217 HD
ENDBRANCH  17  21
ENDBRANCH  12  15
ENDBRANCH   1  11
BRANCH   8  23
HETATM   23  C   UNL     1       5.246  26.110  51.432  1.00  0.00     0.409 C 
HETATM   24  F   UNL     1       4.305  27.077  51.487  1.00  0.00    -0.169 F 
HETATM   25  F   UNL     1       5.681  26.068  50.145  1.00  0.00    -0.169 F 
HETATM   26  F   UNL     1       4.639  24.928  51.669  1.00  0.00    -0.169 F 
ENDBRANCH   8  23
BRANCH   6  27
HETATM   27  C   UNL     1       7.386  23.147  54.249  1.00  0.00    -0.035 A 
HETATM   28  C   UNL     1       8.012  22.188  53.437  1.00  0.00     0.012 A 
HETATM   29  C   UNL     1       8.872  21.240  53.997  1.00  0.00     0.043 A 
HETATM   30  C   UNL     1       9.110  21.247  55.366  1.00  0.00     0.116 A 
HETATM   31  F   UNL     1       9.934  20.337  55.898  1.00  0.00    -0.206 F 
HETATM   32  C   UNL     1       8.502  22.185  56.191  1.00  0.00     0.043 A 
HETATM   33  C   UNL     1       7.643  23.131  55.635  1.00  0.00     0.012 A 
ENDBRANCH   6  27
TORSDOF 5
ENDMDL
MODEL 9
REMARK VINA RESULT:      -9.5      3.568      8.832
REMARK  5 active torsions:
REMARK  status: ('A' for Active; 'I' for Inactive)
REMARK    1  A    between atoms: C_3  and  O_4 
REMARK    2  A    between atoms: C_6  and  N_7 
REMARK       I    between atoms: N_7  and  C_8 
REMARK    3  A    between atoms: C_8  and  C_9 
REMARK    4  A    between atoms: C_14  and  C_15 
REMARK    5  A    between atoms: C_23  and  C_24 
ROOT
HETATM    1  C   UNL     1       6.309  26.414  55.167  1.00  0.00     0.148 A 
HETATM    2  N   UNL     1       5.142  27.070  55.384  1.00  0.00    -0.165 NA
HETATM    3  N   UNL     1       5.549  28.271  55.836  1.00  0.00    -0.240 N 
HETATM    4  C   UNL     1       6.896  28.366  56.037  1.00  0.00     0.123 A 
HETATM    5  N   UNL     1       7.439  29.446  56.634  1.00  0.00    -0.366 N 
HETATM    6  C   UNL     1       6.632  30.492  57.258  1.00  0.00     0.118 C 
HETATM    7  C   UNL     1       5.165  30.048  57.447  1.00  0.00     0.066 C 
HETATM    8  C   UNL     1       4.617  29.317  56.211  1.00  0.00     0.221 C 
HETATM    9  C   UNL     1       7.429  27.208  55.541  1.00  0.00     0.089 A 
HETATM   10  H   UNL     1       8.448  29.534  56.754  1.00  0.00     0.161 HD
ENDROOT
BRANCH   1  11
HETATM   11  C   UNL     1       6.349  25.030  54.657  1.00  0.00     0.276 C 
HETATM   12  N   UNL     1       7.493  24.370  55.060  1.00  0.00    -0.322 N 
HETATM   13  H   UNL     1       8.102  24.941  55.641  1.00  0.00     0.169 HD
HETATM   14  O   UNL     1       5.459  24.591  53.938  1.00  0.00    -0.266 OA
BRANCH  12  15
HETATM   15  C   UNL     1       7.914  23.071  54.732  1.00  0.00     0.037 A 
HETATM   16  C   UNL     1       8.495  22.187  55.642  1.00  0.00     0.066 A 
HETATM   17  C   UNL     1       8.877  20.911  55.225  1.00  0.00     0.067 A 
HETATM   18  C   UNL     1       8.685  20.496  53.912  1.00  0.00     0.036 A 
HETATM   19  C   UNL     1       8.106  21.374  52.999  1.00  0.00     0.005 A 
HETATM   20  C   UNL     1       7.727  22.656  53.406  1.00  0.00     0.029 A 
BRANCH  17  21
HETATM   21  O   UNL     1       9.447  20.085  56.150  1.00  0.00    -0.361 OA
HETATM   22  H   UNL     1      10.203  19.634  55.743  1.00  0.00     0.217 HD
ENDBRANCH  17  21
ENDBRANCH  12  15
ENDBRANCH   1  11
BRANCH   8  23
HETATM   23  C   UNL     1       4.380  30.242  55.040  1.00  0.00     0.409 C 
HETATM   24  F   UNL     1       4.884  31.477  55.248  1.00  0.00    -0.169 F 
HETATM   25  F   UNL     1       5.005  29.750  53.938  1.00  0.00    -0.169 F 
HETATM   26  F   UNL     1       3.077  30.377  54.712  1.00  0.00    -0.169 F 
ENDBRANCH   8  23
BRANCH   6  27
HETATM   27  C   UNL     1       7.259  30.866  58.592  1.00  0.00    -0.035 A 
HETATM   28  C   UNL     1       6.764  31.953  59.331  1.00  0.00     0.012 A 
HETATM   29  C   UNL     1       7.341  32.295  60.557  1.00  0.00     0.043 A 
HETATM   30  C   UNL     1       8.410  31.555  61.047  1.00  0.00     0.116 A 
HETATM   31  F   UNL     1       8.960  31.887  62.222  1.00  0.00    -0.206 F 
HETATM   32  C   UNL     1       8.919  30.477  60.335  1.00  0.00     0.043 A 
HETATM   33  C   UNL     1       8.346  30.134  59.110  1.00  0.00     0.012 A 
ENDBRANCH   6  27
TORSDOF 5
ENDMDL
MODEL 10
REMARK VINA RESULT:      -9.4      5.579      9.087
REMARK  5 active torsions:
REMARK  status: ('A' for Active; 'I' for Inactive)
REMARK    1  A    between atoms: C_3  and  O_4 
REMARK    2  A    between atoms: C_6  and  N_7 
REMARK       I    between atoms: N_7  and  C_8 
REMARK    3  A    between atoms: C_8  and  C_9 
REMARK    4  A    between atoms: C_14  and  C_15 
REMARK    5  A    between atoms: C_23  and  C_24 
ROOT
HETATM    1  C   UNL     1       4.795  27.068  50.199  1.00  0.00     0.148 A 
HETATM    2  N   UNL     1       4.273  27.326  51.424  1.00  0.00    -0.165 NA
HETATM    3  N   UNL     1       5.191  26.809  52.261  1.00  0.00    -0.240 N 
HETATM    4  C   UNL     1       6.197  26.130  51.636  1.00  0.00     0.123 A 
HETATM    5  N   UNL     1       7.104  25.422  52.339  1.00  0.00    -0.366 N 
HETATM    6  C   UNL     1       6.981  25.187  53.775  1.00  0.00     0.118 C 
HETATM    7  C   UNL     1       5.568  25.534  54.293  1.00  0.00     0.066 C 
HETATM    8  C   UNL     1       5.041  26.851  53.702  1.00  0.00     0.221 C 
HETATM    9  C   UNL     1       6.015  26.341  50.297  1.00  0.00     0.089 A 
HETATM   10  H   UNL     1       7.876  24.942  51.876  1.00  0.00     0.161 HD
ENDROOT
BRANCH   1  11
HETATM   11  C   UNL     1       4.111  27.466  48.954  1.00  0.00     0.276 C 
HETATM   12  N   UNL     1       2.781  27.765  49.176  1.00  0.00    -0.322 N 
HETATM   13  H   UNL     1       2.505  27.669  50.150  1.00  0.00     0.169 HD
HETATM   14  O   UNL     1       4.700  27.477  47.880  1.00  0.00    -0.266 OA
BRANCH  12  15
HETATM   15  C   UNL     1       1.798  28.123  48.239  1.00  0.00     0.037 A 
HETATM   16  C   UNL     1       1.363  27.289  47.208  1.00  0.00     0.066 A 
HETATM   17  C   UNL     1       0.374  27.729  46.327  1.00  0.00     0.067 A 
HETATM   18  C   UNL     1      -0.196  28.990  46.457  1.00  0.00     0.036 A 
HETATM   19  C   UNL     1       0.234  29.828  47.484  1.00  0.00     0.005 A 
HETATM   20  C   UNL     1       1.228  29.397  48.367  1.00  0.00     0.029 A 
BRANCH  17  21
HETATM   21  O   UNL     1      -0.012  26.879  45.331  1.00  0.00    -0.361 OA
HETATM   22  H   UNL     1       0.731  26.754  44.720  1.00  0.00     0.217 HD
ENDBRANCH  17  21
ENDBRANCH  12  15
ENDBRANCH   1  11
BRANCH   8  23
HETATM   23  C   UNL     1       5.745  28.066  54.260  1.00  0.00     0.409 C 
HETATM   24  F   UNL     1       4.945  29.153  54.300  1.00  0.00    -0.169 F 
HETATM   25  F   UNL     1       6.128  27.822  55.542  1.00  0.00    -0.169 F 
HETATM   26  F   UNL     1       6.864  28.402  53.584  1.00  0.00    -0.169 F 
ENDBRANCH   8  23
BRANCH   6  27
HETATM   27  C   UNL     1       7.321  23.734  54.066  1.00  0.00    -0.035 A 
HETATM   28  C   UNL     1       7.278  23.242  55.382  1.00  0.00     0.012 A 
HETATM   29  C   UNL     1       7.591  21.906  55.647  1.00  0.00     0.043 A 
HETATM   30  C   UNL     1       7.944  21.059  54.604  1.00  0.00     0.116 A 
HETATM   31  F   UNL     1       8.242  19.781  54.863  1.00  0.00    -0.206 F 
HETATM   32  C   UNL     1       7.994  21.521  53.295  1.00  0.00     0.043 A 
HETATM   33  C   UNL     1       7.685  22.854  53.027  1.00  0.00     0.012 A 
ENDBRANCH   6  27
TORSDOF 5
ENDMDL
