MODEL 1
REMARK VINA RESULT:      -9.5      0.000      0.000
REMARK  6 active torsions:
REMARK  status: ('A' for Active; 'I' for Inactive)
REMARK    1  A    between atoms: O_2  and  C_3 
REMARK    2  A    between atoms: C_3  and  C_4 
REMARK    3  A    between atoms: C_11  and  C_12 
REMARK    4  A    between atoms: C_12  and  S_13 
REMARK    5  A    between atoms: S_13  and  C_14 
REMARK    6  A    between atoms: C_16  and  C_17 
ROOT
HETATM    1  C   UNL     1       8.792  28.795  56.412  1.00  0.00     0.041 A 
HETATM    2  C   UNL     1       7.933  28.838  55.302  1.00  0.00     0.050 A 
HETATM    3  C   UNL     1       6.868  27.939  55.193  1.00  0.00     0.075 A 
HETATM    4  C   UNL     1       6.673  27.001  56.210  1.00  0.00     0.061 A 
HETATM    5  C   UNL     1       5.564  26.047  56.050  1.00  0.00     0.259 A 
HETATM    6  O   UNL     1       5.323  25.176  56.877  1.00  0.00    -0.267 OA
HETATM    7  N   UNL     1       4.826  26.191  54.905  1.00  0.00    -0.310 N 
HETATM    8  C   UNL     1       5.099  27.126  53.938  1.00  0.00     0.117 A 
HETATM    9  N   UNL     1       6.049  28.000  54.051  1.00  0.00    -0.234 NA
HETATM   10  C   UNL     1       7.512  26.946  57.325  1.00  0.00     0.020 A 
HETATM   11  C   UNL     1       8.574  27.847  57.423  1.00  0.00     0.019 A 
HETATM   12  H   UNL     1       4.139  25.468  54.738  1.00  0.00     0.170 HD
ENDROOT
BRANCH   8  13
HETATM   13  C   UNL     1       4.190  27.096  52.726  1.00  0.00     0.161 C 
BRANCH  13  14
HETATM   14  S   UNL     1       5.074  26.550  51.240  1.00  0.00    -0.083 SA
BRANCH  14  15
HETATM   15  C   UNL     1       6.232  25.461  51.894  1.00  0.00     0.185 A 
HETATM   16  N   UNL     1       6.037  24.326  52.513  1.00  0.00    -0.201 NA
HETATM   17  C   UNL     1       7.317  23.953  52.890  1.00  0.00     0.182 A 
HETATM   18  N   UNL     1       8.275  24.799  52.470  1.00  0.00    -0.152 NA
HETATM   19  N   UNL     1       7.556  25.746  51.847  1.00  0.00    -0.253 N 
HETATM   20  H   UNL     1       8.018  26.550  51.442  1.00  0.00     0.191 HD
BRANCH  17  21
HETATM   21  C   UNL     1       7.581  22.769  53.706  1.00  0.00     0.013 A 
HETATM   22  C   UNL     1       7.968  21.562  53.108  1.00  0.00     0.015 A 
HETATM   23  C   UNL     1       8.188  20.420  53.882  1.00  0.00     0.001 A 
HETATM   24  C   UNL     1       8.029  20.472  55.264  1.00  0.00     0.000 A 
HETATM   25  C   UNL     1       7.651  21.666  55.876  1.00  0.00     0.001 A 
HETATM   26  C   UNL     1       7.427  22.808  55.101  1.00  0.00     0.015 A 
ENDBRANCH  17  21
ENDBRANCH  14  15
ENDBRANCH  13  14
ENDBRANCH   8  13
BRANCH   1  27
HETATM   27  C   UNL     1       9.952  29.716  56.556  1.00  0.00     0.293 C 
HETATM   28  O   UNL     1      10.535  30.214  55.606  1.00  0.00    -0.259 OA
BRANCH  27  29
HETATM   29  O   UNL     1      10.250  29.914  57.863  1.00  0.00    -0.323 OA
HETATM   30  C   UNL     1      10.050  31.257  58.307  1.00  0.00     0.213 C 
ENDBRANCH  27  29
ENDBRANCH   1  27
TORSDOF 6
ENDMDL
MODEL 2
REMARK VINA RESULT:      -9.5      4.155      9.003
REMARK  6 active torsions:
REMARK  status: ('A' for Active; 'I' for Inactive)
REMARK    1  A    between atoms: O_2  and  C_3 
REMARK    2  A    between atoms: C_3  and  C_4 
REMARK    3  A    between atoms: C_11  and  C_12 
REMARK    4  A    between atoms: C_12  and  S_13 
REMARK    5  A    between atoms: S_13  and  C_14 
REMARK    6  A    between atoms: C_16  and  C_17 
ROOT
HETATM    1  C   UNL     1       7.658  22.770  54.367  1.00  0.00     0.041 A 
HETATM    2  C   UNL     1       7.859  23.636  55.453  1.00  0.00     0.050 A 
HETATM    3  C   UNL     1       7.633  25.009  55.319  1.00  0.00     0.075 A 
HETATM    4  C   UNL     1       7.199  25.501  54.085  1.00  0.00     0.061 A 
HETATM    5  C   UNL     1       7.001  26.955  53.965  1.00  0.00     0.259 A 
HETATM    6  O   UNL     1       6.640  27.484  52.921  1.00  0.00    -0.267 OA
HETATM    7  N   UNL     1       7.261  27.678  55.099  1.00  0.00    -0.310 N 
HETATM    8  C   UNL     1       7.711  27.120  56.269  1.00  0.00     0.117 A 
HETATM    9  N   UNL     1       7.873  25.843  56.425  1.00  0.00    -0.234 NA
HETATM   10  C   UNL     1       6.986  24.655  52.994  1.00  0.00     0.020 A 
HETATM   11  C   UNL     1       7.217  23.286  53.139  1.00  0.00     0.019 A 
HETATM   12  H   UNL     1       7.238  28.682  54.987  1.00  0.00     0.170 HD
ENDROOT
BRANCH   8  13
HETATM   13  C   UNL     1       7.980  28.096  57.397  1.00  0.00     0.161 C 
BRANCH  13  14
HETATM   14  S   UNL     1       9.499  29.044  57.113  1.00  0.00    -0.083 SA
BRANCH  14  15
HETATM   15  C   UNL     1       9.369  30.287  58.293  1.00  0.00     0.185 A 
HETATM   16  N   UNL     1       8.624  30.329  59.367  1.00  0.00    -0.201 NA
HETATM   17  C   UNL     1       8.864  31.600  59.864  1.00  0.00     0.182 A 
HETATM   18  N   UNL     1       9.767  32.299  59.153  1.00  0.00    -0.152 NA
HETATM   19  N   UNL     1      10.064  31.443  58.163  1.00  0.00    -0.253 N 
HETATM   20  H   UNL     1      10.715  31.713  57.436  1.00  0.00     0.191 HD
BRANCH  17  21
HETATM   21  C   UNL     1       8.160  32.133  61.028  1.00  0.00     0.013 A 
HETATM   22  C   UNL     1       8.742  32.077  62.302  1.00  0.00     0.015 A 
HETATM   23  C   UNL     1       8.057  32.554  63.422  1.00  0.00     0.001 A 
HETATM   24  C   UNL     1       6.784  33.099  63.282  1.00  0.00     0.000 A 
HETATM   25  C   UNL     1       6.192  33.168  62.022  1.00  0.00     0.001 A 
HETATM   26  C   UNL     1       6.876  32.687  60.901  1.00  0.00     0.015 A 
ENDBRANCH  17  21
ENDBRANCH  14  15
ENDBRANCH  13  14
ENDBRANCH   8  13
BRANCH   1  27
HETATM   27  C   UNL     1       7.910  21.307  54.459  1.00  0.00     0.293 C 
HETATM   28  O   UNL     1       8.089  20.593  53.485  1.00  0.00    -0.259 OA
BRANCH  27  29
HETATM   29  O   UNL     1       7.916  20.900  55.753  1.00  0.00    -0.323 OA
HETATM   30  C   UNL     1       9.162  20.349  56.182  1.00  0.00     0.213 C 
ENDBRANCH  27  29
ENDBRANCH   1  27
TORSDOF 6
ENDMDL
MODEL 3
REMARK VINA RESULT:      -9.3      2.793      4.406
REMARK  6 active torsions:
REMARK  status: ('A' for Active; 'I' for Inactive)
REMARK    1  A    between atoms: O_2  and  C_3 
REMARK    2  A    between atoms: C_3  and  C_4 
REMARK    3  A    between atoms: C_11  and  C_12 
REMARK    4  A    between atoms: C_12  and  S_13 
REMARK    5  A    between atoms: S_13  and  C_14 
REMARK    6  A    between atoms: C_16  and  C_17 
ROOT
HETATM    1  C   UNL     1       8.221  31.919  60.366  1.00  0.00     0.041 A 
HETATM    2  C   UNL     1       7.456  31.023  59.603  1.00  0.00     0.050 A 
HETATM    3  C   UNL     1       8.022  30.352  58.515  1.00  0.00     0.075 A 
HETATM    4  C   UNL     1       9.364  30.590  58.204  1.00  0.00     0.061 A 
HETATM    5  C   UNL     1       9.922  29.894  57.033  1.00  0.00     0.259 A 
HETATM    6  O   UNL     1      11.081  30.049  56.669  1.00  0.00    -0.267 OA
HETATM    7  N   UNL     1       9.051  29.071  56.369  1.00  0.00    -0.310 N 
HETATM    8  C   UNL     1       7.736  28.912  56.724  1.00  0.00     0.117 A 
HETATM    9  N   UNL     1       7.212  29.485  57.762  1.00  0.00    -0.234 NA
HETATM   10  C   UNL     1      10.143  31.472  58.955  1.00  0.00     0.020 A 
HETATM   11  C   UNL     1       9.567  32.137  60.038  1.00  0.00     0.019 A 
HETATM   12  H   UNL     1       9.398  28.684  55.502  1.00  0.00     0.170 HD
ENDROOT
BRANCH   8  13
HETATM   13  C   UNL     1       6.926  27.988  55.836  1.00  0.00     0.161 C 
BRANCH  13  14
HETATM   14  S   UNL     1       7.483  28.060  54.112  1.00  0.00    -0.083 SA
BRANCH  14  15
HETATM   15  C   UNL     1       7.536  26.396  53.685  1.00  0.00     0.185 A 
HETATM   16  N   UNL     1       7.482  25.344  54.461  1.00  0.00    -0.201 NA
HETATM   17  C   UNL     1       7.667  24.294  53.576  1.00  0.00     0.182 A 
HETATM   18  N   UNL     1       7.775  24.680  52.292  1.00  0.00    -0.152 NA
HETATM   19  N   UNL     1       7.694  26.015  52.394  1.00  0.00    -0.253 N 
HETATM   20  H   UNL     1       7.775  26.595  51.568  1.00  0.00     0.191 HD
BRANCH  17  21
HETATM   21  C   UNL     1       7.775  22.905  54.018  1.00  0.00     0.013 A 
HETATM   22  C   UNL     1       7.675  22.579  55.377  1.00  0.00     0.015 A 
HETATM   23  C   UNL     1       7.813  21.257  55.807  1.00  0.00     0.001 A 
HETATM   24  C   UNL     1       8.046  20.243  54.881  1.00  0.00     0.000 A 
HETATM   25  C   UNL     1       8.142  20.549  53.525  1.00  0.00     0.001 A 
HETATM   26  C   UNL     1       8.008  21.873  53.095  1.00  0.00     0.015 A 
ENDBRANCH  17  21
ENDBRANCH  14  15
ENDBRANCH  13  14
ENDBRANCH   8  13
BRANCH   1  27
HETATM   27  C   UNL     1       7.651  32.672  61.517  1.00  0.00     0.293 C 
HETATM   28  O   UNL     1       6.606  33.300  61.456  1.00  0.00    -0.259 OA
BRANCH  27  29
HETATM   29  O   UNL     1       8.443  32.553  62.610  1.00  0.00    -0.323 OA
HETATM   30  C   UNL     1       7.765  32.782  63.846  1.00  0.00     0.213 C 
ENDBRANCH  27  29
ENDBRANCH   1  27
TORSDOF 6
ENDMDL
MODEL 4
REMARK VINA RESULT:      -9.1      3.248      5.027
REMARK  6 active torsions:
REMARK  status: ('A' for Active; 'I' for Inactive)
REMARK    1  A    between atoms: O_2  and  C_3 
REMARK    2  A    between atoms: C_3  and  C_4 
REMARK    3  A    between atoms: C_11  and  C_12 
REMARK    4  A    between atoms: C_12  and  S_13 
REMARK    5  A    between atoms: S_13  and  C_14 
REMARK    6  A    between atoms: C_16  and  C_17 
ROOT
HETATM    1  C   UNL     1       8.246  31.919  60.894  1.00  0.00     0.041 A 
HETATM    2  C   UNL     1       7.491  31.106  60.033  1.00  0.00     0.050 A 
HETATM    3  C   UNL     1       8.069  30.558  58.885  1.00  0.00     0.075 A 
HETATM    4  C   UNL     1       9.412  30.832  58.612  1.00  0.00     0.061 A 
HETATM    5  C   UNL     1       9.983  30.268  57.378  1.00  0.00     0.259 A 
HETATM    6  O   UNL     1      11.144  30.465  57.043  1.00  0.00    -0.267 OA
HETATM    7  N   UNL     1       9.121  29.517  56.623  1.00  0.00    -0.310 N 
HETATM    8  C   UNL     1       7.803  29.316  56.948  1.00  0.00     0.117 A 
HETATM    9  N   UNL     1       7.269  29.773  58.037  1.00  0.00    -0.234 NA
HETATM   10  C   UNL     1      10.182  31.632  59.459  1.00  0.00     0.020 A 
HETATM   11  C   UNL     1       9.594  32.176  60.602  1.00  0.00     0.019 A 
HETATM   12  H   UNL     1       9.476  29.226  55.722  1.00  0.00     0.170 HD
ENDROOT
BRANCH   8  13
HETATM   13  C   UNL     1       7.006  28.489  55.960  1.00  0.00     0.161 C 
BRANCH  13  14
HETATM   14  S   UNL     1       5.882  27.341  56.802  1.00  0.00    -0.083 SA
BRANCH  14  15
HETATM   15  C   UNL     1       6.681  25.835  56.580  1.00  0.00     0.185 A 
HETATM   16  N   UNL     1       6.756  25.092  55.506  1.00  0.00    -0.201 NA
HETATM   17  C   UNL     1       7.434  23.968  55.951  1.00  0.00     0.182 A 
HETATM   18  N   UNL     1       7.814  24.039  57.239  1.00  0.00    -0.152 NA
HETATM   19  N   UNL     1       7.318  25.229  57.611  1.00  0.00    -0.253 N 
HETATM   20  H   UNL     1       7.427  25.549  58.565  1.00  0.00     0.191 HD
BRANCH  17  21
HETATM   21  C   UNL     1       7.669  22.805  55.098  1.00  0.00     0.013 A 
HETATM   22  C   UNL     1       7.710  22.939  53.704  1.00  0.00     0.015 A 
HETATM   23  C   UNL     1       7.899  21.823  52.884  1.00  0.00     0.001 A 
HETATM   24  C   UNL     1       8.056  20.561  53.449  1.00  0.00     0.000 A 
HETATM   25  C   UNL     1       8.023  20.410  54.834  1.00  0.00     0.001 A 
HETATM   26  C   UNL     1       7.830  21.526  55.654  1.00  0.00     0.015 A 
ENDBRANCH  17  21
ENDBRANCH  14  15
ENDBRANCH  13  14
ENDBRANCH   8  13
BRANCH   1  27
HETATM   27  C   UNL     1       7.664  32.543  62.113  1.00  0.00     0.293 C 
HETATM   28  O   UNL     1       8.221  32.539  63.200  1.00  0.00    -0.259 OA
BRANCH  27  29
HETATM   29  O   UNL     1       6.459  33.101  61.841  1.00  0.00    -0.323 OA
HETATM   30  C   UNL     1       6.260  34.377  62.449  1.00  0.00     0.213 C 
ENDBRANCH  27  29
ENDBRANCH   1  27
TORSDOF 6
ENDMDL
MODEL 5
REMARK VINA RESULT:      -9.1      5.038      6.845
REMARK  6 active torsions:
REMARK  status: ('A' for Active; 'I' for Inactive)
REMARK    1  A    between atoms: O_2  and  C_3 
REMARK    2  A    between atoms: C_3  and  C_4 
REMARK    3  A    between atoms: C_11  and  C_12 
REMARK    4  A    between atoms: C_12  and  S_13 
REMARK    5  A    between atoms: S_13  and  C_14 
REMARK    6  A    between atoms: C_16  and  C_17 
ROOT
HETATM    1  C   UNL     1       6.427  33.713  62.866  1.00  0.00     0.041 A 
HETATM    2  C   UNL     1       6.299  33.280  61.537  1.00  0.00     0.050 A 
HETATM    3  C   UNL     1       7.087  32.233  61.051  1.00  0.00     0.075 A 
HETATM    4  C   UNL     1       8.001  31.624  61.915  1.00  0.00     0.061 A 
HETATM    5  C   UNL     1       8.840  30.546  61.365  1.00  0.00     0.259 A 
HETATM    6  O   UNL     1       9.681  29.962  62.037  1.00  0.00    -0.267 OA
HETATM    7  N   UNL     1       8.623  30.248  60.046  1.00  0.00    -0.310 N 
HETATM    8  C   UNL     1       7.720  30.914  59.255  1.00  0.00     0.117 A 
HETATM    9  N   UNL     1       6.945  31.850  59.706  1.00  0.00    -0.234 NA
HETATM   10  C   UNL     1       8.139  32.035  63.242  1.00  0.00     0.020 A 
HETATM   11  C   UNL     1       7.348  33.083  63.716  1.00  0.00     0.019 A 
HETATM   12  H   UNL     1       9.274  29.591  59.638  1.00  0.00     0.170 HD
ENDROOT
BRANCH   8  13
HETATM   13  C   UNL     1       7.659  30.462  57.810  1.00  0.00     0.161 C 
BRANCH  13  14
HETATM   14  S   UNL     1       6.214  29.412  57.498  1.00  0.00    -0.083 SA
BRANCH  14  15
HETATM   15  C   UNL     1       6.729  28.492  56.141  1.00  0.00     0.185 A 
HETATM   16  N   UNL     1       6.544  27.222  55.888  1.00  0.00    -0.201 NA
HETATM   17  C   UNL     1       7.259  27.030  54.717  1.00  0.00     0.182 A 
HETATM   18  N   UNL     1       7.818  28.153  54.232  1.00  0.00    -0.152 NA
HETATM   19  N   UNL     1       7.470  29.059  55.158  1.00  0.00    -0.253 N 
HETATM   20  H   UNL     1       7.782  30.019  55.073  1.00  0.00     0.191 HD
BRANCH  17  21
HETATM   21  C   UNL     1       7.416  25.714  54.100  1.00  0.00     0.013 A 
HETATM   22  C   UNL     1       7.288  24.547  54.866  1.00  0.00     0.015 A 
HETATM   23  C   UNL     1       7.472  23.288  54.288  1.00  0.00     0.001 A 
HETATM   24  C   UNL     1       7.780  23.181  52.934  1.00  0.00     0.000 A 
HETATM   25  C   UNL     1       7.905  24.331  52.157  1.00  0.00     0.001 A 
HETATM   26  C   UNL     1       7.725  25.590  52.737  1.00  0.00     0.015 A 
ENDBRANCH  17  21
ENDBRANCH  14  15
ENDBRANCH  13  14
ENDBRANCH   8  13
BRANCH   1  27
HETATM   27  C   UNL     1       5.626  34.840  63.416  1.00  0.00     0.293 C 
HETATM   28  O   UNL     1       5.175  35.741  62.727  1.00  0.00    -0.259 OA
BRANCH  27  29
HETATM   29  O   UNL     1       5.475  34.715  64.757  1.00  0.00    -0.323 OA
HETATM   30  C   UNL     1       4.158  34.341  65.161  1.00  0.00     0.213 C 
ENDBRANCH  27  29
ENDBRANCH   1  27
TORSDOF 6
ENDMDL
MODEL 6
REMARK VINA RESULT:      -8.9      4.535      9.396
REMARK  6 active torsions:
REMARK  status: ('A' for Active; 'I' for Inactive)
REMARK    1  A    between atoms: O_2  and  C_3 
REMARK    2  A    between atoms: C_3  and  C_4 
REMARK    3  A    between atoms: C_11  and  C_12 
REMARK    4  A    between atoms: C_12  and  S_13 
REMARK    5  A    between atoms: S_13  and  C_14 
REMARK    6  A    between atoms: C_16  and  C_17 
ROOT
HETATM    1  C   UNL     1       8.082  23.661  54.177  1.00  0.00     0.041 A 
HETATM    2  C   UNL     1       7.796  24.416  55.326  1.00  0.00     0.050 A 
HETATM    3  C   UNL     1       7.408  25.755  55.218  1.00  0.00     0.075 A 
HETATM    4  C   UNL     1       7.307  26.324  53.946  1.00  0.00     0.061 A 
HETATM    5  C   UNL     1       6.929  27.745  53.867  1.00  0.00     0.259 A 
HETATM    6  O   UNL     1       6.830  28.339  52.800  1.00  0.00    -0.267 OA
HETATM    7  N   UNL     1       6.706  28.361  55.069  1.00  0.00    -0.310 N 
HETATM    8  C   UNL     1       6.852  27.736  56.282  1.00  0.00     0.117 A 
HETATM    9  N   UNL     1       7.158  26.481  56.396  1.00  0.00    -0.234 NA
HETATM   10  C   UNL     1       7.580  25.588  52.791  1.00  0.00     0.020 A 
HETATM   11  C   UNL     1       7.968  24.253  52.911  1.00  0.00     0.019 A 
HETATM   12  H   UNL     1       6.559  29.360  55.023  1.00  0.00     0.170 HD
ENDROOT
BRANCH   8  13
HETATM   13  C   UNL     1       6.599  28.603  57.499  1.00  0.00     0.161 C 
BRANCH  13  14
HETATM   14  S   UNL     1       8.051  29.605  57.920  1.00  0.00    -0.083 SA
BRANCH  14  15
HETATM   15  C   UNL     1       7.379  30.775  58.984  1.00  0.00     0.185 A 
HETATM   16  N   UNL     1       7.845  31.216  60.124  1.00  0.00    -0.201 NA
HETATM   17  C   UNL     1       6.840  32.062  60.565  1.00  0.00     0.182 A 
HETATM   18  N   UNL     1       5.816  32.183  59.702  1.00  0.00    -0.152 NA
HETATM   19  N   UNL     1       6.183  31.353  58.714  1.00  0.00    -0.253 N 
HETATM   20  H   UNL     1       5.577  31.213  57.916  1.00  0.00     0.191 HD
BRANCH  17  21
HETATM   21  C   UNL     1       6.885  32.721  61.869  1.00  0.00     0.013 A 
HETATM   22  C   UNL     1       6.046  33.808  62.149  1.00  0.00     0.015 A 
HETATM   23  C   UNL     1       6.111  34.461  63.382  1.00  0.00     0.001 A 
HETATM   24  C   UNL     1       7.012  34.032  64.353  1.00  0.00     0.000 A 
HETATM   25  C   UNL     1       7.849  32.949  64.093  1.00  0.00     0.001 A 
HETATM   26  C   UNL     1       7.787  32.297  62.858  1.00  0.00     0.015 A 
ENDBRANCH  17  21
ENDBRANCH  14  15
ENDBRANCH  13  14
ENDBRANCH   8  13
BRANCH   1  27
HETATM   27  C   UNL     1       8.521  22.241  54.249  1.00  0.00     0.293 C 
HETATM   28  O   UNL     1       9.488  21.870  54.895  1.00  0.00    -0.259 OA
BRANCH  27  29
HETATM   29  O   UNL     1       7.707  21.447  53.511  1.00  0.00    -0.323 OA
HETATM   30  C   UNL     1       8.392  20.412  52.804  1.00  0.00     0.213 C 
ENDBRANCH  27  29
ENDBRANCH   1  27
TORSDOF 6
ENDMDL
MODEL 7
REMARK VINA RESULT:      -8.8      3.270      7.877
REMARK  6 active torsions:
REMARK  status: ('A' for Active; 'I' for Inactive)
REMARK    1  A    between atoms: O_2  and  C_3 
REMARK    2  A    between atoms: C_3  and  C_4 
REMARK    3  A    between atoms: C_11  and  C_12 
REMARK    4  A    between atoms: C_12  and  S_13 
REMARK    5  A    between atoms: S_13  and  C_14 
REMARK    6  A    between atoms: C_16  and  C_17 
ROOT
HETATM    1  C   UNL     1       7.560  23.182  55.079  1.00  0.00     0.041 A 
HETATM    2  C   UNL     1       6.963  24.240  55.784  1.00  0.00     0.050 A 
HETATM    3  C   UNL     1       6.187  25.192  55.116  1.00  0.00     0.075 A 
HETATM    4  C   UNL     1       6.015  25.068  53.734  1.00  0.00     0.061 A 
HETATM    5  C   UNL     1       5.221  26.104  53.054  1.00  0.00     0.259 A 
HETATM    6  O   UNL     1       5.027  26.093  51.845  1.00  0.00    -0.267 OA
HETATM    7  N   UNL     1       4.723  27.089  53.866  1.00  0.00    -0.310 N 
HETATM    8  C   UNL     1       4.960  27.153  55.215  1.00  0.00     0.117 A 
HETATM    9  N   UNL     1       5.632  26.249  55.857  1.00  0.00    -0.234 NA
HETATM   10  C   UNL     1       6.594  24.020  53.016  1.00  0.00     0.020 A 
HETATM   11  C   UNL     1       7.368  23.076  53.693  1.00  0.00     0.019 A 
HETATM   12  H   UNL     1       4.276  27.859  53.387  1.00  0.00     0.170 HD
ENDROOT
BRANCH   8  13
HETATM   13  C   UNL     1       4.355  28.345  55.929  1.00  0.00     0.161 C 
BRANCH  13  14
HETATM   14  S   UNL     1       5.269  29.871  55.577  1.00  0.00    -0.083 SA
BRANCH  14  15
HETATM   15  C   UNL     1       6.376  29.934  56.889  1.00  0.00     0.185 A 
HETATM   16  N   UNL     1       6.308  30.633  57.993  1.00  0.00    -0.201 NA
HETATM   17  C   UNL     1       7.514  30.354  58.614  1.00  0.00     0.182 A 
HETATM   18  N   UNL     1       8.278  29.471  57.946  1.00  0.00    -0.152 NA
HETATM   19  N   UNL     1       7.533  29.228  56.856  1.00  0.00    -0.253 N 
HETATM   20  H   UNL     1       7.874  28.604  56.136  1.00  0.00     0.191 HD
BRANCH  17  21
HETATM   21  C   UNL     1       7.924  31.001  59.859  1.00  0.00     0.013 A 
HETATM   22  C   UNL     1       9.113  30.628  60.500  1.00  0.00     0.015 A 
HETATM   23  C   UNL     1       9.490  31.220  61.708  1.00  0.00     0.001 A 
HETATM   24  C   UNL     1       8.685  32.197  62.288  1.00  0.00     0.000 A 
HETATM   25  C   UNL     1       7.502  32.583  61.661  1.00  0.00     0.001 A 
HETATM   26  C   UNL     1       7.123  31.988  60.454  1.00  0.00     0.015 A 
ENDBRANCH  17  21
ENDBRANCH  14  15
ENDBRANCH  13  14
ENDBRANCH   8  13
BRANCH   1  27
HETATM   27  C   UNL     1       8.413  22.163  55.747  1.00  0.00     0.293 C 
HETATM   28  O   UNL     1       8.466  22.022  56.958  1.00  0.00    -0.259 OA
BRANCH  27  29
HETATM   29  O   UNL     1       9.097  21.433  54.832  1.00  0.00    -0.323 OA
HETATM   30  C   UNL     1       8.850  20.029  54.907  1.00  0.00     0.213 C 
ENDBRANCH  27  29
ENDBRANCH   1  27
TORSDOF 6
ENDMDL
MODEL 8
REMARK VINA RESULT:      -8.5      5.591      8.099
REMARK  6 active torsions:
REMARK  status: ('A' for Active; 'I' for Inactive)
REMARK    1  A    between atoms: O_2  and  C_3 
REMARK    2  A    between atoms: C_3  and  C_4 
REMARK    3  A    between atoms: C_11  and  C_12 
REMARK    4  A    between atoms: C_12  and  S_13 
REMARK    5  A    between atoms: S_13  and  C_14 
REMARK    6  A    between atoms: C_16  and  C_17 
ROOT
HETATM    1  C   UNL     1       0.828  29.108  47.046  1.00  0.00     0.041 A 
HETATM    2  C   UNL     1       1.868  29.298  47.970  1.00  0.00     0.050 A 
HETATM    3  C   UNL     1       2.634  28.215  48.410  1.00  0.00     0.075 A 
HETATM    4  C   UNL     1       2.348  26.942  47.909  1.00  0.00     0.061 A 
HETATM    5  C   UNL     1       3.150  25.817  48.417  1.00  0.00     0.259 A 
HETATM    6  O   UNL     1       2.965  24.662  48.052  1.00  0.00    -0.267 OA
HETATM    7  N   UNL     1       4.112  26.149  49.334  1.00  0.00    -0.310 N 
HETATM    8  C   UNL     1       4.313  27.425  49.796  1.00  0.00     0.117 A 
HETATM    9  N   UNL     1       3.647  28.447  49.357  1.00  0.00    -0.234 NA
HETATM   10  C   UNL     1       1.323  26.734  46.984  1.00  0.00     0.020 A 
HETATM   11  C   UNL     1       0.563  27.822  46.553  1.00  0.00     0.019 A 
HETATM   12  H   UNL     1       4.584  25.367  49.768  1.00  0.00     0.170 HD
ENDROOT
BRANCH   8  13
HETATM   13  C   UNL     1       5.399  27.577  50.842  1.00  0.00     0.161 C 
BRANCH  13  14
HETATM   14  S   UNL     1       4.920  26.821  52.419  1.00  0.00    -0.083 SA
BRANCH  14  15
HETATM   15  C   UNL     1       6.025  25.510  52.535  1.00  0.00     0.185 A 
HETATM   16  N   UNL     1       5.976  24.457  53.310  1.00  0.00    -0.201 NA
HETATM   17  C   UNL     1       7.170  23.811  53.035  1.00  0.00     0.182 A 
HETATM   18  N   UNL     1       7.906  24.414  52.084  1.00  0.00    -0.152 NA
HETATM   19  N   UNL     1       7.157  25.488  51.791  1.00  0.00    -0.253 N 
HETATM   20  H   UNL     1       7.480  26.163  51.109  1.00  0.00     0.191 HD
BRANCH  17  21
HETATM   21  C   UNL     1       7.597  22.611  53.752  1.00  0.00     0.013 A 
HETATM   22  C   UNL     1       8.015  21.472  53.051  1.00  0.00     0.015 A 
HETATM   23  C   UNL     1       8.390  20.311  53.732  1.00  0.00     0.001 A 
HETATM   24  C   UNL     1       8.358  20.278  55.124  1.00  0.00     0.000 A 
HETATM   25  C   UNL     1       7.951  21.404  55.837  1.00  0.00     0.001 A 
HETATM   26  C   UNL     1       7.571  22.564  55.154  1.00  0.00     0.015 A 
ENDBRANCH  17  21
ENDBRANCH  14  15
ENDBRANCH  13  14
ENDBRANCH   8  13
BRANCH   1  27
HETATM   27  C   UNL     1      -0.028  30.229  46.570  1.00  0.00     0.293 C 
HETATM   28  O   UNL     1      -0.632  30.209  45.510  1.00  0.00    -0.259 OA
BRANCH  27  29
HETATM   29  O   UNL     1      -0.035  31.244  47.469  1.00  0.00    -0.323 OA
HETATM   30  C   UNL     1      -1.344  31.667  47.854  1.00  0.00     0.213 C 
ENDBRANCH  27  29
ENDBRANCH   1  27
TORSDOF 6
ENDMDL
MODEL 9
REMARK VINA RESULT:      -8.3      3.210      4.059
REMARK  6 active torsions:
REMARK  status: ('A' for Active; 'I' for Inactive)
REMARK    1  A    between atoms: O_2  and  C_3 
REMARK    2  A    between atoms: C_3  and  C_4 
REMARK    3  A    between atoms: C_11  and  C_12 
REMARK    4  A    between atoms: C_12  and  S_13 
REMARK    5  A    between atoms: S_13  and  C_14 
REMARK    6  A    between atoms: C_16  and  C_17 
ROOT
HETATM    1  C   UNL     1       7.028  32.167  60.022  1.00  0.00     0.041 A 
HETATM    2  C   UNL     1       7.659  31.125  59.324  1.00  0.00     0.050 A 
HETATM    3  C   UNL     1       7.161  30.689  58.093  1.00  0.00     0.075 A 
HETATM    4  C   UNL     1       6.024  31.312  57.570  1.00  0.00     0.061 A 
HETATM    5  C   UNL     1       5.504  30.809  56.288  1.00  0.00     0.259 A 
HETATM    6  O   UNL     1       4.504  31.277  55.757  1.00  0.00    -0.267 OA
HETATM    7  N   UNL     1       6.207  29.771  55.736  1.00  0.00    -0.310 N 
HETATM    8  C   UNL     1       7.303  29.196  56.328  1.00  0.00     0.117 A 
HETATM    9  N   UNL     1       7.808  29.625  57.442  1.00  0.00    -0.234 NA
HETATM   10  C   UNL     1       5.386  32.355  58.245  1.00  0.00     0.020 A 
HETATM   11  C   UNL     1       5.891  32.781  59.474  1.00  0.00     0.019 A 
HETATM   12  H   UNL     1       5.787  29.350  54.918  1.00  0.00     0.170 HD
ENDROOT
BRANCH   8  13
HETATM   13  C   UNL     1       7.916  28.031  55.576  1.00  0.00     0.161 C 
BRANCH  13  14
HETATM   14  S   UNL     1       7.355  27.977  53.853  1.00  0.00    -0.083 SA
BRANCH  14  15
HETATM   15  C   UNL     1       7.434  26.296  53.505  1.00  0.00     0.185 A 
HETATM   16  N   UNL     1       7.468  25.284  54.333  1.00  0.00    -0.201 NA
HETATM   17  C   UNL     1       7.626  24.196  53.490  1.00  0.00     0.182 A 
HETATM   18  N   UNL     1       7.634  24.519  52.184  1.00  0.00    -0.152 NA
HETATM   19  N   UNL     1       7.515  25.855  52.226  1.00  0.00    -0.253 N 
HETATM   20  H   UNL     1       7.520  26.393  51.369  1.00  0.00     0.191 HD
BRANCH  17  21
HETATM   21  C   UNL     1       7.811  22.835  53.990  1.00  0.00     0.013 A 
HETATM   22  C   UNL     1       8.058  21.777  53.105  1.00  0.00     0.015 A 
HETATM   23  C   UNL     1       8.200  20.469  53.577  1.00  0.00     0.001 A 
HETATM   24  C   UNL     1       8.103  20.206  54.941  1.00  0.00     0.000 A 
HETATM   25  C   UNL     1       7.863  21.247  55.835  1.00  0.00     0.001 A 
HETATM   26  C   UNL     1       7.717  22.555  55.362  1.00  0.00     0.015 A 
ENDBRANCH  17  21
ENDBRANCH  14  15
ENDBRANCH  13  14
ENDBRANCH   8  13
BRANCH   1  27
HETATM   27  C   UNL     1       7.511  32.645  61.345  1.00  0.00     0.293 C 
HETATM   28  O   UNL     1       6.969  33.539  61.974  1.00  0.00    -0.259 OA
BRANCH  27  29
HETATM   29  O   UNL     1       8.609  31.953  61.736  1.00  0.00    -0.323 OA
HETATM   30  C   UNL     1       8.332  30.893  62.652  1.00  0.00     0.213 C 
ENDBRANCH  27  29
ENDBRANCH   1  27
TORSDOF 6
ENDMDL
MODEL 10
REMARK VINA RESULT:      -8.2      4.815      6.393
REMARK  6 active torsions:
REMARK  status: ('A' for Active; 'I' for Inactive)
REMARK    1  A    between atoms: O_2  and  C_3 
REMARK    2  A    between atoms: C_3  and  C_4 
REMARK    3  A    between atoms: C_11  and  C_12 
REMARK    4  A    between atoms: C_12  and  S_13 
REMARK    5  A    between atoms: S_13  and  C_14 
REMARK    6  A    between atoms: C_16  and  C_17 
ROOT
HETATM    1  C   UNL     1       5.590  33.713  61.431  1.00  0.00     0.041 A 
HETATM    2  C   UNL     1       5.655  32.930  60.267  1.00  0.00     0.050 A 
HETATM    3  C   UNL     1       6.662  31.972  60.110  1.00  0.00     0.075 A 
HETATM    4  C   UNL     1       7.599  31.809  61.134  1.00  0.00     0.061 A 
HETATM    5  C   UNL     1       8.665  30.816  60.925  1.00  0.00     0.259 A 
HETATM    6  O   UNL     1       9.543  30.612  61.755  1.00  0.00    -0.267 OA
HETATM    7  N   UNL     1       8.617  30.145  59.732  1.00  0.00    -0.310 N 
HETATM    8  C   UNL     1       7.675  30.384  58.764  1.00  0.00     0.117 A 
HETATM    9  N   UNL     1       6.705  31.229  58.918  1.00  0.00    -0.234 NA
HETATM   10  C   UNL     1       7.547  32.573  62.302  1.00  0.00     0.020 A 
HETATM   11  C   UNL     1       6.539  33.527  62.447  1.00  0.00     0.019 A 
HETATM   12  H   UNL     1       9.411  29.549  59.539  1.00  0.00     0.170 HD
ENDROOT
BRANCH   8  13
HETATM   13  C   UNL     1       7.819  29.566  57.496  1.00  0.00     0.161 C 
BRANCH  13  14
HETATM   14  S   UNL     1       6.370  28.513  57.211  1.00  0.00    -0.083 SA
BRANCH  14  15
HETATM   15  C   UNL     1       7.096  26.996  56.859  1.00  0.00     0.185 A 
HETATM   16  N   UNL     1       7.175  26.365  55.716  1.00  0.00    -0.201 NA
HETATM   17  C   UNL     1       7.773  25.165  56.062  1.00  0.00     0.182 A 
HETATM   18  N   UNL     1       8.103  25.079  57.363  1.00  0.00    -0.152 NA
HETATM   19  N   UNL     1       7.657  26.250  57.842  1.00  0.00    -0.253 N 
HETATM   20  H   UNL     1       7.744  26.463  58.828  1.00  0.00     0.191 HD
BRANCH  17  21
HETATM   21  C   UNL     1       7.981  24.085  55.100  1.00  0.00     0.013 A 
HETATM   22  C   UNL     1       7.347  24.111  53.849  1.00  0.00     0.015 A 
HETATM   23  C   UNL     1       7.516  23.064  52.940  1.00  0.00     0.001 A 
HETATM   24  C   UNL     1       8.325  21.979  53.268  1.00  0.00     0.000 A 
HETATM   25  C   UNL     1       8.966  21.939  54.504  1.00  0.00     0.001 A 
HETATM   26  C   UNL     1       8.795  22.986  55.416  1.00  0.00     0.015 A 
ENDBRANCH  17  21
ENDBRANCH  14  15
ENDBRANCH  13  14
ENDBRANCH   8  13
BRANCH   1  27
HETATM   27  C   UNL     1       4.551  34.760  61.628  1.00  0.00     0.293 C 
HETATM   28  O   UNL     1       3.910  34.883  62.659  1.00  0.00    -0.259 OA
BRANCH  27  29
HETATM   29  O   UNL     1       4.431  35.533  60.521  1.00  0.00    -0.323 OA
HETATM   30  C   UNL     1       3.279  36.377  60.526  1.00  0.00     0.213 C 
ENDBRANCH  27  29
ENDBRANCH   1  27
TORSDOF 6
ENDMDL
