MODEL 1
REMARK VINA RESULT:     -10.6      0.000      0.000
REMARK  5 active torsions:
REMARK  status: ('A' for Active; 'I' for Inactive)
REMARK    1  A    between atoms: C_2  and  C_3 
REMARK    2  A    between atoms: C_8  and  N_9 
REMARK       I    between atoms: N_9  and  C_10 
REMARK       I    between atoms: C_10  and  N_11 
REMARK    3  A    between atoms: N_11  and  C_12 
REMARK    4  A    between atoms: C_12  and  C_13 
REMARK    5  A    between atoms: C_13  and  C_14 
ROOT
HETATM    1  N   UNL     1       8.137  29.221  58.466  1.00  0.00    -0.305 N 
HETATM    2  C   UNL     1       7.337  28.881  57.402  1.00  0.00     0.320 C 
HETATM    3  N   UNL     1       7.061  27.529  57.414  1.00  0.00    -0.343 N 
HETATM    4  O   UNL     1       6.878  29.638  56.560  1.00  0.00    -0.247 OA
HETATM    5  H   UNL     1       8.124  28.571  59.239  1.00  0.00     0.171 HD
HETATM    6  H   UNL     1       7.797  26.941  57.778  1.00  0.00     0.164 HD
ENDROOT
BRANCH   3   7
HETATM    7  C   UNL     1       6.219  26.956  56.376  1.00  0.00     0.129 C 
BRANCH   7   8
HETATM    8  C   UNL     1       6.939  26.824  55.029  1.00  0.00     0.058 C 
BRANCH   8   9
HETATM    9  C   UNL     1       7.263  25.429  54.539  1.00  0.00    -0.056 A 
HETATM   10  C   UNL     1       7.300  24.306  55.377  1.00  0.00     0.019 A 
HETATM   11  C   UNL     1       7.577  23.020  54.873  1.00  0.00    -0.025 A 
HETATM   12  C   UNL     1       7.808  22.853  53.490  1.00  0.00    -0.026 A 
HETATM   13  C   UNL     1       7.625  21.898  55.716  1.00  0.00     0.012 A 
HETATM   14  C   UNL     1       7.755  23.972  52.649  1.00  0.00     0.013 A 
HETATM   15  C   UNL     1       8.079  21.570  52.987  1.00  0.00     0.012 A 
HETATM   16  C   UNL     1       7.482  25.241  53.167  1.00  0.00     0.008 A 
HETATM   17  C   UNL     1       8.123  20.465  53.838  1.00  0.00     0.001 A 
HETATM   18  C   UNL     1       7.897  20.629  55.201  1.00  0.00     0.001 A 
ENDBRANCH   8   9
ENDBRANCH   7   8
ENDBRANCH   3   7
BRANCH   1  19
HETATM   19  C   UNL     1       8.672  30.476  58.718  1.00  0.00     0.095 A 
HETATM   20  C   UNL     1       9.898  30.881  58.232  1.00  0.00     0.107 A 
HETATM   21  O   UNL     1      10.152  32.149  58.640  1.00  0.00    -0.215 OA
HETATM   22  N   UNL     1       9.094  32.616  59.386  1.00  0.00    -0.131 NA
HETATM   23  C   UNL     1       8.198  31.618  59.428  1.00  0.00     0.087 A 
HETATM   24  C   UNL     1       6.913  31.859  60.125  1.00  0.00     0.075 C 
BRANCH  20  25
HETATM   25  C   UNL     1      10.954  30.249  57.405  1.00  0.00     0.065 C 
HETATM   26  C   UNL     1      10.419  29.793  56.057  1.00  0.00     0.012 C 
ENDBRANCH  20  25
ENDBRANCH   1  19
TORSDOF 5
ENDMDL
MODEL 2
REMARK VINA RESULT:     -10.4      0.642      2.137
REMARK  5 active torsions:
REMARK  status: ('A' for Active; 'I' for Inactive)
REMARK    1  A    between atoms: C_2  and  C_3 
REMARK    2  A    between atoms: C_8  and  N_9 
REMARK       I    between atoms: N_9  and  C_10 
REMARK       I    between atoms: C_10  and  N_11 
REMARK    3  A    between atoms: N_11  and  C_12 
REMARK    4  A    between atoms: C_12  and  C_13 
REMARK    5  A    between atoms: C_13  and  C_14 
ROOT
HETATM    1  N   UNL     1       8.229  29.051  58.010  1.00  0.00    -0.305 N 
HETATM    2  C   UNL     1       7.383  28.782  56.962  1.00  0.00     0.320 C 
HETATM    3  N   UNL     1       6.985  27.460  56.985  1.00  0.00    -0.343 N 
HETATM    4  O   UNL     1       6.979  29.575  56.124  1.00  0.00    -0.247 OA
HETATM    5  H   UNL     1       8.171  28.408  58.786  1.00  0.00     0.171 HD
HETATM    6  H   UNL     1       7.671  26.809  57.339  1.00  0.00     0.164 HD
ENDROOT
BRANCH   3   7
HETATM    7  C   UNL     1       6.077  26.963  55.965  1.00  0.00     0.129 C 
BRANCH   7   8
HETATM    8  C   UNL     1       6.762  26.743  54.612  1.00  0.00     0.058 C 
BRANCH   8   9
HETATM    9  C   UNL     1       7.169  25.330  54.251  1.00  0.00    -0.056 A 
HETATM   10  C   UNL     1       7.187  24.273  55.173  1.00  0.00     0.019 A 
HETATM   11  C   UNL     1       7.545  22.967  54.788  1.00  0.00    -0.025 A 
HETATM   12  C   UNL     1       7.878  22.708  53.440  1.00  0.00    -0.026 A 
HETATM   13  C   UNL     1       7.574  21.912  55.714  1.00  0.00     0.012 A 
HETATM   14  C   UNL     1       7.844  23.759  52.515  1.00  0.00     0.013 A 
HETATM   15  C   UNL     1       8.228  21.404  53.055  1.00  0.00     0.012 A 
HETATM   16  C   UNL     1       7.490  25.051  52.915  1.00  0.00     0.008 A 
HETATM   17  C   UNL     1       8.253  20.367  53.988  1.00  0.00     0.001 A 
HETATM   18  C   UNL     1       7.926  20.621  55.317  1.00  0.00     0.001 A 
ENDBRANCH   8   9
ENDBRANCH   7   8
ENDBRANCH   3   7
BRANCH   1  19
HETATM   19  C   UNL     1       8.879  30.253  58.247  1.00  0.00     0.095 A 
HETATM   20  C   UNL     1       8.289  31.309  58.911  1.00  0.00     0.107 A 
HETATM   21  O   UNL     1       9.163  32.343  58.990  1.00  0.00    -0.215 OA
HETATM   22  N   UNL     1      10.354  31.987  58.400  1.00  0.00    -0.131 NA
HETATM   23  C   UNL     1      10.192  30.730  57.960  1.00  0.00     0.087 A 
HETATM   24  C   UNL     1      11.348  30.056  57.322  1.00  0.00     0.075 C 
BRANCH  20  25
HETATM   25  C   UNL     1       6.957  31.546  59.519  1.00  0.00     0.065 C 
HETATM   26  C   UNL     1       7.055  32.371  60.792  1.00  0.00     0.012 C 
ENDBRANCH  20  25
ENDBRANCH   1  19
TORSDOF 5
ENDMDL
MODEL 3
REMARK VINA RESULT:     -10.4      0.809      2.633
REMARK  5 active torsions:
REMARK  status: ('A' for Active; 'I' for Inactive)
REMARK    1  A    between atoms: C_2  and  C_3 
REMARK    2  A    between atoms: C_8  and  N_9 
REMARK       I    between atoms: N_9  and  C_10 
REMARK       I    between atoms: C_10  and  N_11 
REMARK    3  A    between atoms: N_11  and  C_12 
REMARK    4  A    between atoms: C_12  and  C_13 
REMARK    5  A    between atoms: C_13  and  C_14 
ROOT
HETATM    1  N   UNL     1       7.990  29.284  58.361  1.00  0.00    -0.305 N 
HETATM    2  C   UNL     1       7.401  28.843  57.201  1.00  0.00     0.320 C 
HETATM    3  N   UNL     1       6.823  27.603  57.390  1.00  0.00    -0.343 N 
HETATM    4  O   UNL     1       7.337  29.442  56.138  1.00  0.00    -0.247 OA
HETATM    5  H   UNL     1       7.649  28.853  59.208  1.00  0.00     0.171 HD
HETATM    6  H   UNL     1       7.298  27.001  58.047  1.00  0.00     0.164 HD
ENDROOT
BRANCH   3   7
HETATM    7  C   UNL     1       6.134  26.953  56.288  1.00  0.00     0.129 C 
BRANCH   7   8
HETATM    8  C   UNL     1       7.092  26.431  55.211  1.00  0.00     0.058 C 
BRANCH   8   9
HETATM    9  C   UNL     1       7.442  24.958  55.235  1.00  0.00    -0.056 A 
HETATM   10  C   UNL     1       7.476  24.155  54.086  1.00  0.00     0.019 A 
HETATM   11  C   UNL     1       7.836  22.795  54.149  1.00  0.00    -0.025 A 
HETATM   12  C   UNL     1       8.187  22.229  55.394  1.00  0.00    -0.026 A 
HETATM   13  C   UNL     1       7.858  21.988  53.000  1.00  0.00     0.012 A 
HETATM   14  C   UNL     1       8.170  23.034  56.540  1.00  0.00     0.013 A 
HETATM   15  C   UNL     1       8.553  20.873  55.457  1.00  0.00     0.012 A 
HETATM   16  C   UNL     1       7.807  24.381  56.459  1.00  0.00     0.008 A 
HETATM   17  C   UNL     1       8.569  20.086  54.305  1.00  0.00     0.001 A 
HETATM   18  C   UNL     1       8.222  20.643  53.078  1.00  0.00     0.001 A 
ENDBRANCH   8   9
ENDBRANCH   7   8
ENDBRANCH   3   7
BRANCH   1  19
HETATM   19  C   UNL     1       8.728  30.449  58.510  1.00  0.00     0.095 A 
HETATM   20  C   UNL     1       8.272  31.541  59.218  1.00  0.00     0.107 A 
HETATM   21  O   UNL     1       9.206  32.524  59.190  1.00  0.00    -0.215 OA
HETATM   22  N   UNL     1      10.306  32.096  58.482  1.00  0.00    -0.131 NA
HETATM   23  C   UNL     1      10.027  30.847  58.079  1.00  0.00     0.087 A 
HETATM   24  C   UNL     1      11.069  30.103  57.332  1.00  0.00     0.075 C 
BRANCH  20  25
HETATM   25  C   UNL     1       7.028  31.859  59.961  1.00  0.00     0.065 C 
HETATM   26  C   UNL     1       7.316  32.592  61.261  1.00  0.00     0.012 C 
ENDBRANCH  20  25
ENDBRANCH   1  19
TORSDOF 5
ENDMDL
MODEL 4
REMARK VINA RESULT:      -9.3      1.837      2.606
REMARK  5 active torsions:
REMARK  status: ('A' for Active; 'I' for Inactive)
REMARK    1  A    between atoms: C_2  and  C_3 
REMARK    2  A    between atoms: C_8  and  N_9 
REMARK       I    between atoms: N_9  and  C_10 
REMARK       I    between atoms: C_10  and  N_11 
REMARK    3  A    between atoms: N_11  and  C_12 
REMARK    4  A    between atoms: C_12  and  C_13 
REMARK    5  A    between atoms: C_13  and  C_14 
ROOT
HETATM    1  N   UNL     1       6.594  29.332  55.411  1.00  0.00    -0.305 N 
HETATM    2  C   UNL     1       6.057  28.081  55.227  1.00  0.00     0.320 C 
HETATM    3  N   UNL     1       5.837  27.838  53.886  1.00  0.00    -0.343 N 
HETATM    4  O   UNL     1       5.824  27.249  56.092  1.00  0.00    -0.247 OA
HETATM    5  H   UNL     1       7.046  29.729  54.600  1.00  0.00     0.171 HD
HETATM    6  H   UNL     1       5.586  28.647  53.336  1.00  0.00     0.164 HD
ENDROOT
BRANCH   3   7
HETATM    7  C   UNL     1       5.279  26.564  53.467  1.00  0.00     0.129 C 
BRANCH   7   8
HETATM    8  C   UNL     1       6.305  25.660  52.774  1.00  0.00     0.058 C 
BRANCH   8   9
HETATM    9  C   UNL     1       6.775  24.429  53.519  1.00  0.00    -0.056 A 
HETATM   10  C   UNL     1       7.329  23.308  52.884  1.00  0.00     0.019 A 
HETATM   11  C   UNL     1       7.781  22.195  53.618  1.00  0.00    -0.025 A 
HETATM   12  C   UNL     1       7.692  22.212  55.027  1.00  0.00    -0.026 A 
HETATM   13  C   UNL     1       8.324  21.068  52.980  1.00  0.00     0.012 A 
HETATM   14  C   UNL     1       7.155  23.338  55.664  1.00  0.00     0.013 A 
HETATM   15  C   UNL     1       8.149  21.103  55.760  1.00  0.00     0.012 A 
HETATM   16  C   UNL     1       6.708  24.432  54.920  1.00  0.00     0.008 A 
HETATM   17  C   UNL     1       8.685  19.991  55.110  1.00  0.00     0.001 A 
HETATM   18  C   UNL     1       8.772  19.973  53.722  1.00  0.00     0.001 A 
ENDBRANCH   8   9
ENDBRANCH   7   8
ENDBRANCH   3   7
BRANCH   1  19
HETATM   19  C   UNL     1       6.866  29.933  56.631  1.00  0.00     0.095 A 
HETATM   20  C   UNL     1       8.040  29.725  57.325  1.00  0.00     0.107 A 
HETATM   21  O   UNL     1       8.020  30.442  58.477  1.00  0.00    -0.215 OA
HETATM   22  N   UNL     1       6.844  31.152  58.559  1.00  0.00    -0.131 NA
HETATM   23  C   UNL     1       6.151  30.857  57.449  1.00  0.00     0.087 A 
HETATM   24  C   UNL     1       4.849  31.531  57.235  1.00  0.00     0.075 C 
BRANCH  20  25
HETATM   25  C   UNL     1       9.259  28.914  57.095  1.00  0.00     0.065 C 
HETATM   26  C   UNL     1      10.508  29.777  57.023  1.00  0.00     0.012 C 
ENDBRANCH  20  25
ENDBRANCH   1  19
TORSDOF 5
ENDMDL
MODEL 5
REMARK VINA RESULT:      -9.3      6.046      8.568
REMARK  5 active torsions:
REMARK  status: ('A' for Active; 'I' for Inactive)
REMARK    1  A    between atoms: C_2  and  C_3 
REMARK    2  A    between atoms: C_8  and  N_9 
REMARK       I    between atoms: N_9  and  C_10 
REMARK       I    between atoms: C_10  and  N_11 
REMARK    3  A    between atoms: N_11  and  C_12 
REMARK    4  A    between atoms: C_12  and  C_13 
REMARK    5  A    between atoms: C_13  and  C_14 
ROOT
HETATM    1  N   UNL     1       4.726  27.716  48.579  1.00  0.00    -0.305 N 
HETATM    2  C   UNL     1       4.675  27.403  49.916  1.00  0.00     0.320 C 
HETATM    3  N   UNL     1       5.501  26.334  50.197  1.00  0.00    -0.343 N 
HETATM    4  O   UNL     1       4.035  27.983  50.781  1.00  0.00    -0.247 OA
HETATM    5  H   UNL     1       5.547  27.390  48.092  1.00  0.00     0.171 HD
HETATM    6  H   UNL     1       5.587  25.649  49.460  1.00  0.00     0.164 HD
ENDROOT
BRANCH   3   7
HETATM    7  C   UNL     1       5.604  25.842  51.561  1.00  0.00     0.129 C 
BRANCH   7   8
HETATM    8  C   UNL     1       7.044  25.510  51.969  1.00  0.00     0.058 C 
BRANCH   8   9
HETATM    9  C   UNL     1       7.252  24.403  52.980  1.00  0.00    -0.056 A 
HETATM   10  C   UNL     1       7.803  23.155  52.655  1.00  0.00     0.019 A 
HETATM   11  C   UNL     1       8.007  22.163  53.634  1.00  0.00    -0.025 A 
HETATM   12  C   UNL     1       7.664  22.435  54.976  1.00  0.00    -0.026 A 
HETATM   13  C   UNL     1       8.547  20.910  53.305  1.00  0.00     0.012 A 
HETATM   14  C   UNL     1       7.130  23.687  55.306  1.00  0.00     0.013 A 
HETATM   15  C   UNL     1       7.873  21.447  55.954  1.00  0.00     0.012 A 
HETATM   16  C   UNL     1       6.931  24.658  54.321  1.00  0.00     0.008 A 
HETATM   17  C   UNL     1       8.411  20.207  55.610  1.00  0.00     0.001 A 
HETATM   18  C   UNL     1       8.747  19.938  54.287  1.00  0.00     0.001 A 
ENDBRANCH   8   9
ENDBRANCH   7   8
ENDBRANCH   3   7
BRANCH   1  19
HETATM   19  C   UNL     1       3.965  28.682  47.937  1.00  0.00     0.095 A 
HETATM   20  C   UNL     1       2.799  28.391  47.259  1.00  0.00     0.107 A 
HETATM   21  O   UNL     1       2.279  29.530  46.738  1.00  0.00    -0.215 OA
HETATM   22  N   UNL     1       3.078  30.599  47.076  1.00  0.00    -0.131 NA
HETATM   23  C   UNL     1       4.087  30.096  47.804  1.00  0.00     0.087 A 
HETATM   24  C   UNL     1       5.086  31.038  48.361  1.00  0.00     0.075 C 
BRANCH  20  25
HETATM   25  C   UNL     1       2.033  27.151  46.983  1.00  0.00     0.065 C 
HETATM   26  C   UNL     1       0.533  27.389  47.035  1.00  0.00     0.012 C 
ENDBRANCH  20  25
ENDBRANCH   1  19
TORSDOF 5
ENDMDL
MODEL 6
REMARK VINA RESULT:      -9.3      1.740      2.130
REMARK  5 active torsions:
REMARK  status: ('A' for Active; 'I' for Inactive)
REMARK    1  A    between atoms: C_2  and  C_3 
REMARK    2  A    between atoms: C_8  and  N_9 
REMARK       I    between atoms: N_9  and  C_10 
REMARK       I    between atoms: C_10  and  N_11 
REMARK    3  A    between atoms: N_11  and  C_12 
REMARK    4  A    between atoms: C_12  and  C_13 
REMARK    5  A    between atoms: C_13  and  C_14 
ROOT
HETATM    1  N   UNL     1       7.219  29.585  57.423  1.00  0.00    -0.305 N 
HETATM    2  C   UNL     1       6.304  28.609  57.111  1.00  0.00     0.320 C 
HETATM    3  N   UNL     1       6.880  27.639  56.314  1.00  0.00    -0.343 N 
HETATM    4  O   UNL     1       5.144  28.543  57.490  1.00  0.00    -0.247 OA
HETATM    5  H   UNL     1       8.187  29.310  57.338  1.00  0.00     0.171 HD
HETATM    6  H   UNL     1       7.593  27.969  55.680  1.00  0.00     0.164 HD
ENDROOT
BRANCH   3   7
HETATM    7  C   UNL     1       6.086  26.505  55.873  1.00  0.00     0.129 C 
BRANCH   7   8
HETATM    8  C   UNL     1       6.390  26.089  54.429  1.00  0.00     0.058 C 
BRANCH   8   9
HETATM    9  C   UNL     1       6.988  24.717  54.203  1.00  0.00    -0.056 A 
HETATM   10  C   UNL     1       7.150  23.768  55.223  1.00  0.00     0.019 A 
HETATM   11  C   UNL     1       7.684  22.491  54.963  1.00  0.00    -0.025 A 
HETATM   12  C   UNL     1       8.050  22.150  53.643  1.00  0.00    -0.026 A 
HETATM   13  C   UNL     1       7.857  21.547  55.988  1.00  0.00     0.012 A 
HETATM   14  C   UNL     1       7.873  23.090  52.620  1.00  0.00     0.013 A 
HETATM   15  C   UNL     1       8.577  20.873  53.382  1.00  0.00     0.012 A 
HETATM   16  C   UNL     1       7.345  24.353  52.897  1.00  0.00     0.008 A 
HETATM   17  C   UNL     1       8.743  19.947  54.412  1.00  0.00     0.001 A 
HETATM   18  C   UNL     1       8.384  20.283  55.714  1.00  0.00     0.001 A 
ENDBRANCH   8   9
ENDBRANCH   7   8
ENDBRANCH   3   7
BRANCH   1  19
HETATM   19  C   UNL     1       6.962  30.746  58.137  1.00  0.00     0.095 A 
HETATM   20  C   UNL     1       7.680  31.112  59.257  1.00  0.00     0.107 A 
HETATM   21  O   UNL     1       7.204  32.288  59.738  1.00  0.00    -0.215 OA
HETATM   22  N   UNL     1       6.177  32.734  58.937  1.00  0.00    -0.131 NA
HETATM   23  C   UNL     1       6.034  31.815  57.969  1.00  0.00     0.087 A 
HETATM   24  C   UNL     1       5.025  32.063  56.912  1.00  0.00     0.075 C 
BRANCH  20  25
HETATM   25  C   UNL     1       8.803  30.515  60.019  1.00  0.00     0.065 C 
HETATM   26  C   UNL     1       9.147  31.332  61.254  1.00  0.00     0.012 C 
ENDBRANCH  20  25
ENDBRANCH   1  19
TORSDOF 5
ENDMDL
MODEL 7
REMARK VINA RESULT:      -9.0      5.745      8.238
REMARK  5 active torsions:
REMARK  status: ('A' for Active; 'I' for Inactive)
REMARK    1  A    between atoms: C_2  and  C_3 
REMARK    2  A    between atoms: C_8  and  N_9 
REMARK       I    between atoms: N_9  and  C_10 
REMARK       I    between atoms: C_10  and  N_11 
REMARK    3  A    between atoms: N_11  and  C_12 
REMARK    4  A    between atoms: C_12  and  C_13 
REMARK    5  A    between atoms: C_13  and  C_14 
ROOT
HETATM    1  N   UNL     1       3.424  27.466  50.093  1.00  0.00    -0.305 N 
HETATM    2  C   UNL     1       4.704  27.518  50.587  1.00  0.00     0.320 C 
HETATM    3  N   UNL     1       4.804  26.792  51.758  1.00  0.00    -0.343 N 
HETATM    4  O   UNL     1       5.663  28.080  50.079  1.00  0.00    -0.247 OA
HETATM    5  H   UNL     1       2.867  26.690  50.422  1.00  0.00     0.171 HD
HETATM    6  H   UNL     1       3.976  26.789  52.336  1.00  0.00     0.164 HD
ENDROOT
BRANCH   3   7
HETATM    7  C   UNL     1       6.082  26.707  52.446  1.00  0.00     0.129 C 
BRANCH   7   8
HETATM    8  C   UNL     1       6.923  25.508  51.996  1.00  0.00     0.058 C 
BRANCH   8   9
HETATM    9  C   UNL     1       7.176  24.408  53.005  1.00  0.00    -0.056 A 
HETATM   10  C   UNL     1       7.734  23.166  52.669  1.00  0.00     0.019 A 
HETATM   11  C   UNL     1       7.980  22.180  53.644  1.00  0.00    -0.025 A 
HETATM   12  C   UNL     1       7.672  22.452  54.995  1.00  0.00    -0.026 A 
HETATM   13  C   UNL     1       8.528  20.933  53.304  1.00  0.00     0.012 A 
HETATM   14  C   UNL     1       7.129  23.697  55.336  1.00  0.00     0.013 A 
HETATM   15  C   UNL     1       7.922  21.471  55.969  1.00  0.00     0.012 A 
HETATM   16  C   UNL     1       6.889  24.662  54.354  1.00  0.00     0.008 A 
HETATM   17  C   UNL     1       8.468  20.237  55.614  1.00  0.00     0.001 A 
HETATM   18  C   UNL     1       8.770  19.968  54.283  1.00  0.00     0.001 A 
ENDBRANCH   8   9
ENDBRANCH   7   8
ENDBRANCH   3   7
BRANCH   1  19
HETATM   19  C   UNL     1       2.949  28.144  48.980  1.00  0.00     0.095 A 
HETATM   20  C   UNL     1       2.694  29.499  48.979  1.00  0.00     0.107 A 
HETATM   21  O   UNL     1       2.242  29.877  47.757  1.00  0.00    -0.215 OA
HETATM   22  N   UNL     1       2.209  28.785  46.920  1.00  0.00    -0.131 NA
HETATM   23  C   UNL     1       2.641  27.743  47.647  1.00  0.00     0.087 A 
HETATM   24  C   UNL     1       2.766  26.426  46.979  1.00  0.00     0.075 C 
BRANCH  20  25
HETATM   25  C   UNL     1       2.794  30.581  49.989  1.00  0.00     0.065 C 
HETATM   26  C   UNL     1       1.508  31.386  50.084  1.00  0.00     0.012 C 
ENDBRANCH  20  25
ENDBRANCH   1  19
TORSDOF 5
ENDMDL
MODEL 8
REMARK VINA RESULT:      -8.9      2.142      3.408
REMARK  5 active torsions:
REMARK  status: ('A' for Active; 'I' for Inactive)
REMARK    1  A    between atoms: C_2  and  C_3 
REMARK    2  A    between atoms: C_8  and  N_9 
REMARK       I    between atoms: N_9  and  C_10 
REMARK       I    between atoms: C_10  and  N_11 
REMARK    3  A    between atoms: N_11  and  C_12 
REMARK    4  A    between atoms: C_12  and  C_13 
REMARK    5  A    between atoms: C_13  and  C_14 
ROOT
HETATM    1  N   UNL     1       6.576  29.594  55.710  1.00  0.00    -0.305 N 
HETATM    2  C   UNL     1       5.917  28.442  55.355  1.00  0.00     0.320 C 
HETATM    3  N   UNL     1       6.216  28.092  54.053  1.00  0.00    -0.343 N 
HETATM    4  O   UNL     1       5.189  27.765  56.066  1.00  0.00    -0.247 OA
HETATM    5  H   UNL     1       7.389  29.814  55.152  1.00  0.00     0.171 HD
HETATM    6  H   UNL     1       6.380  28.866  53.425  1.00  0.00     0.164 HD
ENDROOT
BRANCH   3   7
HETATM    7  C   UNL     1       5.629  26.894  53.476  1.00  0.00     0.129 C 
BRANCH   7   8
HETATM    8  C   UNL     1       6.670  25.963  52.846  1.00  0.00     0.058 C 
BRANCH   8   9
HETATM    9  C   UNL     1       6.976  24.664  53.560  1.00  0.00    -0.056 A 
HETATM   10  C   UNL     1       7.505  23.536  52.916  1.00  0.00     0.019 A 
HETATM   11  C   UNL     1       7.803  22.356  53.625  1.00  0.00    -0.025 A 
HETATM   12  C   UNL     1       7.579  22.309  55.018  1.00  0.00    -0.026 A 
HETATM   13  C   UNL     1       8.322  21.223  52.977  1.00  0.00     0.012 A 
HETATM   14  C   UNL     1       7.066  23.441  55.666  1.00  0.00     0.013 A 
HETATM   15  C   UNL     1       7.882  21.134  55.726  1.00  0.00     0.012 A 
HETATM   16  C   UNL     1       6.773  24.602  54.946  1.00  0.00     0.008 A 
HETATM   17  C   UNL     1       8.397  20.018  55.067  1.00  0.00     0.001 A 
HETATM   18  C   UNL     1       8.616  20.062  53.693  1.00  0.00     0.001 A 
ENDBRANCH   8   9
ENDBRANCH   7   8
ENDBRANCH   3   7
BRANCH   1  19
HETATM   19  C   UNL     1       6.445  30.271  56.913  1.00  0.00     0.095 A 
HETATM   20  C   UNL     1       5.346  31.046  57.223  1.00  0.00     0.107 A 
HETATM   21  O   UNL     1       5.500  31.580  58.460  1.00  0.00    -0.215 OA
HETATM   22  N   UNL     1       6.692  31.156  59.001  1.00  0.00    -0.131 NA
HETATM   23  C   UNL     1       7.259  30.362  58.080  1.00  0.00     0.087 A 
HETATM   24  C   UNL     1       8.545  29.707  58.416  1.00  0.00     0.075 C 
BRANCH  20  25
HETATM   25  C   UNL     1       4.093  31.410  56.518  1.00  0.00     0.065 C 
HETATM   26  C   UNL     1       2.947  30.482  56.885  1.00  0.00     0.012 C 
ENDBRANCH  20  25
ENDBRANCH   1  19
TORSDOF 5
ENDMDL
MODEL 9
REMARK VINA RESULT:      -8.8      2.617      3.460
REMARK  5 active torsions:
REMARK  status: ('A' for Active; 'I' for Inactive)
REMARK    1  A    between atoms: C_2  and  C_3 
REMARK    2  A    between atoms: C_8  and  N_9 
REMARK       I    between atoms: N_9  and  C_10 
REMARK       I    between atoms: C_10  and  N_11 
REMARK    3  A    between atoms: N_11  and  C_12 
REMARK    4  A    between atoms: C_12  and  C_13 
REMARK    5  A    between atoms: C_13  and  C_14 
ROOT
HETATM    1  N   UNL     1       4.572  29.452  57.420  1.00  0.00    -0.305 N 
HETATM    2  C   UNL     1       5.007  28.543  56.486  1.00  0.00     0.320 C 
HETATM    3  N   UNL     1       4.645  27.261  56.850  1.00  0.00    -0.343 N 
HETATM    4  O   UNL     1       5.599  28.788  55.445  1.00  0.00    -0.247 OA
HETATM    5  H   UNL     1       3.813  29.137  58.006  1.00  0.00     0.171 HD
HETATM    6  H   UNL     1       4.625  27.084  57.844  1.00  0.00     0.164 HD
ENDROOT
BRANCH   3   7
HETATM    7  C   UNL     1       5.000  26.142  55.994  1.00  0.00     0.129 C 
BRANCH   7   8
HETATM    8  C   UNL     1       6.410  25.607  56.265  1.00  0.00     0.058 C 
BRANCH   8   9
HETATM    9  C   UNL     1       6.906  24.463  55.406  1.00  0.00    -0.056 A 
HETATM   10  C   UNL     1       7.429  23.273  55.933  1.00  0.00     0.019 A 
HETATM   11  C   UNL     1       7.852  22.222  55.097  1.00  0.00    -0.025 A 
HETATM   12  C   UNL     1       7.733  22.359  53.697  1.00  0.00    -0.026 A 
HETATM   13  C   UNL     1       8.387  21.036  55.626  1.00  0.00     0.012 A 
HETATM   14  C   UNL     1       7.195  23.540  53.169  1.00  0.00     0.013 A 
HETATM   15  C   UNL     1       8.149  21.307  52.863  1.00  0.00     0.012 A 
HETATM   16  C   UNL     1       6.784  24.575  54.014  1.00  0.00     0.008 A 
HETATM   17  C   UNL     1       8.679  20.135  53.405  1.00  0.00     0.001 A 
HETATM   18  C   UNL     1       8.798  20.000  54.785  1.00  0.00     0.001 A 
ENDBRANCH   8   9
ENDBRANCH   7   8
ENDBRANCH   3   7
BRANCH   1  19
HETATM   19  C   UNL     1       4.828  30.815  57.413  1.00  0.00     0.095 A 
HETATM   20  C   UNL     1       4.029  31.727  56.754  1.00  0.00     0.107 A 
HETATM   21  O   UNL     1       4.528  32.977  56.926  1.00  0.00    -0.215 OA
HETATM   22  N   UNL     1       5.652  32.921  57.717  1.00  0.00    -0.131 NA
HETATM   23  C   UNL     1       5.832  31.626  58.019  1.00  0.00     0.087 A 
HETATM   24  C   UNL     1       6.953  31.267  58.921  1.00  0.00     0.075 C 
BRANCH  20  25
HETATM   25  C   UNL     1       2.803  31.632  55.926  1.00  0.00     0.065 C 
HETATM   26  C   UNL     1       3.107  31.153  54.516  1.00  0.00     0.012 C 
ENDBRANCH  20  25
ENDBRANCH   1  19
TORSDOF 5
ENDMDL
MODEL 10
REMARK VINA RESULT:      -8.8      4.125      7.652
REMARK  5 active torsions:
REMARK  status: ('A' for Active; 'I' for Inactive)
REMARK    1  A    between atoms: C_2  and  C_3 
REMARK    2  A    between atoms: C_8  and  N_9 
REMARK       I    between atoms: N_9  and  C_10 
REMARK       I    between atoms: C_10  and  N_11 
REMARK    3  A    between atoms: N_11  and  C_12 
REMARK    4  A    between atoms: C_12  and  C_13 
REMARK    5  A    between atoms: C_13  and  C_14 
ROOT
HETATM    1  N   UNL     1       6.683  23.736  53.574  1.00  0.00    -0.305 N 
HETATM    2  C   UNL     1       6.922  24.720  52.646  1.00  0.00     0.320 C 
HETATM    3  N   UNL     1       5.735  25.197  52.125  1.00  0.00    -0.343 N 
HETATM    4  O   UNL     1       8.010  25.172  52.321  1.00  0.00    -0.247 OA
HETATM    5  H   UNL     1       5.756  23.740  53.976  1.00  0.00     0.171 HD
HETATM    6  H   UNL     1       4.993  24.516  52.048  1.00  0.00     0.164 HD
ENDROOT
BRANCH   3   7
HETATM    7  C   UNL     1       5.759  26.253  51.128  1.00  0.00     0.129 C 
BRANCH   7   8
HETATM    8  C   UNL     1       5.450  27.635  51.714  1.00  0.00     0.058 C 
BRANCH   8   9
HETATM    9  C   UNL     1       5.697  27.844  53.193  1.00  0.00    -0.056 A 
HETATM   10  C   UNL     1       6.960  28.128  53.732  1.00  0.00     0.019 A 
HETATM   11  C   UNL     1       7.140  28.344  55.112  1.00  0.00    -0.025 A 
HETATM   12  C   UNL     1       6.022  28.290  55.973  1.00  0.00    -0.026 A 
HETATM   13  C   UNL     1       8.407  28.618  55.651  1.00  0.00     0.012 A 
HETATM   14  C   UNL     1       4.757  28.023  55.434  1.00  0.00     0.013 A 
HETATM   15  C   UNL     1       6.201  28.512  57.349  1.00  0.00     0.012 A 
HETATM   16  C   UNL     1       4.598  27.807  54.063  1.00  0.00     0.008 A 
HETATM   17  C   UNL     1       7.467  28.782  57.868  1.00  0.00     0.001 A 
HETATM   18  C   UNL     1       8.570  28.834  57.021  1.00  0.00     0.001 A 
ENDBRANCH   8   9
ENDBRANCH   7   8
ENDBRANCH   3   7
BRANCH   1  19
HETATM   19  C   UNL     1       7.644  22.986  54.235  1.00  0.00     0.095 A 
HETATM   20  C   UNL     1       8.283  23.422  55.377  1.00  0.00     0.107 A 
HETATM   21  O   UNL     1       9.166  22.479  55.793  1.00  0.00    -0.215 OA
HETATM   22  N   UNL     1       9.114  21.393  54.948  1.00  0.00    -0.131 NA
HETATM   23  C   UNL     1       8.195  21.689  54.016  1.00  0.00     0.087 A 
HETATM   24  C   UNL     1       7.882  20.665  52.992  1.00  0.00     0.075 C 
BRANCH  20  25
HETATM   25  C   UNL     1       8.221  24.652  56.203  1.00  0.00     0.065 C 
HETATM   26  C   UNL     1       6.869  24.813  56.878  1.00  0.00     0.012 C 
ENDBRANCH  20  25
ENDBRANCH   1  19
TORSDOF 5
ENDMDL
