MODEL 1
REMARK VINA RESULT:      -9.5      0.000      0.000
REMARK  4 active torsions:
REMARK  status: ('A' for Active; 'I' for Inactive)
REMARK    1  A    between atoms: C_5  and  C_6 
REMARK    2  A    between atoms: C_9  and  C_10 
REMARK    3  A    between atoms: C_10  and  N_11 
REMARK       I    between atoms: N_11  and  C_12 
REMARK       I    between atoms: C_12  and  N_13 
REMARK    4  A    between atoms: N_13  and  C_14 
ROOT
HETATM    1  C   UNL     1       7.891  29.401  56.634  1.00  0.00     0.213 C 
ENDROOT
BRANCH   1   2
HETATM    2  C   UNL     1       7.844  27.933  56.824  1.00  0.00     0.190 A 
HETATM    3  O   UNL     1       7.925  27.478  58.105  1.00  0.00    -0.194 OA
HETATM    4  N   UNL     1       7.942  26.088  58.033  1.00  0.00    -0.106 NA
HETATM    5  C   UNL     1       7.865  25.832  56.716  1.00  0.00     0.189 A 
HETATM    6  N   UNL     1       7.791  26.966  55.931  1.00  0.00    -0.202 NA
BRANCH   5   7
HETATM    7  C   UNL     1       7.886  24.487  56.147  1.00  0.00     0.014 A 
HETATM    8  C   UNL     1       7.446  24.248  54.837  1.00  0.00     0.016 A 
HETATM    9  C   UNL     1       7.455  22.956  54.303  1.00  0.00     0.007 A 
HETATM   10  C   UNL     1       7.901  21.876  55.070  1.00  0.00    -0.062 A 
HETATM   11  C   UNL     1       7.933  20.488  54.501  1.00  0.00     0.048 C 
HETATM   12  C   UNL     1       8.350  22.109  56.375  1.00  0.00     0.007 A 
HETATM   13  C   UNL     1       8.339  23.401  56.909  1.00  0.00     0.016 A 
ENDBRANCH   5   7
ENDBRANCH   1   2
BRANCH   1  14
HETATM   14  N   UNL     1       8.302  30.059  57.858  1.00  0.00    -0.335 N 
HETATM   15  C   UNL     1       9.537  30.609  57.983  1.00  0.00     0.321 C 
HETATM   16  N   UNL     1       9.797  31.341  59.098  1.00  0.00    -0.309 N 
HETATM   17  O   UNL     1      10.388  30.538  57.099  1.00  0.00    -0.247 OA
HETATM   18  H   UNL     1      10.633  31.900  58.977  1.00  0.00     0.170 HD
HETATM   19  H   UNL     1       7.571  30.451  58.433  1.00  0.00     0.164 HD
BRANCH  16  20
HETATM   20  C   UNL     1       9.155  31.446  60.345  1.00  0.00     0.036 A 
HETATM   21  C   UNL     1       9.313  30.530  61.389  1.00  0.00     0.029 A 
HETATM   22  C   UNL     1       8.640  30.720  62.601  1.00  0.00     0.002 A 
HETATM   23  C   UNL     1       7.818  31.829  62.783  1.00  0.00     0.000 A 
HETATM   24  C   UNL     1       7.681  32.763  61.760  1.00  0.00     0.002 A 
HETATM   25  C   UNL     1       8.356  32.578  60.552  1.00  0.00     0.029 A 
ENDBRANCH  16  20
ENDBRANCH   1  14
TORSDOF 4
ENDMDL
MODEL 2
REMARK VINA RESULT:      -8.9      1.694      8.806
REMARK  4 active torsions:
REMARK  status: ('A' for Active; 'I' for Inactive)
REMARK    1  A    between atoms: C_5  and  C_6 
REMARK    2  A    between atoms: C_9  and  C_10 
REMARK    3  A    between atoms: C_10  and  N_11 
REMARK       I    between atoms: N_11  and  C_12 
REMARK       I    between atoms: C_12  and  N_13 
REMARK    4  A    between atoms: N_13  and  C_14 
ROOT
HETATM    1  C   UNL     1       6.594  29.244  55.484  1.00  0.00     0.213 C 
ENDROOT
BRANCH   1   2
HETATM    2  C   UNL     1       7.295  29.576  56.746  1.00  0.00     0.190 A 
HETATM    3  O   UNL     1       8.456  28.909  56.995  1.00  0.00    -0.194 OA
HETATM    4  N   UNL     1       8.888  29.319  58.254  1.00  0.00    -0.106 NA
HETATM    5  C   UNL     1       7.950  30.198  58.646  1.00  0.00     0.189 A 
HETATM    6  N   UNL     1       6.944  30.390  57.719  1.00  0.00    -0.202 NA
BRANCH   5   7
HETATM    7  C   UNL     1       7.963  30.875  59.940  1.00  0.00     0.014 A 
HETATM    8  C   UNL     1       7.016  31.863  60.248  1.00  0.00     0.016 A 
HETATM    9  C   UNL     1       7.041  32.518  61.484  1.00  0.00     0.007 A 
HETATM   10  C   UNL     1       8.017  32.200  62.434  1.00  0.00    -0.062 A 
HETATM   11  C   UNL     1       8.042  32.883  63.769  1.00  0.00     0.048 C 
HETATM   12  C   UNL     1       8.959  31.210  62.134  1.00  0.00     0.007 A 
HETATM   13  C   UNL     1       8.934  30.557  60.898  1.00  0.00     0.016 A 
ENDBRANCH   5   7
ENDBRANCH   1   2
BRANCH   1  14
HETATM   14  N   UNL     1       6.469  27.807  55.335  1.00  0.00    -0.335 N 
HETATM   15  C   UNL     1       5.341  27.155  55.718  1.00  0.00     0.321 C 
HETATM   16  N   UNL     1       5.235  25.836  55.408  1.00  0.00    -0.309 N 
HETATM   17  O   UNL     1       4.393  27.724  56.254  1.00  0.00    -0.247 OA
HETATM   18  H   UNL     1       4.278  25.517  55.509  1.00  0.00     0.170 HD
HETATM   19  H   UNL     1       7.018  27.375  54.608  1.00  0.00     0.164 HD
BRANCH  16  20
HETATM   20  C   UNL     1       6.172  24.869  55.006  1.00  0.00     0.036 A 
HETATM   21  C   UNL     1       6.977  24.142  55.888  1.00  0.00     0.029 A 
HETATM   22  C   UNL     1       7.879  23.190  55.399  1.00  0.00     0.002 A 
HETATM   23  C   UNL     1       7.973  22.949  54.030  1.00  0.00     0.000 A 
HETATM   24  C   UNL     1       7.151  23.644  53.148  1.00  0.00     0.002 A 
HETATM   25  C   UNL     1       6.247  24.590  53.635  1.00  0.00     0.029 A 
ENDBRANCH  16  20
ENDBRANCH   1  14
TORSDOF 4
ENDMDL
MODEL 3
REMARK VINA RESULT:      -8.9      2.769      3.902
REMARK  4 active torsions:
REMARK  status: ('A' for Active; 'I' for Inactive)
REMARK    1  A    between atoms: C_5  and  C_6 
REMARK    2  A    between atoms: C_9  and  C_10 
REMARK    3  A    between atoms: C_10  and  N_11 
REMARK       I    between atoms: N_11  and  C_12 
REMARK       I    between atoms: C_12  and  N_13 
REMARK    4  A    between atoms: N_13  and  C_14 
ROOT
HETATM    1  C   UNL     1       5.740  28.596  54.357  1.00  0.00     0.213 C 
ENDROOT
BRANCH   1   2
HETATM    2  C   UNL     1       5.966  27.194  53.934  1.00  0.00     0.190 A 
HETATM    3  O   UNL     1       5.255  26.757  52.858  1.00  0.00    -0.194 OA
HETATM    4  N   UNL     1       5.566  25.410  52.697  1.00  0.00    -0.106 NA
HETATM    5  C   UNL     1       6.437  25.159  53.689  1.00  0.00     0.189 A 
HETATM    6  N   UNL     1       6.718  26.259  54.475  1.00  0.00    -0.202 NA
BRANCH   5   7
HETATM    7  C   UNL     1       7.021  23.845  53.943  1.00  0.00     0.014 A 
HETATM    8  C   UNL     1       7.132  23.343  55.248  1.00  0.00     0.016 A 
HETATM    9  C   UNL     1       7.705  22.089  55.487  1.00  0.00     0.007 A 
HETATM   10  C   UNL     1       8.182  21.315  54.425  1.00  0.00    -0.062 A 
HETATM   11  C   UNL     1       8.782  19.962  54.668  1.00  0.00     0.048 C 
HETATM   12  C   UNL     1       8.067  21.807  53.120  1.00  0.00     0.007 A 
HETATM   13  C   UNL     1       7.495  23.061  52.882  1.00  0.00     0.016 A 
ENDBRANCH   5   7
ENDBRANCH   1   2
BRANCH   1  14
HETATM   14  N   UNL     1       6.632  28.949  55.444  1.00  0.00    -0.335 N 
HETATM   15  C   UNL     1       6.204  28.955  56.733  1.00  0.00     0.321 C 
HETATM   16  N   UNL     1       7.132  29.145  57.708  1.00  0.00    -0.309 N 
HETATM   17  O   UNL     1       5.041  28.716  57.048  1.00  0.00    -0.247 OA
HETATM   18  H   UNL     1       6.760  28.885  58.614  1.00  0.00     0.170 HD
HETATM   19  H   UNL     1       7.617  28.795  55.293  1.00  0.00     0.164 HD
BRANCH  16  20
HETATM   20  C   UNL     1       8.450  29.633  57.693  1.00  0.00     0.036 A 
HETATM   21  C   UNL     1       9.504  29.025  57.006  1.00  0.00     0.029 A 
HETATM   22  C   UNL     1      10.785  29.587  57.040  1.00  0.00     0.002 A 
HETATM   23  C   UNL     1      11.018  30.763  57.747  1.00  0.00     0.000 A 
HETATM   24  C   UNL     1       9.967  31.393  58.407  1.00  0.00     0.002 A 
HETATM   25  C   UNL     1       8.687  30.836  58.370  1.00  0.00     0.029 A 
ENDBRANCH  16  20
ENDBRANCH   1  14
TORSDOF 4
ENDMDL
MODEL 4
REMARK VINA RESULT:      -8.9      5.977      9.038
REMARK  4 active torsions:
REMARK  status: ('A' for Active; 'I' for Inactive)
REMARK    1  A    between atoms: C_5  and  C_6 
REMARK    2  A    between atoms: C_9  and  C_10 
REMARK    3  A    between atoms: C_10  and  N_11 
REMARK       I    between atoms: N_11  and  C_12 
REMARK       I    between atoms: C_12  and  N_13 
REMARK    4  A    between atoms: N_13  and  C_14 
ROOT
HETATM    1  C   UNL     1       4.232  27.887  53.155  1.00  0.00     0.213 C 
ENDROOT
BRANCH   1   2
HETATM    2  C   UNL     1       5.164  26.899  53.747  1.00  0.00     0.190 A 
HETATM    3  O   UNL     1       6.030  27.362  54.691  1.00  0.00    -0.194 OA
HETATM    4  N   UNL     1       6.847  26.291  55.040  1.00  0.00    -0.106 NA
HETATM    5  C   UNL     1       6.399  25.280  54.277  1.00  0.00     0.189 A 
HETATM    6  N   UNL     1       5.337  25.625  53.463  1.00  0.00    -0.202 NA
BRANCH   5   7
HETATM    7  C   UNL     1       6.985  23.942  54.274  1.00  0.00     0.014 A 
HETATM    8  C   UNL     1       7.201  23.245  55.471  1.00  0.00     0.016 A 
HETATM    9  C   UNL     1       7.775  21.969  55.463  1.00  0.00     0.007 A 
HETATM   10  C   UNL     1       8.148  21.368  54.257  1.00  0.00    -0.062 A 
HETATM   11  C   UNL     1       8.748  19.993  54.235  1.00  0.00     0.048 C 
HETATM   12  C   UNL     1       7.927  22.056  53.059  1.00  0.00     0.007 A 
HETATM   13  C   UNL     1       7.354  23.332  53.068  1.00  0.00     0.016 A 
ENDBRANCH   5   7
ENDBRANCH   1   2
BRANCH   1  14
HETATM   14  N   UNL     1       4.207  27.761  51.711  1.00  0.00    -0.335 N 
HETATM   15  C   UNL     1       5.063  28.465  50.927  1.00  0.00     0.321 C 
HETATM   16  N   UNL     1       5.086  28.182  49.598  1.00  0.00    -0.309 N 
HETATM   17  O   UNL     1       5.864  29.280  51.382  1.00  0.00    -0.247 OA
HETATM   18  H   UNL     1       5.913  28.571  49.160  1.00  0.00     0.170 HD
HETATM   19  H   UNL     1       3.859  26.892  51.335  1.00  0.00     0.164 HD
BRANCH  16  20
HETATM   20  C   UNL     1       4.201  27.492  48.751  1.00  0.00     0.036 A 
HETATM   21  C   UNL     1       4.196  26.104  48.585  1.00  0.00     0.029 A 
HETATM   22  C   UNL     1       3.271  25.501  47.726  1.00  0.00     0.002 A 
HETATM   23  C   UNL     1       2.340  26.275  47.039  1.00  0.00     0.000 A 
HETATM   24  C   UNL     1       2.317  27.655  47.224  1.00  0.00     0.002 A 
HETATM   25  C   UNL     1       3.236  28.258  48.085  1.00  0.00     0.029 A 
ENDBRANCH  16  20
ENDBRANCH   1  14
TORSDOF 4
ENDMDL
MODEL 5
REMARK VINA RESULT:      -8.8      2.119      8.634
REMARK  4 active torsions:
REMARK  status: ('A' for Active; 'I' for Inactive)
REMARK    1  A    between atoms: C_5  and  C_6 
REMARK    2  A    between atoms: C_9  and  C_10 
REMARK    3  A    between atoms: C_10  and  N_11 
REMARK       I    between atoms: N_11  and  C_12 
REMARK       I    between atoms: C_12  and  N_13 
REMARK    4  A    between atoms: N_13  and  C_14 
ROOT
HETATM    1  C   UNL     1       7.448  27.877  53.654  1.00  0.00     0.213 C 
ENDROOT
BRANCH   1   2
HETATM    2  C   UNL     1       8.206  28.658  54.659  1.00  0.00     0.190 A 
HETATM    3  O   UNL     1       9.490  28.985  54.340  1.00  0.00    -0.194 OA
HETATM    4  N   UNL     1      10.020  29.638  55.449  1.00  0.00    -0.106 NA
HETATM    5  C   UNL     1       9.009  29.648  56.333  1.00  0.00     0.189 A 
HETATM    6  N   UNL     1       7.854  29.052  55.864  1.00  0.00    -0.202 NA
BRANCH   5   7
HETATM    7  C   UNL     1       9.111  30.208  57.678  1.00  0.00     0.014 A 
HETATM    8  C   UNL     1       8.220  29.823  58.691  1.00  0.00     0.016 A 
HETATM    9  C   UNL     1       8.314  30.373  59.974  1.00  0.00     0.007 A 
HETATM   10  C   UNL     1       9.300  31.321  60.267  1.00  0.00    -0.062 A 
HETATM   11  C   UNL     1       9.422  31.903  61.644  1.00  0.00     0.048 C 
HETATM   12  C   UNL     1      10.196  31.702  59.262  1.00  0.00     0.007 A 
HETATM   13  C   UNL     1      10.100  31.153  57.980  1.00  0.00     0.016 A 
ENDBRANCH   5   7
ENDBRANCH   1   2
BRANCH   1  14
HETATM   14  N   UNL     1       7.369  26.484  54.048  1.00  0.00    -0.335 N 
HETATM   15  C   UNL     1       6.274  25.992  54.682  1.00  0.00     0.321 C 
HETATM   16  N   UNL     1       6.206  24.649  54.881  1.00  0.00    -0.309 N 
HETATM   17  O   UNL     1       5.319  26.696  55.002  1.00  0.00    -0.247 OA
HETATM   18  H   UNL     1       5.264  24.368  55.125  1.00  0.00     0.170 HD
HETATM   19  H   UNL     1       7.917  25.827  53.513  1.00  0.00     0.164 HD
BRANCH  16  20
HETATM   20  C   UNL     1       7.167  23.625  54.832  1.00  0.00     0.036 A 
HETATM   21  C   UNL     1       7.828  23.114  55.953  1.00  0.00     0.029 A 
HETATM   22  C   UNL     1       8.766  22.085  55.811  1.00  0.00     0.002 A 
HETATM   23  C   UNL     1       9.039  21.552  54.554  1.00  0.00     0.000 A 
HETATM   24  C   UNL     1       8.362  22.032  53.437  1.00  0.00     0.002 A 
HETATM   25  C   UNL     1       7.422  23.055  53.578  1.00  0.00     0.029 A 
ENDBRANCH  16  20
ENDBRANCH   1  14
TORSDOF 4
ENDMDL
MODEL 6
REMARK VINA RESULT:      -8.5      2.089      9.079
REMARK  4 active torsions:
REMARK  status: ('A' for Active; 'I' for Inactive)
REMARK    1  A    between atoms: C_5  and  C_6 
REMARK    2  A    between atoms: C_9  and  C_10 
REMARK    3  A    between atoms: C_10  and  N_11 
REMARK       I    between atoms: N_11  and  C_12 
REMARK       I    between atoms: C_12  and  N_13 
REMARK    4  A    between atoms: N_13  and  C_14 
ROOT
HETATM    1  C   UNL     1       9.034  28.576  57.032  1.00  0.00     0.213 C 
ENDROOT
BRANCH   1   2
HETATM    2  C   UNL     1       8.358  29.540  57.931  1.00  0.00     0.190 A 
HETATM    3  O   UNL     1       7.371  30.302  57.381  1.00  0.00    -0.194 OA
HETATM    4  N   UNL     1       6.943  31.176  58.376  1.00  0.00    -0.106 NA
HETATM    5  C   UNL     1       7.707  30.860  59.435  1.00  0.00     0.189 A 
HETATM    6  N   UNL     1       8.596  29.831  59.192  1.00  0.00    -0.202 NA
BRANCH   5   7
HETATM    7  C   UNL     1       7.637  31.548  60.721  1.00  0.00     0.014 A 
HETATM    8  C   UNL     1       8.548  31.257  61.747  1.00  0.00     0.016 A 
HETATM    9  C   UNL     1       8.467  31.909  62.982  1.00  0.00     0.007 A 
HETATM   10  C   UNL     1       7.472  32.863  63.215  1.00  0.00    -0.062 A 
HETATM   11  C   UNL     1       7.388  33.582  64.529  1.00  0.00     0.048 C 
HETATM   12  C   UNL     1       6.566  33.164  62.192  1.00  0.00     0.007 A 
HETATM   13  C   UNL     1       6.647  32.510  60.958  1.00  0.00     0.016 A 
ENDBRANCH   5   7
ENDBRANCH   1   2
BRANCH   1  14
HETATM   14  N   UNL     1       8.071  27.661  56.451  1.00  0.00    -0.335 N 
HETATM   15  C   UNL     1       7.574  26.616  57.161  1.00  0.00     0.321 C 
HETATM   16  N   UNL     1       6.564  25.895  56.606  1.00  0.00    -0.309 N 
HETATM   17  O   UNL     1       7.942  26.354  58.304  1.00  0.00    -0.247 OA
HETATM   18  H   UNL     1       6.108  25.317  57.303  1.00  0.00     0.170 HD
HETATM   19  H   UNL     1       7.492  28.021  55.708  1.00  0.00     0.164 HD
BRANCH  16  20
HETATM   20  C   UNL     1       6.068  25.795  55.295  1.00  0.00     0.036 A 
HETATM   21  C   UNL     1       5.288  26.774  54.674  1.00  0.00     0.029 A 
HETATM   22  C   UNL     1       4.844  26.593  53.359  1.00  0.00     0.002 A 
HETATM   23  C   UNL     1       5.187  25.443  52.653  1.00  0.00     0.000 A 
HETATM   24  C   UNL     1       5.991  24.478  53.253  1.00  0.00     0.002 A 
HETATM   25  C   UNL     1       6.439  24.659  54.563  1.00  0.00     0.029 A 
ENDBRANCH  16  20
ENDBRANCH   1  14
TORSDOF 4
ENDMDL
MODEL 7
REMARK VINA RESULT:      -8.5      2.347      8.621
REMARK  4 active torsions:
REMARK  status: ('A' for Active; 'I' for Inactive)
REMARK    1  A    between atoms: C_5  and  C_6 
REMARK    2  A    between atoms: C_9  and  C_10 
REMARK    3  A    between atoms: C_10  and  N_11 
REMARK       I    between atoms: N_11  and  C_12 
REMARK       I    between atoms: C_12  and  N_13 
REMARK    4  A    between atoms: N_13  and  C_14 
ROOT
HETATM    1  C   UNL     1      10.221  29.663  57.733  1.00  0.00     0.213 C 
ENDROOT
BRANCH   1   2
HETATM    2  C   UNL     1       9.644  30.694  58.627  1.00  0.00     0.190 A 
HETATM    3  O   UNL     1      10.055  31.977  58.428  1.00  0.00    -0.194 OA
HETATM    4  N   UNL     1       9.452  32.746  59.420  1.00  0.00    -0.106 NA
HETATM    5  C   UNL     1       8.730  31.858  60.123  1.00  0.00     0.189 A 
HETATM    6  N   UNL     1       8.819  30.565  59.645  1.00  0.00    -0.202 NA
BRANCH   5   7
HETATM    7  C   UNL     1       7.940  32.204  61.302  1.00  0.00     0.014 A 
HETATM    8  C   UNL     1       6.570  32.483  61.198  1.00  0.00     0.016 A 
HETATM    9  C   UNL     1       5.822  32.828  62.329  1.00  0.00     0.007 A 
HETATM   10  C   UNL     1       6.432  32.904  63.585  1.00  0.00    -0.062 A 
HETATM   11  C   UNL     1       5.635  33.254  64.807  1.00  0.00     0.048 C 
HETATM   12  C   UNL     1       7.797  32.618  63.695  1.00  0.00     0.007 A 
HETATM   13  C   UNL     1       8.544  32.275  62.564  1.00  0.00     0.016 A 
ENDBRANCH   5   7
ENDBRANCH   1   2
BRANCH   1  14
HETATM   14  N   UNL     1       9.171  28.855  57.145  1.00  0.00    -0.335 N 
HETATM   15  C   UNL     1       8.920  28.889  55.811  1.00  0.00     0.321 C 
HETATM   16  N   UNL     1       8.028  27.993  55.310  1.00  0.00    -0.309 N 
HETATM   17  O   UNL     1       9.522  29.632  55.040  1.00  0.00    -0.247 OA
HETATM   18  H   UNL     1       8.103  27.936  54.301  1.00  0.00     0.170 HD
HETATM   19  H   UNL     1       8.920  28.009  57.633  1.00  0.00     0.164 HD
BRANCH  16  20
HETATM   20  C   UNL     1       7.050  27.181  55.909  1.00  0.00     0.036 A 
HETATM   21  C   UNL     1       5.759  27.612  56.226  1.00  0.00     0.029 A 
HETATM   22  C   UNL     1       4.845  26.729  56.813  1.00  0.00     0.002 A 
HETATM   23  C   UNL     1       5.209  25.411  57.075  1.00  0.00     0.000 A 
HETATM   24  C   UNL     1       6.483  24.965  56.732  1.00  0.00     0.002 A 
HETATM   25  C   UNL     1       7.393  25.843  56.141  1.00  0.00     0.029 A 
ENDBRANCH  16  20
ENDBRANCH   1  14
TORSDOF 4
ENDMDL
MODEL 8
REMARK VINA RESULT:      -8.4      2.829      8.808
REMARK  4 active torsions:
REMARK  status: ('A' for Active; 'I' for Inactive)
REMARK    1  A    between atoms: C_5  and  C_6 
REMARK    2  A    between atoms: C_9  and  C_10 
REMARK    3  A    between atoms: C_10  and  N_11 
REMARK       I    between atoms: N_11  and  C_12 
REMARK       I    between atoms: C_12  and  N_13 
REMARK    4  A    between atoms: N_13  and  C_14 
ROOT
HETATM    1  C   UNL     1       9.375  28.953  57.197  1.00  0.00     0.213 C 
ENDROOT
BRANCH   1   2
HETATM    2  C   UNL     1       9.196  30.101  58.116  1.00  0.00     0.190 A 
HETATM    3  O   UNL     1       9.992  31.186  57.904  1.00  0.00    -0.194 OA
HETATM    4  N   UNL     1       9.706  32.092  58.921  1.00  0.00    -0.106 NA
HETATM    5  C   UNL     1       8.763  31.473  59.651  1.00  0.00     0.189 A 
HETATM    6  N   UNL     1       8.412  30.228  59.166  1.00  0.00    -0.202 NA
BRANCH   5   7
HETATM    7  C   UNL     1       8.173  32.037  60.862  1.00  0.00     0.014 A 
HETATM    8  C   UNL     1       6.977  32.767  60.811  1.00  0.00     0.016 A 
HETATM    9  C   UNL     1       6.424  33.317  61.973  1.00  0.00     0.007 A 
HETATM   10  C   UNL     1       7.059  33.149  63.207  1.00  0.00    -0.062 A 
HETATM   11  C   UNL     1       6.465  33.718  64.462  1.00  0.00     0.048 C 
HETATM   12  C   UNL     1       8.248  32.414  63.265  1.00  0.00     0.007 A 
HETATM   13  C   UNL     1       8.801  31.867  62.103  1.00  0.00     0.016 A 
ENDBRANCH   5   7
ENDBRANCH   1   2
BRANCH   1  14
HETATM   14  N   UNL     1       8.091  28.476  56.723  1.00  0.00    -0.335 N 
HETATM   15  C   UNL     1       7.472  27.420  57.311  1.00  0.00     0.321 C 
HETATM   16  N   UNL     1       6.205  27.126  56.915  1.00  0.00    -0.309 N 
HETATM   17  O   UNL     1       7.977  26.781  58.231  1.00  0.00    -0.247 OA
HETATM   18  H   UNL     1       5.757  26.501  57.575  1.00  0.00     0.170 HD
HETATM   19  H   UNL     1       7.499  29.146  56.256  1.00  0.00     0.164 HD
BRANCH  16  20
HETATM   20  C   UNL     1       5.441  27.500  55.796  1.00  0.00     0.036 A 
HETATM   21  C   UNL     1       4.641  28.644  55.739  1.00  0.00     0.029 A 
HETATM   22  C   UNL     1       3.920  28.944  54.578  1.00  0.00     0.002 A 
HETATM   23  C   UNL     1       4.003  28.113  53.464  1.00  0.00     0.000 A 
HETATM   24  C   UNL     1       4.824  26.989  53.501  1.00  0.00     0.002 A 
HETATM   25  C   UNL     1       5.548  26.692  54.657  1.00  0.00     0.029 A 
ENDBRANCH  16  20
ENDBRANCH   1  14
TORSDOF 4
ENDMDL
MODEL 9
REMARK VINA RESULT:      -8.2      1.844      2.272
REMARK  4 active torsions:
REMARK  status: ('A' for Active; 'I' for Inactive)
REMARK    1  A    between atoms: C_5  and  C_6 
REMARK    2  A    between atoms: C_9  and  C_10 
REMARK    3  A    between atoms: C_10  and  N_11 
REMARK       I    between atoms: N_11  and  C_12 
REMARK       I    between atoms: C_12  and  N_13 
REMARK    4  A    between atoms: N_13  and  C_14 
ROOT
HETATM    1  C   UNL     1       9.128  30.180  58.124  1.00  0.00     0.213 C 
ENDROOT
BRANCH   1   2
HETATM    2  C   UNL     1       8.398  28.960  57.706  1.00  0.00     0.190 A 
HETATM    3  O   UNL     1       7.045  28.974  57.857  1.00  0.00    -0.194 OA
HETATM    4  N   UNL     1       6.590  27.713  57.480  1.00  0.00    -0.106 NA
HETATM    5  C   UNL     1       7.710  27.057  57.132  1.00  0.00     0.189 A 
HETATM    6  N   UNL     1       8.859  27.814  57.251  1.00  0.00    -0.202 NA
BRANCH   5   7
HETATM    7  C   UNL     1       7.732  25.664  56.694  1.00  0.00     0.014 A 
HETATM    8  C   UNL     1       6.989  25.244  55.581  1.00  0.00     0.016 A 
HETATM    9  C   UNL     1       7.003  23.906  55.174  1.00  0.00     0.007 A 
HETATM   10  C   UNL     1       7.758  22.961  55.876  1.00  0.00    -0.062 A 
HETATM   11  C   UNL     1       7.795  21.527  55.437  1.00  0.00     0.048 C 
HETATM   12  C   UNL     1       8.507  23.376  56.982  1.00  0.00     0.007 A 
HETATM   13  C   UNL     1       8.491  24.713  57.389  1.00  0.00     0.016 A 
ENDBRANCH   5   7
ENDBRANCH   1   2
BRANCH   1  14
HETATM   14  N   UNL     1       8.370  30.909  59.122  1.00  0.00    -0.335 N 
HETATM   15  C   UNL     1       8.912  31.958  59.791  1.00  0.00     0.321 C 
HETATM   16  N   UNL     1       8.096  32.687  60.597  1.00  0.00    -0.309 N 
HETATM   17  O   UNL     1      10.077  32.317  59.633  1.00  0.00    -0.247 OA
HETATM   18  H   UNL     1       8.526  33.571  60.842  1.00  0.00     0.170 HD
HETATM   19  H   UNL     1       7.366  30.901  59.027  1.00  0.00     0.164 HD
BRANCH  16  20
HETATM   20  C   UNL     1       6.825  32.442  61.146  1.00  0.00     0.036 A 
HETATM   21  C   UNL     1       6.610  31.901  62.416  1.00  0.00     0.029 A 
HETATM   22  C   UNL     1       5.307  31.699  62.886  1.00  0.00     0.002 A 
HETATM   23  C   UNL     1       4.214  32.046  62.096  1.00  0.00     0.000 A 
HETATM   24  C   UNL     1       4.419  32.616  60.843  1.00  0.00     0.002 A 
HETATM   25  C   UNL     1       5.719  32.823  60.376  1.00  0.00     0.029 A 
ENDBRANCH  16  20
ENDBRANCH   1  14
TORSDOF 4
ENDMDL
MODEL 10
REMARK VINA RESULT:      -8.1      2.488      3.219
REMARK  4 active torsions:
REMARK  status: ('A' for Active; 'I' for Inactive)
REMARK    1  A    between atoms: C_5  and  C_6 
REMARK    2  A    between atoms: C_9  and  C_10 
REMARK    3  A    between atoms: C_10  and  N_11 
REMARK       I    between atoms: N_11  and  C_12 
REMARK       I    between atoms: C_12  and  N_13 
REMARK    4  A    between atoms: N_13  and  C_14 
ROOT
HETATM    1  C   UNL     1       5.928  31.108  57.864  1.00  0.00     0.213 C 
ENDROOT
BRANCH   1   2
HETATM    2  C   UNL     1       6.619  29.803  57.741  1.00  0.00     0.190 A 
HETATM    3  O   UNL     1       7.687  29.596  58.561  1.00  0.00    -0.194 OA
HETATM    4  N   UNL     1       8.218  28.356  58.217  1.00  0.00    -0.106 NA
HETATM    5  C   UNL     1       7.419  27.927  57.225  1.00  0.00     0.189 A 
HETATM    6  N   UNL     1       6.401  28.806  56.910  1.00  0.00    -0.202 NA
BRANCH   5   7
HETATM    7  C   UNL     1       7.612  26.665  56.515  1.00  0.00     0.014 A 
HETATM    8  C   UNL     1       7.302  26.547  55.152  1.00  0.00     0.016 A 
HETATM    9  C   UNL     1       7.475  25.332  54.481  1.00  0.00     0.007 A 
HETATM   10  C   UNL     1       7.960  24.211  55.161  1.00  0.00    -0.062 A 
HETATM   11  C   UNL     1       8.168  22.908  54.446  1.00  0.00     0.048 C 
HETATM   12  C   UNL     1       8.280  24.325  56.518  1.00  0.00     0.007 A 
HETATM   13  C   UNL     1       8.104  25.540  57.189  1.00  0.00     0.016 A 
ENDBRANCH   5   7
ENDBRANCH   1   2
BRANCH   1  14
HETATM   14  N   UNL     1       5.917  31.549  59.244  1.00  0.00    -0.335 N 
HETATM   15  C   UNL     1       4.769  31.957  59.845  1.00  0.00     0.321 C 
HETATM   16  N   UNL     1       4.806  32.209  61.180  1.00  0.00    -0.309 N 
HETATM   17  O   UNL     1       3.696  32.026  59.250  1.00  0.00    -0.247 OA
HETATM   18  H   UNL     1       3.870  32.259  61.564  1.00  0.00     0.170 HD
HETATM   19  H   UNL     1       6.638  31.181  59.847  1.00  0.00     0.164 HD
BRANCH  16  20
HETATM   20  C   UNL     1       5.861  32.423  62.084  1.00  0.00     0.036 A 
HETATM   21  C   UNL     1       7.026  31.653  62.128  1.00  0.00     0.029 A 
HETATM   22  C   UNL     1       8.030  31.944  63.059  1.00  0.00     0.002 A 
HETATM   23  C   UNL     1       7.883  33.012  63.940  1.00  0.00     0.000 A 
HETATM   24  C   UNL     1       6.740  33.805  63.881  1.00  0.00     0.002 A 
HETATM   25  C   UNL     1       5.740  33.519  62.949  1.00  0.00     0.029 A 
ENDBRANCH  16  20
ENDBRANCH   1  14
TORSDOF 4
ENDMDL
