MODEL 1
REMARK VINA RESULT:      -9.8      0.000      0.000
REMARK  9 active torsions:
REMARK  status: ('A' for Active; 'I' for Inactive)
REMARK    1  A    between atoms: O_2  and  C_3 
REMARK    2  A    between atoms: C_6  and  N_7 
REMARK    3  A    between atoms: N_10  and  C_11 
REMARK    4  A    between atoms: C_11  and  C_12 
REMARK    5  A    between atoms: C_14  and  O_15 
REMARK    6  A    between atoms: C_17  and  O_18 
REMARK    7  A    between atoms: C_22  and  C_23 
REMARK    8  A    between atoms: C_23  and  C_24 
REMARK       I    between atoms: C_24  and  N_25 
REMARK    9  A    between atoms: N_25  and  C_26 
ROOT
HETATM    1  N   UNL     1       6.635  25.368  54.752  1.00  0.00    -0.232 N 
HETATM    2  C   UNL     1       7.069  26.168  55.787  1.00  0.00     0.333 C 
HETATM    3  O   UNL     1       7.853  25.898  56.686  1.00  0.00    -0.246 OA
HETATM    4  N   UNL     1       6.363  27.379  55.767  1.00  0.00    -0.315 N 
HETATM    5  C   UNL     1       5.403  27.405  54.680  1.00  0.00     0.191 C 
HETATM    6  C   UNL     1       5.575  25.989  54.136  1.00  0.00     0.256 C 
HETATM    7  O   UNL     1       4.832  25.570  53.251  1.00  0.00    -0.270 OA
ENDROOT
BRANCH   4   8
HETATM    8  C   UNL     1       6.067  27.951  57.071  1.00  0.00     0.167 C 
BRANCH   8   9
HETATM    9  C   UNL     1       6.842  29.174  57.472  1.00  0.00    -0.037 A 
HETATM   10  C   UNL     1       8.246  29.151  57.484  1.00  0.00     0.048 A 
HETATM   11  C   UNL     1       8.974  30.213  58.035  1.00  0.00     0.102 A 
HETATM   12  C   UNL     1       8.286  31.319  58.562  1.00  0.00     0.101 A 
HETATM   13  C   UNL     1       6.891  31.375  58.491  1.00  0.00     0.040 A 
HETATM   14  C   UNL     1       6.174  30.304  57.958  1.00  0.00     0.012 A 
BRANCH  11  15
HETATM   15  O   UNL     1      10.342  30.250  58.133  1.00  0.00    -0.353 OA
HETATM   16  C   UNL     1      11.087  29.724  57.044  1.00  0.00     0.210 C 
ENDBRANCH  11  15
BRANCH  12  17
HETATM   17  O   UNL     1       9.035  32.330  59.115  1.00  0.00    -0.353 OA
HETATM   18  C   UNL     1       8.969  32.398  60.537  1.00  0.00     0.210 C 
ENDBRANCH  12  17
ENDBRANCH   8   9
ENDBRANCH   4   8
BRANCH   5  19
HETATM   19  C   UNL     1       5.779  28.381  53.567  1.00  0.00     0.138 C 
BRANCH  19  20
HETATM   20  C   UNL     1       4.884  28.286  52.338  1.00  0.00     0.224 C 
HETATM   21  N   UNL     1       5.505  27.818  51.196  1.00  0.00    -0.327 N 
HETATM   22  H   UNL     1       6.475  27.514  51.260  1.00  0.00     0.169 HD
HETATM   23  O   UNL     1       3.715  28.657  52.416  1.00  0.00    -0.273 OA
BRANCH  21  24
HETATM   24  C   UNL     1       4.938  27.674  49.910  1.00  0.00     0.034 A 
HETATM   25  C   UNL     1       4.822  28.712  48.984  1.00  0.00     0.029 A 
HETATM   26  C   UNL     1       4.259  28.478  47.725  1.00  0.00     0.002 A 
HETATM   27  C   UNL     1       3.794  27.209  47.387  1.00  0.00     0.000 A 
HETATM   28  C   UNL     1       3.904  26.167  48.302  1.00  0.00     0.002 A 
HETATM   29  C   UNL     1       4.486  26.396  49.553  1.00  0.00     0.029 A 
ENDBRANCH  21  24
ENDBRANCH  19  20
ENDBRANCH   5  19
BRANCH   1  30
HETATM   30  C   UNL     1       7.088  24.032  54.494  1.00  0.00     0.047 A 
HETATM   31  C   UNL     1       7.433  23.606  53.200  1.00  0.00     0.033 A 
HETATM   32  C   UNL     1       7.940  22.320  52.945  1.00  0.00     0.039 A 
HETATM   33  C   UNL     1       8.106  21.414  53.983  1.00  0.00     0.068 A 
HETATM   34  C   UNL     1       7.720  21.793  55.265  1.00  0.00     0.039 A 
HETATM   35  C   UNL     1       7.220  23.081  55.516  1.00  0.00     0.033 A 
BRANCH  33  36
HETATM   36  O   UNL     1       8.610  20.150  53.871  1.00  0.00    -0.356 OA
HETATM   37  C   UNL     1       9.069  19.545  55.075  1.00  0.00     0.210 C 
ENDBRANCH  33  36
ENDBRANCH   1  30
TORSDOF 9
ENDMDL
MODEL 2
REMARK VINA RESULT:      -9.7      1.814      8.379
REMARK  9 active torsions:
REMARK  status: ('A' for Active; 'I' for Inactive)
REMARK    1  A    between atoms: O_2  and  C_3 
REMARK    2  A    between atoms: C_6  and  N_7 
REMARK    3  A    between atoms: N_10  and  C_11 
REMARK    4  A    between atoms: C_11  and  C_12 
REMARK    5  A    between atoms: C_14  and  O_15 
REMARK    6  A    between atoms: C_17  and  O_18 
REMARK    7  A    between atoms: C_22  and  C_23 
REMARK    8  A    between atoms: C_23  and  C_24 
REMARK       I    between atoms: C_24  and  N_25 
REMARK    9  A    between atoms: N_25  and  C_26 
ROOT
HETATM    1  N   UNL     1       7.191  28.858  56.558  1.00  0.00    -0.232 N 
HETATM    2  C   UNL     1       6.250  29.285  55.647  1.00  0.00     0.333 C 
HETATM    3  O   UNL     1       5.796  30.409  55.485  1.00  0.00    -0.246 OA
HETATM    4  N   UNL     1       5.740  28.179  54.952  1.00  0.00    -0.315 N 
HETATM    5  C   UNL     1       6.350  26.947  55.414  1.00  0.00     0.191 C 
HETATM    6  C   UNL     1       7.211  27.484  56.554  1.00  0.00     0.256 C 
HETATM    7  O   UNL     1       7.818  26.710  57.291  1.00  0.00    -0.270 OA
ENDROOT
BRANCH   4   8
HETATM    8  C   UNL     1       4.330  28.258  54.603  1.00  0.00     0.167 C 
BRANCH   8   9
HETATM    9  C   UNL     1       3.998  28.536  53.164  1.00  0.00    -0.037 A 
HETATM   10  C   UNL     1       4.559  27.753  52.143  1.00  0.00     0.048 A 
HETATM   11  C   UNL     1       4.413  28.118  50.798  1.00  0.00     0.102 A 
HETATM   12  C   UNL     1       3.677  29.271  50.475  1.00  0.00     0.101 A 
HETATM   13  C   UNL     1       3.061  30.015  51.485  1.00  0.00     0.040 A 
HETATM   14  C   UNL     1       3.229  29.655  52.822  1.00  0.00     0.012 A 
BRANCH  11  15
HETATM   15  O   UNL     1       4.968  27.440  49.744  1.00  0.00    -0.353 OA
HETATM   16  C   UNL     1       4.312  26.256  49.312  1.00  0.00     0.210 C 
ENDBRANCH  11  15
BRANCH  12  17
HETATM   17  O   UNL     1       3.575  29.609  49.147  1.00  0.00    -0.353 OA
HETATM   18  C   UNL     1       2.254  29.526  48.620  1.00  0.00     0.210 C 
ENDBRANCH  12  17
ENDBRANCH   8   9
ENDBRANCH   4   8
BRANCH   5  19
HETATM   19  C   UNL     1       7.283  26.314  54.382  1.00  0.00     0.138 C 
BRANCH  19  20
HETATM   20  C   UNL     1       7.112  24.807  54.242  1.00  0.00     0.224 C 
HETATM   21  N   UNL     1       8.255  24.064  54.465  1.00  0.00    -0.327 N 
HETATM   22  H   UNL     1       9.099  24.550  54.764  1.00  0.00     0.169 HD
HETATM   23  O   UNL     1       6.018  24.355  53.908  1.00  0.00    -0.273 OA
BRANCH  21  24
HETATM   24  C   UNL     1       8.401  22.663  54.357  1.00  0.00     0.034 A 
HETATM   25  C   UNL     1       8.295  21.955  53.159  1.00  0.00     0.029 A 
HETATM   26  C   UNL     1       8.469  20.567  53.140  1.00  0.00     0.002 A 
HETATM   27  C   UNL     1       8.735  19.874  54.320  1.00  0.00     0.000 A 
HETATM   28  C   UNL     1       8.842  20.570  55.520  1.00  0.00     0.002 A 
HETATM   29  C   UNL     1       8.689  21.960  55.535  1.00  0.00     0.029 A 
ENDBRANCH  21  24
ENDBRANCH  19  20
ENDBRANCH   5  19
BRANCH   1  30
HETATM   30  C   UNL     1       7.884  29.702  57.488  1.00  0.00     0.047 A 
HETATM   31  C   UNL     1       9.274  29.896  57.417  1.00  0.00     0.033 A 
HETATM   32  C   UNL     1       9.954  30.771  58.281  1.00  0.00     0.039 A 
HETATM   33  C   UNL     1       9.259  31.474  59.255  1.00  0.00     0.068 A 
HETATM   34  C   UNL     1       7.890  31.257  59.382  1.00  0.00     0.039 A 
HETATM   35  C   UNL     1       7.214  30.387  58.513  1.00  0.00     0.033 A 
BRANCH  33  36
HETATM   36  O   UNL     1       9.796  32.369  60.135  1.00  0.00    -0.356 OA
HETATM   37  C   UNL     1       9.743  32.010  61.512  1.00  0.00     0.210 C 
ENDBRANCH  33  36
ENDBRANCH   1  30
TORSDOF 9
ENDMDL
MODEL 3
REMARK VINA RESULT:      -9.6      3.250      7.856
REMARK  9 active torsions:
REMARK  status: ('A' for Active; 'I' for Inactive)
REMARK    1  A    between atoms: O_2  and  C_3 
REMARK    2  A    between atoms: C_6  and  N_7 
REMARK    3  A    between atoms: N_10  and  C_11 
REMARK    4  A    between atoms: C_11  and  C_12 
REMARK    5  A    between atoms: C_14  and  O_15 
REMARK    6  A    between atoms: C_17  and  O_18 
REMARK    7  A    between atoms: C_22  and  C_23 
REMARK    8  A    between atoms: C_23  and  C_24 
REMARK       I    between atoms: C_24  and  N_25 
REMARK    9  A    between atoms: N_25  and  C_26 
ROOT
HETATM    1  N   UNL     1       6.998  27.663  56.117  1.00  0.00    -0.232 N 
HETATM    2  C   UNL     1       5.794  27.884  56.750  1.00  0.00     0.333 C 
HETATM    3  O   UNL     1       4.759  27.237  56.673  1.00  0.00    -0.246 OA
HETATM    4  N   UNL     1       5.852  29.098  57.450  1.00  0.00    -0.315 N 
HETATM    5  C   UNL     1       7.144  29.736  57.281  1.00  0.00     0.191 C 
HETATM    6  C   UNL     1       7.793  28.770  56.292  1.00  0.00     0.256 C 
HETATM    7  O   UNL     1       8.889  29.031  55.801  1.00  0.00    -0.270 OA
ENDROOT
BRANCH   4   8
HETATM    8  C   UNL     1       4.614  29.860  57.481  1.00  0.00     0.167 C 
BRANCH   8   9
HETATM    9  C   UNL     1       4.733  31.357  57.420  1.00  0.00    -0.037 A 
HETATM   10  C   UNL     1       4.456  32.136  58.555  1.00  0.00     0.048 A 
HETATM   11  C   UNL     1       4.375  33.532  58.461  1.00  0.00     0.102 A 
HETATM   12  C   UNL     1       4.595  34.153  57.220  1.00  0.00     0.101 A 
HETATM   13  C   UNL     1       4.938  33.384  56.104  1.00  0.00     0.040 A 
HETATM   14  C   UNL     1       4.996  31.994  56.201  1.00  0.00     0.012 A 
BRANCH  11  15
HETATM   15  O   UNL     1       4.062  34.364  59.506  1.00  0.00    -0.353 OA
HETATM   16  C   UNL     1       2.969  33.988  60.333  1.00  0.00     0.210 C 
ENDBRANCH  11  15
BRANCH  12  17
HETATM   17  O   UNL     1       4.485  35.521  57.164  1.00  0.00    -0.353 OA
HETATM   18  C   UNL     1       5.157  36.120  56.060  1.00  0.00     0.210 C 
ENDBRANCH  12  17
ENDBRANCH   8   9
ENDBRANCH   4   8
BRANCH   5  19
HETATM   19  C   UNL     1       7.987  29.734  58.556  1.00  0.00     0.138 C 
BRANCH  19  20
HETATM   20  C   UNL     1       7.851  31.007  59.383  1.00  0.00     0.224 C 
HETATM   21  N   UNL     1       7.532  30.809  60.713  1.00  0.00    -0.327 N 
HETATM   22  H   UNL     1       7.474  29.854  61.062  1.00  0.00     0.169 HD
HETATM   23  O   UNL     1       7.984  32.098  58.833  1.00  0.00    -0.273 OA
BRANCH  21  24
HETATM   24  C   UNL     1       7.297  31.799  61.693  1.00  0.00     0.034 A 
HETATM   25  C   UNL     1       6.256  32.727  61.636  1.00  0.00     0.029 A 
HETATM   26  C   UNL     1       6.087  33.665  62.660  1.00  0.00     0.002 A 
HETATM   27  C   UNL     1       6.967  33.694  63.741  1.00  0.00     0.000 A 
HETATM   28  C   UNL     1       8.008  32.774  63.807  1.00  0.00     0.002 A 
HETATM   29  C   UNL     1       8.164  31.823  62.794  1.00  0.00     0.029 A 
ENDBRANCH  21  24
ENDBRANCH  19  20
ENDBRANCH   5  19
BRANCH   1  30
HETATM   30  C   UNL     1       7.289  26.551  55.259  1.00  0.00     0.047 A 
HETATM   31  C   UNL     1       7.290  26.678  53.860  1.00  0.00     0.033 A 
HETATM   32  C   UNL     1       7.637  25.613  53.011  1.00  0.00     0.039 A 
HETATM   33  C   UNL     1       7.984  24.379  53.542  1.00  0.00     0.068 A 
HETATM   34  C   UNL     1       7.937  24.212  54.923  1.00  0.00     0.039 A 
HETATM   35  C   UNL     1       7.595  25.280  55.767  1.00  0.00     0.033 A 
BRANCH  33  36
HETATM   36  O   UNL     1       8.363  23.277  52.831  1.00  0.00    -0.356 OA
HETATM   37  C   UNL     1       8.466  22.059  53.560  1.00  0.00     0.210 C 
ENDBRANCH  33  36
ENDBRANCH   1  30
TORSDOF 9
ENDMDL
MODEL 4
REMARK VINA RESULT:      -9.5      3.475      8.248
REMARK  9 active torsions:
REMARK  status: ('A' for Active; 'I' for Inactive)
REMARK    1  A    between atoms: O_2  and  C_3 
REMARK    2  A    between atoms: C_6  and  N_7 
REMARK    3  A    between atoms: N_10  and  C_11 
REMARK    4  A    between atoms: C_11  and  C_12 
REMARK    5  A    between atoms: C_14  and  O_15 
REMARK    6  A    between atoms: C_17  and  O_18 
REMARK    7  A    between atoms: C_22  and  C_23 
REMARK    8  A    between atoms: C_23  and  C_24 
REMARK       I    between atoms: C_24  and  N_25 
REMARK    9  A    between atoms: N_25  and  C_26 
ROOT
HETATM    1  N   UNL     1       7.068  28.086  56.637  1.00  0.00    -0.232 N 
HETATM    2  C   UNL     1       6.000  28.949  56.743  1.00  0.00     0.333 C 
HETATM    3  O   UNL     1       4.871  28.828  56.288  1.00  0.00    -0.246 OA
HETATM    4  N   UNL     1       6.415  30.130  57.373  1.00  0.00    -0.315 N 
HETATM    5  C   UNL     1       7.827  30.076  57.703  1.00  0.00     0.191 C 
HETATM    6  C   UNL     1       8.198  28.734  57.075  1.00  0.00     0.256 C 
HETATM    7  O   UNL     1       9.371  28.369  57.043  1.00  0.00    -0.270 OA
ENDROOT
BRANCH   4   8
HETATM    8  C   UNL     1       5.782  31.349  56.895  1.00  0.00     0.167 C 
BRANCH   8   9
HETATM    9  C   UNL     1       4.865  32.061  57.849  1.00  0.00    -0.037 A 
HETATM   10  C   UNL     1       4.793  33.464  57.847  1.00  0.00     0.048 A 
HETATM   11  C   UNL     1       4.094  34.145  58.853  1.00  0.00     0.102 A 
HETATM   12  C   UNL     1       3.445  33.409  59.859  1.00  0.00     0.101 A 
HETATM   13  C   UNL     1       3.459  32.012  59.825  1.00  0.00     0.040 A 
HETATM   14  C   UNL     1       4.174  31.343  58.832  1.00  0.00     0.012 A 
BRANCH  11  15
HETATM   15  O   UNL     1       4.014  35.510  58.955  1.00  0.00    -0.353 OA
HETATM   16  C   UNL     1       4.245  36.267  57.775  1.00  0.00     0.210 C 
ENDBRANCH  11  15
BRANCH  12  17
HETATM   17  O   UNL     1       2.790  34.114  60.840  1.00  0.00    -0.353 OA
HETATM   18  C   UNL     1       2.730  33.450  62.099  1.00  0.00     0.210 C 
ENDBRANCH  12  17
ENDBRANCH   8   9
ENDBRANCH   4   8
BRANCH   5  19
HETATM   19  C   UNL     1       8.091  29.978  59.204  1.00  0.00     0.138 C 
BRANCH  19  20
HETATM   20  C   UNL     1       7.965  31.307  59.938  1.00  0.00     0.224 C 
HETATM   21  N   UNL     1       7.505  31.217  61.237  1.00  0.00    -0.327 N 
HETATM   22  H   UNL     1       7.345  30.292  61.634  1.00  0.00     0.169 HD
HETATM   23  O   UNL     1       8.228  32.349  59.342  1.00  0.00    -0.273 OA
BRANCH  21  24
HETATM   24  C   UNL     1       7.245  32.281  62.130  1.00  0.00     0.034 A 
HETATM   25  C   UNL     1       6.401  33.355  61.845  1.00  0.00     0.029 A 
HETATM   26  C   UNL     1       6.189  34.360  62.794  1.00  0.00     0.002 A 
HETATM   27  C   UNL     1       6.831  34.308  64.030  1.00  0.00     0.000 A 
HETATM   28  C   UNL     1       7.676  33.243  64.324  1.00  0.00     0.002 A 
HETATM   29  C   UNL     1       7.871  32.227  63.383  1.00  0.00     0.029 A 
ENDBRANCH  21  24
ENDBRANCH  19  20
ENDBRANCH   5  19
BRANCH   1  30
HETATM   30  C   UNL     1       7.035  26.804  55.995  1.00  0.00     0.047 A 
HETATM   31  C   UNL     1       7.261  26.662  54.615  1.00  0.00     0.033 A 
HETATM   32  C   UNL     1       7.296  25.405  53.987  1.00  0.00     0.039 A 
HETATM   33  C   UNL     1       7.093  24.247  54.725  1.00  0.00     0.068 A 
HETATM   34  C   UNL     1       6.813  24.365  56.082  1.00  0.00     0.039 A 
HETATM   35  C   UNL     1       6.785  25.621  56.707  1.00  0.00     0.033 A 
BRANCH  33  36
HETATM   36  O   UNL     1       7.127  22.972  54.240  1.00  0.00    -0.356 OA
HETATM   37  C   UNL     1       8.125  22.693  53.264  1.00  0.00     0.210 C 
ENDBRANCH  33  36
ENDBRANCH   1  30
TORSDOF 9
ENDMDL
MODEL 5
REMARK VINA RESULT:      -9.4      2.061      8.613
REMARK  9 active torsions:
REMARK  status: ('A' for Active; 'I' for Inactive)
REMARK    1  A    between atoms: O_2  and  C_3 
REMARK    2  A    between atoms: C_6  and  N_7 
REMARK    3  A    between atoms: N_10  and  C_11 
REMARK    4  A    between atoms: C_11  and  C_12 
REMARK    5  A    between atoms: C_14  and  O_15 
REMARK    6  A    between atoms: C_17  and  O_18 
REMARK    7  A    between atoms: C_22  and  C_23 
REMARK    8  A    between atoms: C_23  and  C_24 
REMARK       I    between atoms: C_24  and  N_25 
REMARK    9  A    between atoms: N_25  and  C_26 
ROOT
HETATM    1  N   UNL     1       4.987  27.794  51.145  1.00  0.00    -0.232 N 
HETATM    2  C   UNL     1       5.207  26.447  51.336  1.00  0.00     0.333 C 
HETATM    3  O   UNL     1       4.942  25.515  50.590  1.00  0.00    -0.246 OA
HETATM    4  N   UNL     1       5.694  26.234  52.634  1.00  0.00    -0.315 N 
HETATM    5  C   UNL     1       5.802  27.485  53.361  1.00  0.00     0.191 C 
HETATM    6  C   UNL     1       5.204  28.445  52.335  1.00  0.00     0.256 C 
HETATM    7  O   UNL     1       5.011  29.623  52.628  1.00  0.00    -0.270 OA
ENDROOT
BRANCH   4   8
HETATM    8  C   UNL     1       5.250  25.006  53.274  1.00  0.00     0.167 C 
BRANCH   8   9
HETATM    9  C   UNL     1       6.316  24.080  53.786  1.00  0.00    -0.037 A 
HETATM   10  C   UNL     1       6.635  24.053  55.153  1.00  0.00     0.048 A 
HETATM   11  C   UNL     1       7.749  23.341  55.614  1.00  0.00     0.102 A 
HETATM   12  C   UNL     1       8.540  22.631  54.695  1.00  0.00     0.101 A 
HETATM   13  C   UNL     1       8.186  22.600  53.343  1.00  0.00     0.040 A 
HETATM   14  C   UNL     1       7.087  23.328  52.891  1.00  0.00     0.012 A 
BRANCH  11  15
HETATM   15  O   UNL     1       8.161  23.303  56.922  1.00  0.00    -0.353 OA
HETATM   16  C   UNL     1       8.801  24.461  57.438  1.00  0.00     0.210 C 
ENDBRANCH  11  15
BRANCH  12  17
HETATM   17  O   UNL     1       9.638  21.963  55.183  1.00  0.00    -0.353 OA
HETATM   18  C   UNL     1       9.400  20.594  55.497  1.00  0.00     0.210 C 
ENDBRANCH  12  17
ENDBRANCH   8   9
ENDBRANCH   4   8
BRANCH   5  19
HETATM   19  C   UNL     1       7.247  27.912  53.613  1.00  0.00     0.138 C 
BRANCH  19  20
HETATM   20  C   UNL     1       7.576  28.128  55.084  1.00  0.00     0.224 C 
HETATM   21  N   UNL     1       8.253  29.299  55.367  1.00  0.00    -0.327 N 
HETATM   22  H   UNL     1       8.428  29.955  54.608  1.00  0.00     0.169 HD
HETATM   23  O   UNL     1       7.271  27.262  55.902  1.00  0.00    -0.273 OA
BRANCH  21  24
HETATM   24  C   UNL     1       8.727  29.732  56.626  1.00  0.00     0.034 A 
HETATM   25  C   UNL     1      10.060  30.043  56.897  1.00  0.00     0.029 A 
HETATM   26  C   UNL     1      10.440  30.479  58.171  1.00  0.00     0.002 A 
HETATM   27  C   UNL     1       9.493  30.593  59.188  1.00  0.00     0.000 A 
HETATM   28  C   UNL     1       8.162  30.285  58.928  1.00  0.00     0.002 A 
HETATM   29  C   UNL     1       7.779  29.869  57.650  1.00  0.00     0.029 A 
ENDBRANCH  21  24
ENDBRANCH  19  20
ENDBRANCH   5  19
BRANCH   1  30
HETATM   30  C   UNL     1       4.434  28.380  49.959  1.00  0.00     0.047 A 
HETATM   31  C   UNL     1       5.252  28.849  48.916  1.00  0.00     0.033 A 
HETATM   32  C   UNL     1       4.721  29.366  47.722  1.00  0.00     0.039 A 
HETATM   33  C   UNL     1       3.347  29.440  47.540  1.00  0.00     0.068 A 
HETATM   34  C   UNL     1       2.516  29.034  48.580  1.00  0.00     0.039 A 
HETATM   35  C   UNL     1       3.051  28.513  49.769  1.00  0.00     0.033 A 
BRANCH  33  36
HETATM   36  O   UNL     1       2.709  29.895  46.423  1.00  0.00    -0.356 OA
HETATM   37  C   UNL     1       1.286  29.842  46.442  1.00  0.00     0.210 C 
ENDBRANCH  33  36
ENDBRANCH   1  30
TORSDOF 9
ENDMDL
MODEL 6
REMARK VINA RESULT:      -9.4      3.081      7.927
REMARK  9 active torsions:
REMARK  status: ('A' for Active; 'I' for Inactive)
REMARK    1  A    between atoms: O_2  and  C_3 
REMARK    2  A    between atoms: C_6  and  N_7 
REMARK    3  A    between atoms: N_10  and  C_11 
REMARK    4  A    between atoms: C_11  and  C_12 
REMARK    5  A    between atoms: C_14  and  O_15 
REMARK    6  A    between atoms: C_17  and  O_18 
REMARK    7  A    between atoms: C_22  and  C_23 
REMARK    8  A    between atoms: C_23  and  C_24 
REMARK       I    between atoms: C_24  and  N_25 
REMARK    9  A    between atoms: N_25  and  C_26 
ROOT
HETATM    1  N   UNL     1       7.204  27.821  56.142  1.00  0.00    -0.232 N 
HETATM    2  C   UNL     1       6.077  28.016  56.910  1.00  0.00     0.333 C 
HETATM    3  O   UNL     1       5.050  27.352  56.945  1.00  0.00    -0.246 OA
HETATM    4  N   UNL     1       6.194  29.225  57.610  1.00  0.00    -0.315 N 
HETATM    5  C   UNL     1       7.448  29.887  57.301  1.00  0.00     0.191 C 
HETATM    6  C   UNL     1       7.995  28.940  56.236  1.00  0.00     0.256 C 
HETATM    7  O   UNL     1       9.024  29.223  55.625  1.00  0.00    -0.270 OA
ENDROOT
BRANCH   4   8
HETATM    8  C   UNL     1       4.955  29.966  57.788  1.00  0.00     0.167 C 
BRANCH   8   9
HETATM    9  C   UNL     1       4.750  31.173  56.917  1.00  0.00    -0.037 A 
HETATM   10  C   UNL     1       4.443  31.019  55.555  1.00  0.00     0.048 A 
HETATM   11  C   UNL     1       4.439  32.124  54.694  1.00  0.00     0.102 A 
HETATM   12  C   UNL     1       4.727  33.400  55.209  1.00  0.00     0.101 A 
HETATM   13  C   UNL     1       4.966  33.564  56.576  1.00  0.00     0.040 A 
HETATM   14  C   UNL     1       4.988  32.456  57.423  1.00  0.00     0.012 A 
BRANCH  11  15
HETATM   15  O   UNL     1       4.199  32.057  53.345  1.00  0.00    -0.353 OA
HETATM   16  C   UNL     1       3.322  31.038  52.889  1.00  0.00     0.210 C 
ENDBRANCH  11  15
BRANCH  12  17
HETATM   17  O   UNL     1       4.736  34.454  54.329  1.00  0.00    -0.353 OA
HETATM   18  C   UNL     1       5.768  35.408  54.566  1.00  0.00     0.210 C 
ENDBRANCH  12  17
ENDBRANCH   8   9
ENDBRANCH   4   8
BRANCH   5  19
HETATM   19  C   UNL     1       8.430  29.891  58.472  1.00  0.00     0.138 C 
BRANCH  19  20
HETATM   20  C   UNL     1       8.307  31.113  59.373  1.00  0.00     0.224 C 
HETATM   21  N   UNL     1       7.634  30.900  60.560  1.00  0.00    -0.327 N 
HETATM   22  H   UNL     1       7.329  29.953  60.783  1.00  0.00     0.169 HD
HETATM   23  O   UNL     1       8.757  32.190  58.988  1.00  0.00    -0.273 OA
BRANCH  21  24
HETATM   24  C   UNL     1       7.330  31.855  61.556  1.00  0.00     0.034 A 
HETATM   25  C   UNL     1       6.291  32.781  61.461  1.00  0.00     0.029 A 
HETATM   26  C   UNL     1       6.050  33.684  62.503  1.00  0.00     0.002 A 
HETATM   27  C   UNL     1       6.856  33.677  63.641  1.00  0.00     0.000 A 
HETATM   28  C   UNL     1       7.894  32.758  63.745  1.00  0.00     0.002 A 
HETATM   29  C   UNL     1       8.122  31.842  62.713  1.00  0.00     0.029 A 
ENDBRANCH  21  24
ENDBRANCH  19  20
ENDBRANCH   5  19
BRANCH   1  30
HETATM   30  C   UNL     1       7.414  26.721  55.246  1.00  0.00     0.047 A 
HETATM   31  C   UNL     1       7.622  25.413  55.717  1.00  0.00     0.033 A 
HETATM   32  C   UNL     1       7.763  24.317  54.849  1.00  0.00     0.039 A 
HETATM   33  C   UNL     1       7.712  24.501  53.475  1.00  0.00     0.068 A 
HETATM   34  C   UNL     1       7.562  25.794  52.982  1.00  0.00     0.039 A 
HETATM   35  C   UNL     1       7.416  26.885  53.853  1.00  0.00     0.033 A 
BRANCH  33  36
HETATM   36  O   UNL     1       7.810  23.521  52.530  1.00  0.00    -0.356 OA
HETATM   37  C   UNL     1       8.106  22.212  53.006  1.00  0.00     0.210 C 
ENDBRANCH  33  36
ENDBRANCH   1  30
TORSDOF 9
ENDMDL
MODEL 7
REMARK VINA RESULT:      -9.4      1.787      8.687
REMARK  9 active torsions:
REMARK  status: ('A' for Active; 'I' for Inactive)
REMARK    1  A    between atoms: O_2  and  C_3 
REMARK    2  A    between atoms: C_6  and  N_7 
REMARK    3  A    between atoms: N_10  and  C_11 
REMARK    4  A    between atoms: C_11  and  C_12 
REMARK    5  A    between atoms: C_14  and  O_15 
REMARK    6  A    between atoms: C_17  and  O_18 
REMARK    7  A    between atoms: C_22  and  C_23 
REMARK    8  A    between atoms: C_23  and  C_24 
REMARK       I    between atoms: C_24  and  N_25 
REMARK    9  A    between atoms: N_25  and  C_26 
ROOT
HETATM    1  N   UNL     1       6.952  29.051  56.556  1.00  0.00    -0.232 N 
HETATM    2  C   UNL     1       6.104  29.373  55.520  1.00  0.00     0.333 C 
HETATM    3  O   UNL     1       5.641  30.465  55.221  1.00  0.00    -0.246 OA
HETATM    4  N   UNL     1       5.698  28.200  54.868  1.00  0.00    -0.315 N 
HETATM    5  C   UNL     1       6.286  27.028  55.490  1.00  0.00     0.191 C 
HETATM    6  C   UNL     1       7.007  27.682  56.666  1.00  0.00     0.256 C 
HETATM    7  O   UNL     1       7.551  26.988  57.523  1.00  0.00    -0.270 OA
ENDROOT
BRANCH   4   8
HETATM    8  C   UNL     1       4.333  28.203  54.368  1.00  0.00     0.167 C 
BRANCH   8   9
HETATM    9  C   UNL     1       4.150  28.336  52.883  1.00  0.00    -0.037 A 
HETATM   10  C   UNL     1       3.076  29.078  52.364  1.00  0.00     0.048 A 
HETATM   11  C   UNL     1       2.783  29.051  50.994  1.00  0.00     0.102 A 
HETATM   12  C   UNL     1       3.589  28.286  50.133  1.00  0.00     0.101 A 
HETATM   13  C   UNL     1       4.698  27.601  50.637  1.00  0.00     0.040 A 
HETATM   14  C   UNL     1       4.971  27.618  52.004  1.00  0.00     0.012 A 
BRANCH  11  15
HETATM   15  O   UNL     1       1.727  29.704  50.412  1.00  0.00    -0.353 OA
HETATM   16  C   UNL     1       1.769  31.123  50.395  1.00  0.00     0.210 C 
ENDBRANCH  11  15
BRANCH  12  17
HETATM   17  O   UNL     1       3.256  28.267  48.800  1.00  0.00    -0.353 OA
HETATM   18  C   UNL     1       4.374  28.246  47.917  1.00  0.00     0.210 C 
ENDBRANCH  12  17
ENDBRANCH   8   9
ENDBRANCH   4   8
BRANCH   5  19
HETATM   19  C   UNL     1       7.340  26.349  54.617  1.00  0.00     0.138 C 
BRANCH  19  20
HETATM   20  C   UNL     1       7.142  24.845  54.474  1.00  0.00     0.224 C 
HETATM   21  N   UNL     1       8.268  24.081  54.712  1.00  0.00    -0.327 N 
HETATM   22  H   UNL     1       9.117  24.550  55.021  1.00  0.00     0.169 HD
HETATM   23  O   UNL     1       6.045  24.414  54.126  1.00  0.00    -0.273 OA
BRANCH  21  24
HETATM   24  C   UNL     1       8.389  22.677  54.605  1.00  0.00     0.034 A 
HETATM   25  C   UNL     1       8.334  21.975  53.400  1.00  0.00     0.029 A 
HETATM   26  C   UNL     1       8.478  20.584  53.384  1.00  0.00     0.002 A 
HETATM   27  C   UNL     1       8.663  19.881  54.573  1.00  0.00     0.000 A 
HETATM   28  C   UNL     1       8.719  20.571  55.780  1.00  0.00     0.002 A 
HETATM   29  C   UNL     1       8.596  21.964  55.793  1.00  0.00     0.029 A 
ENDBRANCH  21  24
ENDBRANCH  19  20
ENDBRANCH   5  19
BRANCH   1  30
HETATM   30  C   UNL     1       7.520  29.988  57.482  1.00  0.00     0.047 A 
HETATM   31  C   UNL     1       6.716  30.789  58.310  1.00  0.00     0.033 A 
HETATM   32  C   UNL     1       7.261  31.663  59.266  1.00  0.00     0.039 A 
HETATM   33  C   UNL     1       8.636  31.770  59.413  1.00  0.00     0.068 A 
HETATM   34  C   UNL     1       9.455  31.029  58.566  1.00  0.00     0.039 A 
HETATM   35  C   UNL     1       8.907  30.153  57.617  1.00  0.00     0.033 A 
BRANCH  33  36
HETATM   36  O   UNL     1       9.287  32.559  60.317  1.00  0.00    -0.356 OA
HETATM   37  C   UNL     1       9.665  31.938  61.541  1.00  0.00     0.210 C 
ENDBRANCH  33  36
ENDBRANCH   1  30
TORSDOF 9
ENDMDL
MODEL 8
REMARK VINA RESULT:      -9.4      2.678      7.953
REMARK  9 active torsions:
REMARK  status: ('A' for Active; 'I' for Inactive)
REMARK    1  A    between atoms: O_2  and  C_3 
REMARK    2  A    between atoms: C_6  and  N_7 
REMARK    3  A    between atoms: N_10  and  C_11 
REMARK    4  A    between atoms: C_11  and  C_12 
REMARK    5  A    between atoms: C_14  and  O_15 
REMARK    6  A    between atoms: C_17  and  O_18 
REMARK    7  A    between atoms: C_22  and  C_23 
REMARK    8  A    between atoms: C_23  and  C_24 
REMARK       I    between atoms: C_24  and  N_25 
REMARK    9  A    between atoms: N_25  and  C_26 
ROOT
HETATM    1  N   UNL     1       3.411  27.813  49.481  1.00  0.00    -0.232 N 
HETATM    2  C   UNL     1       3.557  28.498  50.668  1.00  0.00     0.333 C 
HETATM    3  O   UNL     1       2.946  29.481  51.064  1.00  0.00    -0.246 OA
HETATM    4  N   UNL     1       4.653  27.981  51.373  1.00  0.00    -0.315 N 
HETATM    5  C   UNL     1       5.287  26.905  50.634  1.00  0.00     0.191 C 
HETATM    6  C   UNL     1       4.467  26.944  49.347  1.00  0.00     0.256 C 
HETATM    7  O   UNL     1       4.778  26.235  48.392  1.00  0.00    -0.270 OA
ENDROOT
BRANCH   4   8
HETATM    8  C   UNL     1       5.424  28.954  52.130  1.00  0.00     0.167 C 
BRANCH   8   9
HETATM    9  C   UNL     1       5.868  28.550  53.508  1.00  0.00    -0.037 A 
HETATM   10  C   UNL     1       5.026  28.756  54.613  1.00  0.00     0.048 A 
HETATM   11  C   UNL     1       5.498  28.564  55.918  1.00  0.00     0.102 A 
HETATM   12  C   UNL     1       6.824  28.141  56.114  1.00  0.00     0.101 A 
HETATM   13  C   UNL     1       7.643  27.870  55.015  1.00  0.00     0.040 A 
HETATM   14  C   UNL     1       7.171  28.083  53.720  1.00  0.00     0.012 A 
BRANCH  11  15
HETATM   15  O   UNL     1       4.761  28.790  57.052  1.00  0.00    -0.353 OA
HETATM   16  C   UNL     1       4.477  30.141  57.387  1.00  0.00     0.210 C 
ENDBRANCH  11  15
BRANCH  12  17
HETATM   17  O   UNL     1       7.256  27.986  57.409  1.00  0.00    -0.353 OA
HETATM   18  C   UNL     1       8.258  28.916  57.808  1.00  0.00     0.210 C 
ENDBRANCH  12  17
ENDBRANCH   8   9
ENDBRANCH   4   8
BRANCH   5  19
HETATM   19  C   UNL     1       5.084  25.534  51.276  1.00  0.00     0.138 C 
BRANCH  19  20
HETATM   20  C   UNL     1       6.271  25.063  52.106  1.00  0.00     0.224 C 
HETATM   21  N   UNL     1       5.943  24.424  53.287  1.00  0.00    -0.327 N 
HETATM   22  H   UNL     1       4.960  24.256  53.491  1.00  0.00     0.169 HD
HETATM   23  O   UNL     1       7.411  25.306  51.717  1.00  0.00    -0.273 OA
BRANCH  21  24
HETATM   24  C   UNL     1       6.831  23.932  54.270  1.00  0.00     0.034 A 
HETATM   25  C   UNL     1       6.902  24.418  55.576  1.00  0.00     0.029 A 
HETATM   26  C   UNL     1       7.803  23.861  56.490  1.00  0.00     0.002 A 
HETATM   27  C   UNL     1       8.650  22.824  56.102  1.00  0.00     0.000 A 
HETATM   28  C   UNL     1       8.587  22.332  54.802  1.00  0.00     0.002 A 
HETATM   29  C   UNL     1       7.672  22.875  53.895  1.00  0.00     0.029 A 
ENDBRANCH  21  24
ENDBRANCH  19  20
ENDBRANCH   5  19
BRANCH   1  30
HETATM   30  C   UNL     1       2.433  28.104  48.474  1.00  0.00     0.047 A 
HETATM   31  C   UNL     1       2.470  29.295  47.728  1.00  0.00     0.033 A 
HETATM   32  C   UNL     1       1.557  29.561  46.695  1.00  0.00     0.039 A 
HETATM   33  C   UNL     1       0.565  28.642  46.383  1.00  0.00     0.068 A 
HETATM   34  C   UNL     1       0.471  27.481  47.143  1.00  0.00     0.039 A 
HETATM   35  C   UNL     1       1.390  27.216  48.171  1.00  0.00     0.033 A 
BRANCH  33  36
HETATM   36  O   UNL     1      -0.364  28.770  45.390  1.00  0.00    -0.356 OA
HETATM   37  C   UNL     1      -1.603  29.366  45.758  1.00  0.00     0.210 C 
ENDBRANCH  33  36
ENDBRANCH   1  30
TORSDOF 9
ENDMDL
MODEL 9
REMARK VINA RESULT:      -9.2      3.226      7.080
REMARK  9 active torsions:
REMARK  status: ('A' for Active; 'I' for Inactive)
REMARK    1  A    between atoms: O_2  and  C_3 
REMARK    2  A    between atoms: C_6  and  N_7 
REMARK    3  A    between atoms: N_10  and  C_11 
REMARK    4  A    between atoms: C_11  and  C_12 
REMARK    5  A    between atoms: C_14  and  O_15 
REMARK    6  A    between atoms: C_17  and  O_18 
REMARK    7  A    between atoms: C_22  and  C_23 
REMARK    8  A    between atoms: C_23  and  C_24 
REMARK       I    between atoms: C_24  and  N_25 
REMARK    9  A    between atoms: N_25  and  C_26 
ROOT
HETATM    1  N   UNL     1       7.051  26.408  55.326  1.00  0.00    -0.232 N 
HETATM    2  C   UNL     1       6.266  26.614  56.439  1.00  0.00     0.333 C 
HETATM    3  O   UNL     1       5.591  25.805  57.060  1.00  0.00    -0.246 OA
HETATM    4  N   UNL     1       6.225  27.985  56.733  1.00  0.00    -0.315 N 
HETATM    5  C   UNL     1       7.005  28.746  55.776  1.00  0.00     0.191 C 
HETATM    6  C   UNL     1       7.418  27.631  54.819  1.00  0.00     0.256 C 
HETATM    7  O   UNL     1       8.017  27.898  53.778  1.00  0.00    -0.270 OA
ENDROOT
BRANCH   4   8
HETATM    8  C   UNL     1       4.960  28.473  57.259  1.00  0.00     0.167 C 
BRANCH   8   9
HETATM    9  C   UNL     1       4.402  29.725  56.643  1.00  0.00    -0.037 A 
HETATM   10  C   UNL     1       4.183  30.865  57.432  1.00  0.00     0.048 A 
HETATM   11  C   UNL     1       3.489  31.969  56.917  1.00  0.00     0.102 A 
HETATM   12  C   UNL     1       3.030  31.934  55.589  1.00  0.00     0.101 A 
HETATM   13  C   UNL     1       3.307  30.828  54.781  1.00  0.00     0.040 A 
HETATM   14  C   UNL     1       3.980  29.726  55.308  1.00  0.00     0.012 A 
BRANCH  11  15
HETATM   15  O   UNL     1       3.188  33.100  57.632  1.00  0.00    -0.353 OA
HETATM   16  C   UNL     1       4.189  33.606  58.503  1.00  0.00     0.210 C 
ENDBRANCH  11  15
BRANCH  12  17
HETATM   17  O   UNL     1       2.335  33.026  55.129  1.00  0.00    -0.353 OA
HETATM   18  C   UNL     1       1.962  32.948  53.755  1.00  0.00     0.210 C 
ENDBRANCH  12  17
ENDBRANCH   8   9
ENDBRANCH   4   8
BRANCH   5  19
HETATM   19  C   UNL     1       8.278  29.341  56.376  1.00  0.00     0.138 C 
BRANCH  19  20
HETATM   20  C   UNL     1       8.205  29.557  57.882  1.00  0.00     0.224 C 
HETATM   21  N   UNL     1       8.170  30.878  58.284  1.00  0.00    -0.327 N 
HETATM   22  H   UNL     1       8.131  31.603  57.569  1.00  0.00     0.169 HD
HETATM   23  O   UNL     1       8.224  28.582  58.630  1.00  0.00    -0.273 OA
BRANCH  21  24
HETATM   24  C   UNL     1       8.151  31.372  59.608  1.00  0.00     0.034 A 
HETATM   25  C   UNL     1       7.007  31.842  60.253  1.00  0.00     0.029 A 
HETATM   26  C   UNL     1       7.076  32.300  61.573  1.00  0.00     0.002 A 
HETATM   27  C   UNL     1       8.292  32.306  62.253  1.00  0.00     0.000 A 
HETATM   28  C   UNL     1       9.440  31.840  61.619  1.00  0.00     0.002 A 
HETATM   29  C   UNL     1       9.366  31.363  60.307  1.00  0.00     0.029 A 
ENDBRANCH  21  24
ENDBRANCH  19  20
ENDBRANCH   5  19
BRANCH   1  30
HETATM   30  C   UNL     1       7.275  25.140  54.696  1.00  0.00     0.047 A 
HETATM   31  C   UNL     1       6.684  24.810  53.464  1.00  0.00     0.033 A 
HETATM   32  C   UNL     1       6.949  23.597  52.806  1.00  0.00     0.039 A 
HETATM   33  C   UNL     1       7.809  22.667  53.372  1.00  0.00     0.068 A 
HETATM   34  C   UNL     1       8.364  22.945  54.617  1.00  0.00     0.039 A 
HETATM   35  C   UNL     1       8.101  24.161  55.268  1.00  0.00     0.033 A 
BRANCH  33  36
HETATM   36  O   UNL     1       8.166  21.468  52.825  1.00  0.00    -0.356 OA
HETATM   37  C   UNL     1       8.648  20.480  53.729  1.00  0.00     0.210 C 
ENDBRANCH  33  36
ENDBRANCH   1  30
TORSDOF 9
ENDMDL
MODEL 10
REMARK VINA RESULT:      -9.2      2.449      7.980
REMARK  9 active torsions:
REMARK  status: ('A' for Active; 'I' for Inactive)
REMARK    1  A    between atoms: O_2  and  C_3 
REMARK    2  A    between atoms: C_6  and  N_7 
REMARK    3  A    between atoms: N_10  and  C_11 
REMARK    4  A    between atoms: C_11  and  C_12 
REMARK    5  A    between atoms: C_14  and  O_15 
REMARK    6  A    between atoms: C_17  and  O_18 
REMARK    7  A    between atoms: C_22  and  C_23 
REMARK    8  A    between atoms: C_23  and  C_24 
REMARK       I    between atoms: C_24  and  N_25 
REMARK    9  A    between atoms: N_25  and  C_26 
ROOT
HETATM    1  N   UNL     1       6.973  31.055  58.806  1.00  0.00    -0.232 N 
HETATM    2  C   UNL     1       7.504  29.888  58.303  1.00  0.00     0.333 C 
HETATM    3  O   UNL     1       8.329  29.141  58.810  1.00  0.00    -0.246 OA
HETATM    4  N   UNL     1       7.052  29.698  56.989  1.00  0.00    -0.315 N 
HETATM    5  C   UNL     1       6.184  30.785  56.575  1.00  0.00     0.191 C 
HETATM    6  C   UNL     1       6.284  31.690  57.801  1.00  0.00     0.256 C 
HETATM    7  O   UNL     1       5.761  32.803  57.794  1.00  0.00    -0.270 OA
ENDROOT
BRANCH   4   8
HETATM    8  C   UNL     1       8.010  29.088  56.081  1.00  0.00     0.167 C 
BRANCH   8   9
HETATM    9  C   UNL     1       7.647  27.749  55.505  1.00  0.00    -0.037 A 
HETATM   10  C   UNL     1       7.485  26.636  56.347  1.00  0.00     0.048 A 
HETATM   11  C   UNL     1       7.337  25.350  55.811  1.00  0.00     0.102 A 
HETATM   12  C   UNL     1       7.332  25.182  54.416  1.00  0.00     0.101 A 
HETATM   13  C   UNL     1       7.426  26.295  53.576  1.00  0.00     0.040 A 
HETATM   14  C   UNL     1       7.592  27.569  54.118  1.00  0.00     0.012 A 
BRANCH  11  15
HETATM   15  O   UNL     1       7.224  24.206  56.559  1.00  0.00    -0.353 OA
HETATM   16  C   UNL     1       8.423  23.636  57.065  1.00  0.00     0.210 C 
ENDBRANCH  11  15
BRANCH  12  17
HETATM   17  O   UNL     1       7.208  23.902  53.930  1.00  0.00    -0.353 OA
HETATM   18  C   UNL     1       7.963  23.648  52.749  1.00  0.00     0.210 C 
ENDBRANCH  12  17
ENDBRANCH   8   9
ENDBRANCH   4   8
BRANCH   5  19
HETATM   19  C   UNL     1       4.723  30.365  56.423  1.00  0.00     0.138 C 
BRANCH  19  20
HETATM   20  C   UNL     1       4.457  29.503  55.195  1.00  0.00     0.224 C 
HETATM   21  N   UNL     1       4.568  30.159  53.984  1.00  0.00    -0.327 N 
HETATM   22  H   UNL     1       4.876  31.130  53.985  1.00  0.00     0.169 HD
HETATM   23  O   UNL     1       4.128  28.329  55.345  1.00  0.00    -0.273 OA
BRANCH  21  24
HETATM   24  C   UNL     1       4.330  29.628  52.697  1.00  0.00     0.034 A 
HETATM   25  C   UNL     1       3.066  29.511  52.119  1.00  0.00     0.029 A 
HETATM   26  C   UNL     1       2.922  28.986  50.831  1.00  0.00     0.002 A 
HETATM   27  C   UNL     1       4.039  28.558  50.116  1.00  0.00     0.000 A 
HETATM   28  C   UNL     1       5.305  28.669  50.683  1.00  0.00     0.002 A 
HETATM   29  C   UNL     1       5.450  29.214  51.962  1.00  0.00     0.029 A 
ENDBRANCH  21  24
ENDBRANCH  19  20
ENDBRANCH   5  19
BRANCH   1  30
HETATM   30  C   UNL     1       7.260  31.604  60.100  1.00  0.00     0.047 A 
HETATM   31  C   UNL     1       6.246  32.120  60.925  1.00  0.00     0.033 A 
HETATM   32  C   UNL     1       6.507  32.600  62.220  1.00  0.00     0.039 A 
HETATM   33  C   UNL     1       7.799  32.587  62.725  1.00  0.00     0.068 A 
HETATM   34  C   UNL     1       8.828  32.133  61.907  1.00  0.00     0.039 A 
HETATM   35  C   UNL     1       8.563  31.649  60.616  1.00  0.00     0.033 A 
BRANCH  33  36
HETATM   36  O   UNL     1       8.178  33.000  63.970  1.00  0.00    -0.356 OA
HETATM   37  C   UNL     1       7.128  33.364  64.861  1.00  0.00     0.210 C 
ENDBRANCH  33  36
ENDBRANCH   1  30
TORSDOF 9
ENDMDL
