MODEL 1
REMARK VINA RESULT:     -10.3      0.000      0.000
REMARK  5 active torsions:
REMARK  status: ('A' for Active; 'I' for Inactive)
REMARK    1  A    between atoms: C_2  and  C_3 
REMARK    2  A    between atoms: C_7  and  C_8 
REMARK    3  A    between atoms: C_11  and  C_12 
REMARK       I    between atoms: C_12  and  N_13 
REMARK    4  A    between atoms: N_13  and  C_14 
REMARK    5  A    between atoms: C_17  and  N_18 
REMARK       I    between atoms: N_18  and  C_19 
ROOT
HETATM    1  C   UNL     1       7.512  29.147  56.913  1.00  0.00     0.010 A 
HETATM    2  C   UNL     1       8.680  29.174  57.690  1.00  0.00     0.016 A 
HETATM    3  C   UNL     1       8.822  30.096  58.736  1.00  0.00     0.018 A 
HETATM    4  C   UNL     1       7.793  31.003  59.009  1.00  0.00     0.032 A 
HETATM    5  C   UNL     1       6.614  30.956  58.252  1.00  0.00     0.018 A 
HETATM    6  C   UNL     1       6.471  30.033  57.212  1.00  0.00     0.016 A 
ENDROOT
BRANCH   4   7
HETATM    7  C   UNL     1       7.877  32.016  60.102  1.00  0.00     0.256 C 
HETATM    8  N   UNL     1       6.952  31.871  61.121  1.00  0.00    -0.323 N 
HETATM    9  H   UNL     1       6.321  31.086  61.067  1.00  0.00     0.169 HD
HETATM   10  O   UNL     1       8.772  32.851  60.035  1.00  0.00    -0.267 OA
BRANCH   8  11
HETATM   11  C   UNL     1       6.876  32.629  62.311  1.00  0.00     0.035 A 
HETATM   12  C   UNL     1       7.753  32.494  63.385  1.00  0.00     0.032 A 
HETATM   13  C   UNL     1       7.574  33.241  64.559  1.00  0.00     0.032 A 
HETATM   14  C   UNL     1       6.518  34.142  64.677  1.00  0.00     0.034 A 
HETATM   15  C   UNL     1       5.655  34.303  63.588  1.00  0.00     0.032 A 
HETATM   16  C   UNL     1       5.832  33.555  62.417  1.00  0.00     0.032 A 
BRANCH  14  17
HETATM   17  N   UNL     1       6.243  34.891  65.839  1.00  0.00    -0.328 N 
HETATM   18  C   UNL     1       5.268  34.643  66.788  1.00  0.00     0.218 C 
HETATM   19  C   UNL     1       5.222  35.707  67.858  1.00  0.00     0.117 C 
HETATM   20  O   UNL     1       4.508  33.683  66.833  1.00  0.00    -0.274 OA
HETATM   21  H   UNL     1       6.814  35.716  65.977  1.00  0.00     0.169 HD
ENDBRANCH  14  17
ENDBRANCH   8  11
ENDBRANCH   4   7
BRANCH   1  22
HETATM   22  C   UNL     1       7.398  28.138  55.819  1.00  0.00     0.142 A 
HETATM   23  N   UNL     1       7.766  26.908  56.021  1.00  0.00    -0.222 NA
HETATM   24  C   UNL     1       7.599  26.073  54.962  1.00  0.00     0.116 A 
HETATM   25  C   UNL     1       7.104  26.399  53.717  1.00  0.00     0.075 A 
HETATM   26  S   UNL     1       8.000  24.424  55.066  1.00  0.00    -0.074 SA
HETATM   27  C   UNL     1       7.034  25.269  52.825  1.00  0.00    -0.027 A 
HETATM   28  C   UNL     1       6.732  27.783  53.501  1.00  0.00     0.260 A 
HETATM   29  C   UNL     1       7.497  24.121  53.458  1.00  0.00    -0.012 A 
HETATM   30  C   UNL     1       7.592  22.735  52.908  1.00  0.00     0.057 C 
HETATM   31  N   UNL     1       6.905  28.587  54.605  1.00  0.00    -0.307 N 
HETATM   32  O   UNL     1       6.301  28.236  52.445  1.00  0.00    -0.267 OA
HETATM   33  H   UNL     1       6.682  29.557  54.443  1.00  0.00     0.170 HD
BRANCH  27  34
HETATM   34  C   UNL     1       6.520  25.321  51.412  1.00  0.00     0.036 C 
HETATM   35  C   UNL     1       5.004  25.224  51.345  1.00  0.00     0.010 C 
ENDBRANCH  27  34
ENDBRANCH   1  22
TORSDOF 5
ENDMDL
MODEL 2
REMARK VINA RESULT:      -9.8      2.918      3.830
REMARK  5 active torsions:
REMARK  status: ('A' for Active; 'I' for Inactive)
REMARK    1  A    between atoms: C_2  and  C_3 
REMARK    2  A    between atoms: C_7  and  C_8 
REMARK    3  A    between atoms: C_11  and  C_12 
REMARK       I    between atoms: C_12  and  N_13 
REMARK    4  A    between atoms: N_13  and  C_14 
REMARK    5  A    between atoms: C_17  and  N_18 
REMARK       I    between atoms: N_18  and  C_19 
ROOT
HETATM    1  C   UNL     1       7.013  27.736  57.207  1.00  0.00     0.010 A 
HETATM    2  C   UNL     1       5.728  28.262  57.009  1.00  0.00     0.016 A 
HETATM    3  C   UNL     1       5.401  29.545  57.471  1.00  0.00     0.018 A 
HETATM    4  C   UNL     1       6.361  30.308  58.142  1.00  0.00     0.032 A 
HETATM    5  C   UNL     1       7.654  29.794  58.314  1.00  0.00     0.018 A 
HETATM    6  C   UNL     1       7.982  28.517  57.848  1.00  0.00     0.016 A 
ENDROOT
BRANCH   4   7
HETATM    7  C   UNL     1       6.083  31.678  58.667  1.00  0.00     0.256 C 
HETATM    8  N   UNL     1       5.817  31.755  60.022  1.00  0.00    -0.323 N 
HETATM    9  H   UNL     1       5.863  30.898  60.554  1.00  0.00     0.169 HD
HETATM   10  O   UNL     1       6.156  32.614  57.878  1.00  0.00    -0.267 OA
BRANCH   8  11
HETATM   11  C   UNL     1       5.618  32.930  60.782  1.00  0.00     0.035 A 
HETATM   12  C   UNL     1       4.618  33.867  60.528  1.00  0.00     0.032 A 
HETATM   13  C   UNL     1       4.523  35.041  61.291  1.00  0.00     0.032 A 
HETATM   14  C   UNL     1       5.420  35.294  62.325  1.00  0.00     0.034 A 
HETATM   15  C   UNL     1       6.405  34.339  62.602  1.00  0.00     0.032 A 
HETATM   16  C   UNL     1       6.502  33.169  61.839  1.00  0.00     0.032 A 
BRANCH  14  17
HETATM   17  N   UNL     1       5.421  36.470  63.103  1.00  0.00    -0.328 N 
HETATM   18  C   UNL     1       5.972  37.695  62.775  1.00  0.00     0.218 C 
HETATM   19  C   UNL     1       5.842  38.703  63.892  1.00  0.00     0.117 C 
HETATM   20  O   UNL     1       6.500  38.008  61.715  1.00  0.00    -0.274 OA
HETATM   21  H   UNL     1       4.984  36.396  64.014  1.00  0.00     0.169 HD
ENDBRANCH  14  17
ENDBRANCH   8  11
ENDBRANCH   4   7
BRANCH   1  22
HETATM   22  C   UNL     1       7.321  26.372  56.685  1.00  0.00     0.142 A 
HETATM   23  N   UNL     1       7.016  26.055  55.462  1.00  0.00    -0.222 NA
HETATM   24  C   UNL     1       7.360  24.794  55.089  1.00  0.00     0.116 A 
HETATM   25  C   UNL     1       7.975  23.836  55.866  1.00  0.00     0.075 A 
HETATM   26  S   UNL     1       7.061  24.227  53.514  1.00  0.00    -0.074 SA
HETATM   27  C   UNL     1       8.224  22.608  55.155  1.00  0.00    -0.027 A 
HETATM   28  C   UNL     1       8.277  24.199  57.237  1.00  0.00     0.260 A 
HETATM   29  C   UNL     1       7.768  22.703  53.845  1.00  0.00    -0.012 A 
HETATM   30  C   UNL     1       7.830  21.673  52.765  1.00  0.00     0.057 C 
HETATM   31  N   UNL     1       7.922  25.487  57.565  1.00  0.00    -0.307 N 
HETATM   32  O   UNL     1       8.797  23.452  58.061  1.00  0.00    -0.267 OA
HETATM   33  H   UNL     1       8.097  25.727  58.528  1.00  0.00     0.170 HD
BRANCH  27  34
HETATM   34  C   UNL     1       8.895  21.396  55.743  1.00  0.00     0.036 C 
HETATM   35  C   UNL     1       7.895  20.404  56.318  1.00  0.00     0.010 C 
ENDBRANCH  27  34
ENDBRANCH   1  22
TORSDOF 5
ENDMDL
MODEL 3
REMARK VINA RESULT:      -9.7      2.580      3.226
REMARK  5 active torsions:
REMARK  status: ('A' for Active; 'I' for Inactive)
REMARK    1  A    between atoms: C_2  and  C_3 
REMARK    2  A    between atoms: C_7  and  C_8 
REMARK    3  A    between atoms: C_11  and  C_12 
REMARK       I    between atoms: C_12  and  N_13 
REMARK    4  A    between atoms: N_13  and  C_14 
REMARK    5  A    between atoms: C_17  and  N_18 
REMARK       I    between atoms: N_18  and  C_19 
ROOT
HETATM    1  C   UNL     1       7.103  27.730  56.775  1.00  0.00     0.010 A 
HETATM    2  C   UNL     1       8.129  28.509  57.329  1.00  0.00     0.016 A 
HETATM    3  C   UNL     1       7.849  29.757  57.903  1.00  0.00     0.018 A 
HETATM    4  C   UNL     1       6.535  30.236  57.920  1.00  0.00     0.032 A 
HETATM    5  C   UNL     1       5.506  29.444  57.393  1.00  0.00     0.018 A 
HETATM    6  C   UNL     1       5.784  28.197  56.824  1.00  0.00     0.016 A 
ENDROOT
BRANCH   4   7
HETATM    7  C   UNL     1       6.164  31.557  58.508  1.00  0.00     0.256 C 
HETATM    8  N   UNL     1       6.020  31.577  59.884  1.00  0.00    -0.323 N 
HETATM    9  H   UNL     1       6.204  30.720  60.384  1.00  0.00     0.169 HD
HETATM   10  O   UNL     1       6.065  32.511  57.745  1.00  0.00    -0.267 OA
BRANCH   8  11
HETATM   11  C   UNL     1       5.769  32.708  60.694  1.00  0.00     0.035 A 
HETATM   12  C   UNL     1       4.663  33.543  60.553  1.00  0.00     0.032 A 
HETATM   13  C   UNL     1       4.515  34.684  61.357  1.00  0.00     0.032 A 
HETATM   14  C   UNL     1       5.468  35.005  62.321  1.00  0.00     0.034 A 
HETATM   15  C   UNL     1       6.563  34.150  62.486  1.00  0.00     0.032 A 
HETATM   16  C   UNL     1       6.712  33.013  61.681  1.00  0.00     0.032 A 
BRANCH  14  17
HETATM   17  N   UNL     1       5.417  36.156  63.132  1.00  0.00    -0.328 N 
HETATM   18  C   UNL     1       5.880  37.422  62.825  1.00  0.00     0.218 C 
HETATM   19  C   UNL     1       5.720  38.389  63.973  1.00  0.00     0.117 C 
HETATM   20  O   UNL     1       6.356  37.797  61.760  1.00  0.00    -0.274 OA
HETATM   21  H   UNL     1       5.014  36.030  64.052  1.00  0.00     0.169 HD
ENDBRANCH  14  17
ENDBRANCH   8  11
ENDBRANCH   4   7
BRANCH   1  22
HETATM   22  C   UNL     1       7.445  26.401  56.187  1.00  0.00     0.142 A 
HETATM   23  N   UNL     1       7.734  25.398  56.962  1.00  0.00    -0.222 NA
HETATM   24  C   UNL     1       8.009  24.232  56.319  1.00  0.00     0.116 A 
HETATM   25  C   UNL     1       8.026  24.018  54.957  1.00  0.00     0.075 A 
HETATM   26  S   UNL     1       8.378  22.814  57.182  1.00  0.00    -0.074 SA
HETATM   27  C   UNL     1       8.333  22.654  54.605  1.00  0.00    -0.027 A 
HETATM   28  C   UNL     1       7.734  25.157  54.111  1.00  0.00     0.260 A 
HETATM   29  C   UNL     1       8.542  21.892  55.749  1.00  0.00    -0.012 A 
HETATM   30  C   UNL     1       8.875  20.439  55.845  1.00  0.00     0.057 C 
HETATM   31  N   UNL     1       7.449  26.311  54.805  1.00  0.00    -0.307 N 
HETATM   32  O   UNL     1       7.735  25.137  52.883  1.00  0.00    -0.267 OA
HETATM   33  H   UNL     1       7.283  27.112  54.216  1.00  0.00     0.170 HD
BRANCH  27  34
HETATM   34  C   UNL     1       8.405  22.126  53.198  1.00  0.00     0.036 C 
HETATM   35  C   UNL     1       7.747  20.762  53.059  1.00  0.00     0.010 C 
ENDBRANCH  27  34
ENDBRANCH   1  22
TORSDOF 5
ENDMDL
MODEL 4
REMARK VINA RESULT:      -9.4      1.577      2.441
REMARK  5 active torsions:
REMARK  status: ('A' for Active; 'I' for Inactive)
REMARK    1  A    between atoms: C_2  and  C_3 
REMARK    2  A    between atoms: C_7  and  C_8 
REMARK    3  A    between atoms: C_11  and  C_12 
REMARK       I    between atoms: C_12  and  N_13 
REMARK    4  A    between atoms: N_13  and  C_14 
REMARK    5  A    between atoms: C_17  and  N_18 
REMARK       I    between atoms: N_18  and  C_19 
ROOT
HETATM    1  C   UNL     1       6.784  29.411  57.211  1.00  0.00     0.010 A 
HETATM    2  C   UNL     1       5.844  30.439  57.381  1.00  0.00     0.016 A 
HETATM    3  C   UNL     1       5.952  31.336  58.452  1.00  0.00     0.018 A 
HETATM    4  C   UNL     1       7.002  31.206  59.366  1.00  0.00     0.032 A 
HETATM    5  C   UNL     1       7.958  30.198  59.179  1.00  0.00     0.018 A 
HETATM    6  C   UNL     1       7.853  29.305  58.108  1.00  0.00     0.016 A 
ENDROOT
BRANCH   4   7
HETATM    7  C   UNL     1       7.176  32.121  60.533  1.00  0.00     0.256 C 
HETATM    8  N   UNL     1       6.308  31.913  61.589  1.00  0.00    -0.323 N 
HETATM    9  H   UNL     1       5.653  31.149  61.509  1.00  0.00     0.169 HD
HETATM   10  O   UNL     1       8.088  32.939  60.482  1.00  0.00    -0.267 OA
BRANCH   8  11
HETATM   11  C   UNL     1       6.321  32.570  62.840  1.00  0.00     0.035 A 
HETATM   12  C   UNL     1       5.329  33.447  63.275  1.00  0.00     0.032 A 
HETATM   13  C   UNL     1       5.445  34.109  64.507  1.00  0.00     0.032 A 
HETATM   14  C   UNL     1       6.549  33.900  65.329  1.00  0.00     0.034 A 
HETATM   15  C   UNL     1       7.530  32.994  64.909  1.00  0.00     0.032 A 
HETATM   16  C   UNL     1       7.417  32.336  63.678  1.00  0.00     0.032 A 
BRANCH  14  17
HETATM   17  N   UNL     1       6.761  34.562  66.555  1.00  0.00    -0.328 N 
HETATM   18  C   UNL     1       5.972  34.503  67.689  1.00  0.00     0.218 C 
HETATM   19  C   UNL     1       6.476  35.408  68.788  1.00  0.00     0.117 C 
HETATM   20  O   UNL     1       4.979  33.808  67.864  1.00  0.00    -0.274 OA
HETATM   21  H   UNL     1       7.574  35.164  66.596  1.00  0.00     0.169 HD
ENDBRANCH  14  17
ENDBRANCH   8  11
ENDBRANCH   4   7
BRANCH   1  22
HETATM   22  C   UNL     1       6.638  28.487  56.047  1.00  0.00     0.142 A 
HETATM   23  N   UNL     1       6.057  28.893  54.958  1.00  0.00    -0.222 NA
HETATM   24  C   UNL     1       5.999  27.975  53.958  1.00  0.00     0.116 A 
HETATM   25  C   UNL     1       6.471  26.680  53.990  1.00  0.00     0.075 A 
HETATM   26  S   UNL     1       5.299  28.351  52.455  1.00  0.00    -0.074 SA
HETATM   27  C   UNL     1       6.271  25.977  52.747  1.00  0.00    -0.027 A 
HETATM   28  C   UNL     1       7.085  26.237  55.225  1.00  0.00     0.260 A 
HETATM   29  C   UNL     1       5.638  26.797  51.821  1.00  0.00    -0.012 A 
HETATM   30  C   UNL     1       5.249  26.476  50.414  1.00  0.00     0.057 C 
HETATM   31  N   UNL     1       7.134  27.203  56.204  1.00  0.00    -0.307 N 
HETATM   32  O   UNL     1       7.530  25.109  55.421  1.00  0.00    -0.267 OA
HETATM   33  H   UNL     1       7.527  26.883  57.075  1.00  0.00     0.170 HD
BRANCH  27  34
HETATM   34  C   UNL     1       6.700  24.558  52.486  1.00  0.00     0.036 C 
HETATM   35  C   UNL     1       8.176  24.458  52.130  1.00  0.00     0.010 C 
ENDBRANCH  27  34
ENDBRANCH   1  22
TORSDOF 5
ENDMDL
MODEL 5
REMARK VINA RESULT:      -9.4      3.775     11.898
REMARK  5 active torsions:
REMARK  status: ('A' for Active; 'I' for Inactive)
REMARK    1  A    between atoms: C_2  and  C_3 
REMARK    2  A    between atoms: C_7  and  C_8 
REMARK    3  A    between atoms: C_11  and  C_12 
REMARK       I    between atoms: C_12  and  N_13 
REMARK    4  A    between atoms: N_13  and  C_14 
REMARK    5  A    between atoms: C_17  and  N_18 
REMARK       I    between atoms: N_18  and  C_19 
ROOT
HETATM    1  C   UNL     1       6.514  31.727  59.587  1.00  0.00     0.010 A 
HETATM    2  C   UNL     1       5.812  31.211  58.488  1.00  0.00     0.016 A 
HETATM    3  C   UNL     1       6.326  30.135  57.751  1.00  0.00     0.018 A 
HETATM    4  C   UNL     1       7.554  29.571  58.110  1.00  0.00     0.032 A 
HETATM    5  C   UNL     1       8.241  30.066  59.227  1.00  0.00     0.018 A 
HETATM    6  C   UNL     1       7.725  31.136  59.964  1.00  0.00     0.016 A 
ENDROOT
BRANCH   4   7
HETATM    7  C   UNL     1       8.166  28.428  57.369  1.00  0.00     0.256 C 
HETATM    8  N   UNL     1       7.435  27.253  57.376  1.00  0.00    -0.323 N 
HETATM    9  H   UNL     1       6.542  27.264  57.847  1.00  0.00     0.169 HD
HETATM   10  O   UNL     1       9.224  28.631  56.785  1.00  0.00    -0.267 OA
BRANCH   8  11
HETATM   11  C   UNL     1       7.738  26.062  56.679  1.00  0.00     0.035 A 
HETATM   12  C   UNL     1       8.483  25.011  57.210  1.00  0.00     0.032 A 
HETATM   13  C   UNL     1       8.794  23.885  56.432  1.00  0.00     0.032 A 
HETATM   14  C   UNL     1       8.358  23.787  55.113  1.00  0.00     0.034 A 
HETATM   15  C   UNL     1       7.582  24.826  54.589  1.00  0.00     0.032 A 
HETATM   16  C   UNL     1       7.274  25.952  55.364  1.00  0.00     0.032 A 
BRANCH  14  17
HETATM   17  N   UNL     1       8.669  22.713  54.254  1.00  0.00    -0.328 N 
HETATM   18  C   UNL     1       8.252  21.400  54.366  1.00  0.00     0.218 C 
HETATM   19  C   UNL     1       8.848  20.514  53.298  1.00  0.00     0.117 C 
HETATM   20  O   UNL     1       7.475  20.938  55.192  1.00  0.00    -0.274 OA
HETATM   21  H   UNL     1       9.286  22.931  53.481  1.00  0.00     0.169 HD
ENDBRANCH  14  17
ENDBRANCH   8  11
ENDBRANCH   4   7
BRANCH   1  22
HETATM   22  C   UNL     1       5.921  32.864  60.352  1.00  0.00     0.142 A 
HETATM   23  N   UNL     1       6.254  33.064  61.592  1.00  0.00    -0.222 NA
HETATM   24  C   UNL     1       5.669  34.139  62.182  1.00  0.00     0.116 A 
HETATM   25  C   UNL     1       4.765  35.010  61.611  1.00  0.00     0.075 A 
HETATM   26  S   UNL     1       6.018  34.561  63.791  1.00  0.00    -0.074 SA
HETATM   27  C   UNL     1       4.355  36.062  62.507  1.00  0.00    -0.027 A 
HETATM   28  C   UNL     1       4.381  34.750  60.239  1.00  0.00     0.260 A 
HETATM   29  C   UNL     1       4.983  35.925  63.739  1.00  0.00    -0.012 A 
HETATM   30  C   UNL     1       4.854  36.794  64.947  1.00  0.00     0.057 C 
HETATM   31  N   UNL     1       5.008  33.660  59.679  1.00  0.00    -0.307 N 
HETATM   32  O   UNL     1       3.570  35.415  59.600  1.00  0.00    -0.267 OA
HETATM   33  H   UNL     1       4.713  33.457  58.737  1.00  0.00     0.170 HD
BRANCH  27  34
HETATM   34  C   UNL     1       3.393  37.164  62.153  1.00  0.00     0.036 C 
HETATM   35  C   UNL     1       4.102  38.403  61.628  1.00  0.00     0.010 C 
ENDBRANCH  27  34
ENDBRANCH   1  22
TORSDOF 5
ENDMDL
MODEL 6
REMARK VINA RESULT:      -9.3      3.448     12.040
REMARK  5 active torsions:
REMARK  status: ('A' for Active; 'I' for Inactive)
REMARK    1  A    between atoms: C_2  and  C_3 
REMARK    2  A    between atoms: C_7  and  C_8 
REMARK    3  A    between atoms: C_11  and  C_12 
REMARK       I    between atoms: C_12  and  N_13 
REMARK    4  A    between atoms: N_13  and  C_14 
REMARK    5  A    between atoms: C_17  and  N_18 
REMARK       I    between atoms: N_18  and  C_19 
ROOT
HETATM    1  C   UNL     1       6.782  31.468  59.480  1.00  0.00     0.010 A 
HETATM    2  C   UNL     1       7.991  30.808  59.749  1.00  0.00     0.016 A 
HETATM    3  C   UNL     1       8.447  29.781  58.911  1.00  0.00     0.018 A 
HETATM    4  C   UNL     1       7.690  29.402  57.798  1.00  0.00     0.032 A 
HETATM    5  C   UNL     1       6.497  30.081  57.513  1.00  0.00     0.018 A 
HETATM    6  C   UNL     1       6.045  31.109  58.345  1.00  0.00     0.016 A 
ENDROOT
BRANCH   4   7
HETATM    7  C   UNL     1       8.110  28.314  56.867  1.00  0.00     0.256 C 
HETATM    8  N   UNL     1       7.680  27.042  57.202  1.00  0.00    -0.323 N 
HETATM    9  H   UNL     1       7.096  26.950  58.020  1.00  0.00     0.169 HD
HETATM   10  O   UNL     1       8.752  28.634  55.873  1.00  0.00    -0.267 OA
BRANCH   8  11
HETATM   11  C   UNL     1       7.856  25.861  56.448  1.00  0.00     0.035 A 
HETATM   12  C   UNL     1       8.599  24.762  56.874  1.00  0.00     0.032 A 
HETATM   13  C   UNL     1       8.778  23.647  56.040  1.00  0.00     0.032 A 
HETATM   14  C   UNL     1       8.212  23.610  54.768  1.00  0.00     0.034 A 
HETATM   15  C   UNL     1       7.439  24.699  54.351  1.00  0.00     0.032 A 
HETATM   16  C   UNL     1       7.263  25.813  55.182  1.00  0.00     0.032 A 
BRANCH  14  17
HETATM   17  N   UNL     1       8.387  22.551  53.855  1.00  0.00    -0.328 N 
HETATM   18  C   UNL     1       8.112  21.211  54.059  1.00  0.00     0.218 C 
HETATM   19  C   UNL     1       8.497  20.357  52.874  1.00  0.00     0.117 C 
HETATM   20  O   UNL     1       7.597  20.704  55.048  1.00  0.00    -0.274 OA
HETATM   21  H   UNL     1       8.777  22.804  52.956  1.00  0.00     0.169 HD
ENDBRANCH  14  17
ENDBRANCH   8  11
ENDBRANCH   4   7
BRANCH   1  22
HETATM   22  C   UNL     1       6.343  32.566  60.390  1.00  0.00     0.142 A 
HETATM   23  N   UNL     1       5.448  33.423  59.997  1.00  0.00    -0.222 NA
HETATM   24  C   UNL     1       5.110  34.366  60.915  1.00  0.00     0.116 A 
HETATM   25  C   UNL     1       5.621  34.509  62.187  1.00  0.00     0.075 A 
HETATM   26  S   UNL     1       3.933  35.546  60.575  1.00  0.00    -0.074 SA
HETATM   27  C   UNL     1       5.026  35.603  62.914  1.00  0.00    -0.027 A 
HETATM   28  C   UNL     1       6.641  33.564  62.593  1.00  0.00     0.260 A 
HETATM   29  C   UNL     1       4.076  36.248  62.130  1.00  0.00    -0.012 A 
HETATM   30  C   UNL     1       3.221  37.419  62.489  1.00  0.00     0.057 C 
HETATM   31  N   UNL     1       6.942  32.620  61.638  1.00  0.00    -0.307 N 
HETATM   32  O   UNL     1       7.212  33.573  63.680  1.00  0.00    -0.267 OA
HETATM   33  H   UNL     1       7.678  31.986  61.906  1.00  0.00     0.170 HD
BRANCH  27  34
HETATM   34  C   UNL     1       5.375  35.985  64.327  1.00  0.00     0.036 C 
HETATM   35  C   UNL     1       4.476  35.302  65.348  1.00  0.00     0.010 C 
ENDBRANCH  27  34
ENDBRANCH   1  22
TORSDOF 5
ENDMDL
MODEL 7
REMARK VINA RESULT:      -9.0      4.259      5.037
REMARK  5 active torsions:
REMARK  status: ('A' for Active; 'I' for Inactive)
REMARK    1  A    between atoms: C_2  and  C_3 
REMARK    2  A    between atoms: C_7  and  C_8 
REMARK    3  A    between atoms: C_11  and  C_12 
REMARK       I    between atoms: C_12  and  N_13 
REMARK    4  A    between atoms: N_13  and  C_14 
REMARK    5  A    between atoms: C_17  and  N_18 
REMARK       I    between atoms: N_18  and  C_19 
ROOT
HETATM    1  C   UNL     1       6.153  27.149  56.158  1.00  0.00     0.010 A 
HETATM    2  C   UNL     1       6.795  27.980  57.088  1.00  0.00     0.016 A 
HETATM    3  C   UNL     1       6.194  29.172  57.517  1.00  0.00     0.018 A 
HETATM    4  C   UNL     1       4.944  29.542  57.011  1.00  0.00     0.032 A 
HETATM    5  C   UNL     1       4.289  28.696  56.105  1.00  0.00     0.018 A 
HETATM    6  C   UNL     1       4.887  27.505  55.681  1.00  0.00     0.016 A 
ENDROOT
BRANCH   4   7
HETATM    7  C   UNL     1       4.247  30.798  57.418  1.00  0.00     0.256 C 
HETATM    8  N   UNL     1       5.071  31.876  57.688  1.00  0.00    -0.323 N 
HETATM    9  H   UNL     1       6.064  31.746  57.562  1.00  0.00     0.169 HD
HETATM   10  O   UNL     1       3.022  30.787  57.434  1.00  0.00    -0.267 OA
BRANCH   8  11
HETATM   11  C   UNL     1       4.668  33.195  57.998  1.00  0.00     0.035 A 
HETATM   12  C   UNL     1       4.659  34.246  57.084  1.00  0.00     0.032 A 
HETATM   13  C   UNL     1       4.303  35.544  57.484  1.00  0.00     0.032 A 
HETATM   14  C   UNL     1       3.944  35.810  58.803  1.00  0.00     0.034 A 
HETATM   15  C   UNL     1       3.922  34.749  59.715  1.00  0.00     0.032 A 
HETATM   16  C   UNL     1       4.279  33.455  59.316  1.00  0.00     0.032 A 
BRANCH  14  17
HETATM   17  N   UNL     1       3.623  37.092  59.292  1.00  0.00    -0.328 N 
HETATM   18  C   UNL     1       2.362  37.608  59.533  1.00  0.00     0.218 C 
HETATM   19  C   UNL     1       2.406  39.048  59.987  1.00  0.00     0.117 C 
HETATM   20  O   UNL     1       1.292  37.021  59.433  1.00  0.00    -0.274 OA
HETATM   21  H   UNL     1       4.407  37.708  59.466  1.00  0.00     0.169 HD
ENDBRANCH  14  17
ENDBRANCH   8  11
ENDBRANCH   4   7
BRANCH   1  22
HETATM   22  C   UNL     1       6.824  25.882  55.741  1.00  0.00     0.142 A 
HETATM   23  N   UNL     1       7.176  25.004  56.632  1.00  0.00    -0.222 NA
HETATM   24  C   UNL     1       7.760  23.881  56.137  1.00  0.00     0.116 A 
HETATM   25  C   UNL     1       8.022  23.595  54.814  1.00  0.00     0.075 A 
HETATM   26  S   UNL     1       8.254  22.618  57.162  1.00  0.00    -0.074 SA
HETATM   27  C   UNL     1       8.630  22.301  54.627  1.00  0.00    -0.027 A 
HETATM   28  C   UNL     1       7.652  24.601  53.840  1.00  0.00     0.260 A 
HETATM   29  C   UNL     1       8.804  21.664  55.851  1.00  0.00    -0.012 A 
HETATM   30  C   UNL     1       9.386  20.314  56.118  1.00  0.00     0.057 C 
HETATM   31  N   UNL     1       7.053  25.714  54.385  1.00  0.00    -0.307 N 
HETATM   32  O   UNL     1       7.841  24.509  52.631  1.00  0.00    -0.267 OA
HETATM   33  H   UNL     1       6.830  26.430  53.712  1.00  0.00     0.170 HD
BRANCH  27  34
HETATM   34  C   UNL     1       9.011  21.716  53.294  1.00  0.00     0.036 C 
HETATM   35  C   UNL     1       7.988  20.707  52.794  1.00  0.00     0.010 C 
ENDBRANCH  27  34
ENDBRANCH   1  22
TORSDOF 5
ENDMDL
MODEL 8
REMARK VINA RESULT:      -9.0      4.260      5.162
REMARK  5 active torsions:
REMARK  status: ('A' for Active; 'I' for Inactive)
REMARK    1  A    between atoms: C_2  and  C_3 
REMARK    2  A    between atoms: C_7  and  C_8 
REMARK    3  A    between atoms: C_11  and  C_12 
REMARK       I    between atoms: C_12  and  N_13 
REMARK    4  A    between atoms: N_13  and  C_14 
REMARK    5  A    between atoms: C_17  and  N_18 
REMARK       I    between atoms: N_18  and  C_19 
ROOT
HETATM    1  C   UNL     1       7.251  27.515  56.665  1.00  0.00     0.010 A 
HETATM    2  C   UNL     1       6.345  28.292  55.927  1.00  0.00     0.016 A 
HETATM    3  C   UNL     1       6.072  29.617  56.297  1.00  0.00     0.018 A 
HETATM    4  C   UNL     1       6.702  30.171  57.415  1.00  0.00     0.032 A 
HETATM    5  C   UNL     1       7.630  29.404  58.135  1.00  0.00     0.018 A 
HETATM    6  C   UNL     1       7.906  28.085  57.763  1.00  0.00     0.016 A 
ENDROOT
BRANCH   4   7
HETATM    7  C   UNL     1       6.456  31.571  57.871  1.00  0.00     0.256 C 
HETATM    8  N   UNL     1       5.317  32.171  57.365  1.00  0.00    -0.323 N 
HETATM    9  H   UNL     1       4.728  31.616  56.761  1.00  0.00     0.169 HD
HETATM   10  O   UNL     1       7.243  32.052  58.678  1.00  0.00    -0.267 OA
BRANCH   8  11
HETATM   11  C   UNL     1       4.805  33.443  57.706  1.00  0.00     0.035 A 
HETATM   12  C   UNL     1       4.679  34.503  56.810  1.00  0.00     0.032 A 
HETATM   13  C   UNL     1       4.219  35.758  57.241  1.00  0.00     0.032 A 
HETATM   14  C   UNL     1       3.871  35.971  58.572  1.00  0.00     0.034 A 
HETATM   15  C   UNL     1       3.966  34.900  59.466  1.00  0.00     0.032 A 
HETATM   16  C   UNL     1       4.428  33.648  59.038  1.00  0.00     0.032 A 
BRANCH  14  17
HETATM   17  N   UNL     1       3.448  37.212  59.090  1.00  0.00    -0.328 N 
HETATM   18  C   UNL     1       2.159  37.590  59.419  1.00  0.00     0.218 C 
HETATM   19  C   UNL     1       2.079  39.026  59.878  1.00  0.00     0.117 C 
HETATM   20  O   UNL     1       1.153  36.892  59.388  1.00  0.00    -0.274 OA
HETATM   21  H   UNL     1       4.172  37.908  59.214  1.00  0.00     0.169 HD
ENDBRANCH  14  17
ENDBRANCH   8  11
ENDBRANCH   4   7
BRANCH   1  22
HETATM   22  C   UNL     1       7.522  26.115  56.226  1.00  0.00     0.142 A 
HETATM   23  N   UNL     1       7.320  25.765  54.991  1.00  0.00    -0.222 NA
HETATM   24  C   UNL     1       7.620  24.472  54.700  1.00  0.00     0.116 A 
HETATM   25  C   UNL     1       8.092  23.512  55.570  1.00  0.00     0.075 A 
HETATM   26  S   UNL     1       7.443  23.858  53.124  1.00  0.00    -0.074 SA
HETATM   27  C   UNL     1       8.332  22.242  54.932  1.00  0.00    -0.027 A 
HETATM   28  C   UNL     1       8.279  23.914  56.950  1.00  0.00     0.260 A 
HETATM   29  C   UNL     1       8.016  22.310  53.580  1.00  0.00    -0.012 A 
HETATM   30  C   UNL     1       8.120  21.233  52.550  1.00  0.00     0.057 C 
HETATM   31  N   UNL     1       7.976  25.234  57.194  1.00  0.00    -0.307 N 
HETATM   32  O   UNL     1       8.666  23.173  57.849  1.00  0.00    -0.267 OA
HETATM   33  H   UNL     1       8.069  25.502  58.161  1.00  0.00     0.170 HD
BRANCH  27  34
HETATM   34  C   UNL     1       8.864  21.019  55.628  1.00  0.00     0.036 C 
HETATM   35  C   UNL     1       7.754  20.167  56.226  1.00  0.00     0.010 C 
ENDBRANCH  27  34
ENDBRANCH   1  22
TORSDOF 5
ENDMDL
MODEL 9
REMARK VINA RESULT:      -8.7      2.722      4.353
REMARK  5 active torsions:
REMARK  status: ('A' for Active; 'I' for Inactive)
REMARK    1  A    between atoms: C_2  and  C_3 
REMARK    2  A    between atoms: C_7  and  C_8 
REMARK    3  A    between atoms: C_11  and  C_12 
REMARK       I    between atoms: C_12  and  N_13 
REMARK    4  A    between atoms: N_13  and  C_14 
REMARK    5  A    between atoms: C_17  and  N_18 
REMARK       I    between atoms: N_18  and  C_19 
ROOT
HETATM    1  C   UNL     1       6.254  31.720  59.444  1.00  0.00     0.010 A 
HETATM    2  C   UNL     1       5.205  32.637  59.613  1.00  0.00     0.016 A 
HETATM    3  C   UNL     1       5.106  33.403  60.782  1.00  0.00     0.018 A 
HETATM    4  C   UNL     1       6.057  33.252  61.796  1.00  0.00     0.032 A 
HETATM    5  C   UNL     1       7.122  32.358  61.615  1.00  0.00     0.018 A 
HETATM    6  C   UNL     1       7.223  31.597  60.446  1.00  0.00     0.016 A 
ENDROOT
BRANCH   4   7
HETATM    7  C   UNL     1       6.012  34.029  63.070  1.00  0.00     0.256 C 
HETATM    8  N   UNL     1       5.842  33.280  64.220  1.00  0.00    -0.323 N 
HETATM    9  H   UNL     1       5.795  32.277  64.119  1.00  0.00     0.169 HD
HETATM   10  O   UNL     1       6.173  35.242  63.000  1.00  0.00    -0.267 OA
BRANCH   8  11
HETATM   11  C   UNL     1       5.861  33.753  65.551  1.00  0.00     0.035 A 
HETATM   12  C   UNL     1       7.023  34.042  66.265  1.00  0.00     0.032 A 
HETATM   13  C   UNL     1       6.960  34.450  67.606  1.00  0.00     0.032 A 
HETATM   14  C   UNL     1       5.736  34.584  68.255  1.00  0.00     0.034 A 
HETATM   15  C   UNL     1       4.566  34.326  67.531  1.00  0.00     0.032 A 
HETATM   16  C   UNL     1       4.628  33.915  66.193  1.00  0.00     0.032 A 
BRANCH  14  17
HETATM   17  N   UNL     1       5.592  34.941  69.611  1.00  0.00    -0.328 N 
HETATM   18  C   UNL     1       6.046  34.244  70.716  1.00  0.00     0.218 C 
HETATM   19  C   UNL     1       5.641  34.898  72.015  1.00  0.00     0.117 C 
HETATM   20  O   UNL     1       6.720  33.221  70.720  1.00  0.00    -0.274 OA
HETATM   21  H   UNL     1       5.080  35.795  69.790  1.00  0.00     0.169 HD
ENDBRANCH  14  17
ENDBRANCH   8  11
ENDBRANCH   4   7
BRANCH   1  22
HETATM   22  C   UNL     1       6.327  30.936  58.176  1.00  0.00     0.142 A 
HETATM   23  N   UNL     1       5.291  30.852  57.397  1.00  0.00    -0.222 NA
HETATM   24  C   UNL     1       5.478  30.130  56.261  1.00  0.00     0.116 A 
HETATM   25  C   UNL     1       6.629  29.480  55.871  1.00  0.00     0.075 A 
HETATM   26  S   UNL     1       4.235  29.946  55.117  1.00  0.00    -0.074 SA
HETATM   27  C   UNL     1       6.500  28.824  54.593  1.00  0.00    -0.027 A 
HETATM   28  C   UNL     1       7.763  29.557  56.770  1.00  0.00     0.260 A 
HETATM   29  C   UNL     1       5.225  29.014  54.076  1.00  0.00    -0.012 A 
HETATM   30  C   UNL     1       4.666  28.517  52.782  1.00  0.00     0.057 C 
HETATM   31  N   UNL     1       7.531  30.309  57.899  1.00  0.00    -0.307 N 
HETATM   32  O   UNL     1       8.847  29.013  56.579  1.00  0.00    -0.267 OA
HETATM   33  H   UNL     1       8.307  30.331  58.542  1.00  0.00     0.170 HD
BRANCH  27  34
HETATM   34  C   UNL     1       7.597  28.052  53.910  1.00  0.00     0.036 C 
HETATM   35  C   UNL     1       7.483  26.554  54.148  1.00  0.00     0.010 C 
ENDBRANCH  27  34
ENDBRANCH   1  22
TORSDOF 5
ENDMDL
MODEL 10
REMARK VINA RESULT:      -8.6      3.913     12.073
REMARK  5 active torsions:
REMARK  status: ('A' for Active; 'I' for Inactive)
REMARK    1  A    between atoms: C_2  and  C_3 
REMARK    2  A    between atoms: C_7  and  C_8 
REMARK    3  A    between atoms: C_11  and  C_12 
REMARK       I    between atoms: C_12  and  N_13 
REMARK    4  A    between atoms: N_13  and  C_14 
REMARK    5  A    between atoms: C_17  and  N_18 
REMARK       I    between atoms: N_18  and  C_19 
ROOT
HETATM    1  C   UNL     1       5.827  31.940  58.319  1.00  0.00     0.010 A 
HETATM    2  C   UNL     1       5.281  31.544  57.088  1.00  0.00     0.016 A 
HETATM    3  C   UNL     1       5.797  30.438  56.399  1.00  0.00     0.018 A 
HETATM    4  C   UNL     1       6.871  29.722  56.937  1.00  0.00     0.032 A 
HETATM    5  C   UNL     1       7.397  30.099  58.181  1.00  0.00     0.018 A 
HETATM    6  C   UNL     1       6.880  31.200  58.870  1.00  0.00     0.016 A 
ENDROOT
BRANCH   4   7
HETATM    7  C   UNL     1       7.475  28.538  56.257  1.00  0.00     0.256 C 
HETATM    8  N   UNL     1       6.618  27.474  56.040  1.00  0.00    -0.323 N 
HETATM    9  H   UNL     1       5.656  27.587  56.323  1.00  0.00     0.169 HD
HETATM   10  O   UNL     1       8.648  28.620  55.910  1.00  0.00    -0.267 OA
BRANCH   8  11
HETATM   11  C   UNL     1       6.907  26.282  55.338  1.00  0.00     0.035 A 
HETATM   12  C   UNL     1       7.248  26.230  53.988  1.00  0.00     0.032 A 
HETATM   13  C   UNL     1       7.461  25.000  53.346  1.00  0.00     0.032 A 
HETATM   14  C   UNL     1       7.343  23.802  54.045  1.00  0.00     0.034 A 
HETATM   15  C   UNL     1       7.032  23.853  55.408  1.00  0.00     0.032 A 
HETATM   16  C   UNL     1       6.816  25.080  56.048  1.00  0.00     0.032 A 
BRANCH  14  17
HETATM   17  N   UNL     1       7.492  22.527  53.462  1.00  0.00    -0.328 N 
HETATM   18  C   UNL     1       8.551  21.651  53.617  1.00  0.00     0.218 C 
HETATM   19  C   UNL     1       8.396  20.406  52.777  1.00  0.00     0.117 C 
HETATM   20  O   UNL     1       9.524  21.789  54.348  1.00  0.00    -0.274 OA
HETATM   21  H   UNL     1       6.746  22.234  52.844  1.00  0.00     0.169 HD
ENDBRANCH  14  17
ENDBRANCH   8  11
ENDBRANCH   4   7
BRANCH   1  22
HETATM   22  C   UNL     1       5.237  33.115  59.024  1.00  0.00     0.142 A 
HETATM   23  N   UNL     1       4.704  34.087  58.345  1.00  0.00    -0.222 NA
HETATM   24  C   UNL     1       4.180  35.094  59.092  1.00  0.00     0.116 A 
HETATM   25  C   UNL     1       4.171  35.192  60.466  1.00  0.00     0.075 A 
HETATM   26  S   UNL     1       3.418  36.428  58.363  1.00  0.00    -0.074 SA
HETATM   27  C   UNL     1       3.510  36.381  60.943  1.00  0.00    -0.027 A 
HETATM   28  C   UNL     1       4.800  34.114  61.204  1.00  0.00     0.260 A 
HETATM   29  C   UNL     1       3.048  37.141  59.875  1.00  0.00    -0.012 A 
HETATM   30  C   UNL     1       2.306  38.437  59.913  1.00  0.00     0.057 C 
HETATM   31  N   UNL     1       5.304  33.111  60.408  1.00  0.00    -0.307 N 
HETATM   32  O   UNL     1       4.897  34.066  62.427  1.00  0.00    -0.267 OA
HETATM   33  H   UNL     1       5.775  32.381  60.919  1.00  0.00     0.170 HD
BRANCH  27  34
HETATM   34  C   UNL     1       3.334  36.743  62.393  1.00  0.00     0.036 C 
HETATM   35  C   UNL     1       4.509  37.544  62.935  1.00  0.00     0.010 C 
ENDBRANCH  27  34
ENDBRANCH   1  22
TORSDOF 5
ENDMDL
