MODEL 1
REMARK VINA RESULT:      -9.2      0.000      0.000
REMARK  7 active torsions:
REMARK  status: ('A' for Active; 'I' for Inactive)
REMARK    1  A    between atoms: C_2  and  C_3 
REMARK    2  A    between atoms: C_3  and  N_4 
REMARK    3  A    between atoms: C_3  and  C_15 
REMARK       I    between atoms: N_4  and  C_5 
REMARK    4  A    between atoms: C_5  and  C_6 
REMARK    5  A    between atoms: C_9  and  O_10 
REMARK    6  A    between atoms: C_15  and  N_16 
REMARK    7  A    between atoms: C_18  and  C_19 
ROOT
HETATM    1  C   UNL     1       7.390  28.090  56.178  1.00  0.00     0.107 C 
ENDROOT
BRANCH   1   2
HETATM    2  C   UNL     1       6.320  29.205  56.335  1.00  0.00     0.002 C 
HETATM    3  C   UNL     1       5.301  28.922  57.444  1.00  0.00     0.011 C 
HETATM    4  C   UNL     1       5.582  29.487  55.022  1.00  0.00     0.011 C 
ENDBRANCH   1   2
BRANCH   1   5
HETATM    5  N   UNL     1       6.796  26.810  55.778  1.00  0.00    -0.354 N 
HETATM    6  C   UNL     1       7.020  26.224  54.552  1.00  0.00     0.222 C 
HETATM    7  O   UNL     1       7.658  26.769  53.657  1.00  0.00    -0.273 OA
HETATM    8  H   UNL     1       6.435  26.215  56.523  1.00  0.00     0.162 HD
BRANCH   6   9
HETATM    9  C   UNL     1       6.424  24.819  54.428  1.00  0.00     0.078 C 
HETATM   10  C   UNL     1       6.571  24.253  53.009  1.00  0.00     0.016 C 
HETATM   11  C   UNL     1       7.992  23.769  52.709  1.00  0.00     0.033 C 
HETATM   12  C   UNL     1       8.484  22.754  53.744  1.00  0.00     0.120 C 
HETATM   13  C   UNL     1       8.403  23.359  55.148  1.00  0.00     0.033 C 
HETATM   14  C   UNL     1       6.993  23.855  55.481  1.00  0.00     0.016 C 
BRANCH  12  15
HETATM   15  O   UNL     1       7.660  21.587  53.622  1.00  0.00    -0.391 OA
HETATM   16  C   UNL     1       8.274  20.525  52.905  1.00  0.00     0.202 C 
ENDBRANCH  12  15
ENDBRANCH   6   9
ENDBRANCH   1   5
BRANCH   1  17
HETATM   17  C   UNL     1       8.219  27.929  57.478  1.00  0.00     0.180 C 
BRANCH  17  18
HETATM   18  N   UNL     1       8.878  29.172  57.881  1.00  0.00    -0.232 N 
HETATM   19  N   UNL     1       8.398  29.765  59.028  1.00  0.00    -0.168 NA
HETATM   20  C   UNL     1       8.907  30.902  59.408  1.00  0.00     0.094 A 
HETATM   21  C   UNL     1       9.984  31.585  58.648  1.00  0.00     0.040 A 
HETATM   22  C   UNL     1      10.426  31.004  57.532  1.00  0.00     0.078 A 
HETATM   23  C   UNL     1       9.857  29.726  57.069  1.00  0.00     0.263 A 
HETATM   24  O   UNL     1      10.253  29.236  56.013  1.00  0.00    -0.267 OA
BRANCH  20  25
HETATM   25  C   UNL     1       8.364  31.493  60.632  1.00  0.00     0.035 A 
HETATM   26  S   UNL     1       6.807  32.210  60.711  1.00  0.00    -0.100 SA
HETATM   27  C   UNL     1       6.981  32.607  62.362  1.00  0.00     0.050 A 
HETATM   28  C   UNL     1       8.200  32.210  62.860  1.00  0.00     0.008 A 
HETATM   29  C   UNL     1       8.994  31.571  61.865  1.00  0.00     0.022 A 
ENDBRANCH  20  25
ENDBRANCH  17  18
ENDBRANCH   1  17
TORSDOF 7
ENDMDL
MODEL 2
REMARK VINA RESULT:      -9.0      3.106      9.061
REMARK  7 active torsions:
REMARK  status: ('A' for Active; 'I' for Inactive)
REMARK    1  A    between atoms: C_2  and  C_3 
REMARK    2  A    between atoms: C_3  and  N_4 
REMARK    3  A    between atoms: C_3  and  C_15 
REMARK       I    between atoms: N_4  and  C_5 
REMARK    4  A    between atoms: C_5  and  C_6 
REMARK    5  A    between atoms: C_9  and  O_10 
REMARK    6  A    between atoms: C_15  and  N_16 
REMARK    7  A    between atoms: C_18  and  C_19 
ROOT
HETATM    1  C   UNL     1       8.669  29.679  57.601  1.00  0.00     0.107 C 
ENDROOT
BRANCH   1   2
HETATM    2  C   UNL     1       9.920  29.195  56.818  1.00  0.00     0.002 C 
HETATM    3  C   UNL     1      11.218  29.878  57.259  1.00  0.00     0.011 C 
HETATM    4  C   UNL     1       9.750  29.350  55.303  1.00  0.00     0.011 C 
ENDBRANCH   1   2
BRANCH   1   5
HETATM    5  N   UNL     1       9.006  30.701  58.598  1.00  0.00    -0.354 N 
HETATM    6  C   UNL     1       8.126  31.684  58.997  1.00  0.00     0.222 C 
HETATM    7  O   UNL     1       7.024  31.843  58.486  1.00  0.00    -0.273 OA
HETATM    8  H   UNL     1       9.804  30.513  59.202  1.00  0.00     0.162 HD
BRANCH   6   9
HETATM    9  C   UNL     1       8.648  32.532  60.161  1.00  0.00     0.078 C 
HETATM   10  C   UNL     1       7.510  33.231  60.920  1.00  0.00     0.016 C 
HETATM   11  C   UNL     1       6.745  32.280  61.845  1.00  0.00     0.033 C 
HETATM   12  C   UNL     1       7.675  31.555  62.821  1.00  0.00     0.120 C 
HETATM   13  C   UNL     1       8.759  30.801  62.047  1.00  0.00     0.033 C 
HETATM   14  C   UNL     1       9.545  31.723  61.110  1.00  0.00     0.016 C 
BRANCH  12  15
HETATM   15  O   UNL     1       8.237  32.546  63.690  1.00  0.00    -0.391 OA
HETATM   16  C   UNL     1       7.301  33.106  64.601  1.00  0.00     0.202 C 
ENDBRANCH  12  15
ENDBRANCH   6   9
ENDBRANCH   1   5
BRANCH   1  17
HETATM   17  C   UNL     1       7.932  28.488  58.263  1.00  0.00     0.180 C 
BRANCH  17  18
HETATM   18  N   UNL     1       7.073  27.766  57.323  1.00  0.00    -0.232 N 
HETATM   19  N   UNL     1       7.626  26.650  56.734  1.00  0.00    -0.168 NA
HETATM   20  C   UNL     1       6.932  25.998  55.847  1.00  0.00     0.094 A 
HETATM   21  C   UNL     1       5.565  26.413  55.443  1.00  0.00     0.040 A 
HETATM   22  C   UNL     1       5.050  27.505  56.012  1.00  0.00     0.078 A 
HETATM   23  C   UNL     1       5.821  28.272  57.007  1.00  0.00     0.263 A 
HETATM   24  O   UNL     1       5.340  29.299  57.482  1.00  0.00    -0.267 OA
BRANCH  20  25
HETATM   25  C   UNL     1       7.562  24.820  55.250  1.00  0.00     0.035 A 
HETATM   26  S   UNL     1       8.524  23.719  56.149  1.00  0.00    -0.100 SA
HETATM   27  C   UNL     1       8.832  22.741  54.785  1.00  0.00     0.050 A 
HETATM   28  C   UNL     1       8.222  23.231  53.653  1.00  0.00     0.008 A 
HETATM   29  C   UNL     1       7.495  24.426  53.921  1.00  0.00     0.022 A 
ENDBRANCH  20  25
ENDBRANCH  17  18
ENDBRANCH   1  17
TORSDOF 7
ENDMDL
MODEL 3
REMARK VINA RESULT:      -8.9      2.713      5.494
REMARK  7 active torsions:
REMARK  status: ('A' for Active; 'I' for Inactive)
REMARK    1  A    between atoms: C_2  and  C_3 
REMARK    2  A    between atoms: C_3  and  N_4 
REMARK    3  A    between atoms: C_3  and  C_15 
REMARK       I    between atoms: N_4  and  C_5 
REMARK    4  A    between atoms: C_5  and  C_6 
REMARK    5  A    between atoms: C_9  and  O_10 
REMARK    6  A    between atoms: C_15  and  N_16 
REMARK    7  A    between atoms: C_18  and  C_19 
ROOT
HETATM    1  C   UNL     1       7.794  23.556  55.807  1.00  0.00     0.107 C 
ENDROOT
BRANCH   1   2
HETATM    2  C   UNL     1       8.716  22.309  55.714  1.00  0.00     0.002 C 
HETATM    3  C   UNL     1       8.859  21.760  54.291  1.00  0.00     0.011 C 
HETATM    4  C   UNL     1       8.263  21.185  56.652  1.00  0.00     0.011 C 
ENDBRANCH   1   2
BRANCH   1   5
HETATM    5  N   UNL     1       8.032  24.498  54.708  1.00  0.00    -0.354 N 
HETATM    6  C   UNL     1       7.055  24.874  53.812  1.00  0.00     0.222 C 
HETATM    7  O   UNL     1       5.933  24.381  53.800  1.00  0.00    -0.273 OA
HETATM    8  H   UNL     1       8.857  25.092  54.779  1.00  0.00     0.162 HD
BRANCH   6   9
HETATM    9  C   UNL     1       7.498  25.988  52.858  1.00  0.00     0.078 C 
HETATM   10  C   UNL     1       6.596  26.078  51.620  1.00  0.00     0.016 C 
HETATM   11  C   UNL     1       5.253  26.751  51.915  1.00  0.00     0.033 C 
HETATM   12  C   UNL     1       5.429  28.132  52.553  1.00  0.00     0.120 C 
HETATM   13  C   UNL     1       6.267  28.014  53.828  1.00  0.00     0.033 C 
HETATM   14  C   UNL     1       7.619  27.344  53.569  1.00  0.00     0.016 C 
BRANCH  12  15
HETATM   15  O   UNL     1       6.060  28.974  51.580  1.00  0.00    -0.391 OA
HETATM   16  C   UNL     1       5.195  29.379  50.528  1.00  0.00     0.202 C 
ENDBRANCH  12  15
ENDBRANCH   6   9
ENDBRANCH   1   5
BRANCH   1  17
HETATM   17  C   UNL     1       7.948  24.260  57.179  1.00  0.00     0.180 C 
BRANCH  17  18
HETATM   18  N   UNL     1       7.384  25.610  57.184  1.00  0.00    -0.232 N 
HETATM   19  N   UNL     1       8.289  26.641  57.307  1.00  0.00    -0.168 NA
HETATM   20  C   UNL     1       7.844  27.864  57.374  1.00  0.00     0.094 A 
HETATM   21  C   UNL     1       6.396  28.187  57.325  1.00  0.00     0.040 A 
HETATM   22  C   UNL     1       5.533  27.175  57.221  1.00  0.00     0.078 A 
HETATM   23  C   UNL     1       6.008  25.781  57.161  1.00  0.00     0.263 A 
HETATM   24  O   UNL     1       5.188  24.866  57.110  1.00  0.00    -0.267 OA
BRANCH  20  25
HETATM   25  C   UNL     1       8.844  28.924  57.505  1.00  0.00     0.035 A 
HETATM   26  S   UNL     1       8.645  30.272  58.548  1.00  0.00    -0.100 SA
HETATM   27  C   UNL     1      10.149  30.945  58.106  1.00  0.00     0.050 A 
HETATM   28  C   UNL     1      10.804  30.171  57.177  1.00  0.00     0.008 A 
HETATM   29  C   UNL     1      10.054  29.011  56.831  1.00  0.00     0.022 A 
ENDBRANCH  20  25
ENDBRANCH  17  18
ENDBRANCH   1  17
TORSDOF 7
ENDMDL
MODEL 4
REMARK VINA RESULT:      -8.7      3.352      6.885
REMARK  7 active torsions:
REMARK  status: ('A' for Active; 'I' for Inactive)
REMARK    1  A    between atoms: C_2  and  C_3 
REMARK    2  A    between atoms: C_3  and  N_4 
REMARK    3  A    between atoms: C_3  and  C_15 
REMARK       I    between atoms: N_4  and  C_5 
REMARK    4  A    between atoms: C_5  and  C_6 
REMARK    5  A    between atoms: C_9  and  O_10 
REMARK    6  A    between atoms: C_15  and  N_16 
REMARK    7  A    between atoms: C_18  and  C_19 
ROOT
HETATM    1  C   UNL     1       7.481  31.780  60.301  1.00  0.00     0.107 C 
ENDROOT
BRANCH   1   2
HETATM    2  C   UNL     1       7.184  32.262  61.748  1.00  0.00     0.002 C 
HETATM    3  C   UNL     1       6.654  33.699  61.815  1.00  0.00     0.011 C 
HETATM    4  C   UNL     1       8.403  32.124  62.665  1.00  0.00     0.011 C 
ENDBRANCH   1   2
BRANCH   1   5
HETATM    5  N   UNL     1       6.283  31.251  59.641  1.00  0.00    -0.354 N 
HETATM    6  C   UNL     1       5.566  31.958  58.699  1.00  0.00     0.222 C 
HETATM    7  O   UNL     1       5.815  33.121  58.404  1.00  0.00    -0.273 OA
HETATM    8  H   UNL     1       6.141  30.243  59.678  1.00  0.00     0.162 HD
BRANCH   6   9
HETATM    9  C   UNL     1       4.455  31.138  58.037  1.00  0.00     0.078 C 
HETATM   10  C   UNL     1       3.551  32.004  57.148  1.00  0.00     0.016 C 
HETATM   11  C   UNL     1       4.204  32.359  55.809  1.00  0.00     0.033 C 
HETATM   12  C   UNL     1       4.670  31.113  55.049  1.00  0.00     0.120 C 
HETATM   13  C   UNL     1       5.629  30.299  55.919  1.00  0.00     0.033 C 
HETATM   14  C   UNL     1       5.009  29.927  57.269  1.00  0.00     0.016 C 
BRANCH  12  15
HETATM   15  O   UNL     1       3.499  30.362  54.704  1.00  0.00    -0.391 OA
HETATM   16  C   UNL     1       3.718  29.398  53.684  1.00  0.00     0.202 C 
ENDBRANCH  12  15
ENDBRANCH   6   9
ENDBRANCH   1   5
BRANCH   1  17
HETATM   17  C   UNL     1       8.623  30.734  60.288  1.00  0.00     0.180 C 
BRANCH  17  18
HETATM   18  N   UNL     1       8.948  30.273  58.938  1.00  0.00    -0.232 N 
HETATM   19  N   UNL     1       8.320  29.118  58.526  1.00  0.00    -0.168 NA
HETATM   20  C   UNL     1       8.610  28.627  57.356  1.00  0.00     0.094 A 
HETATM   21  C   UNL     1       9.596  29.265  56.448  1.00  0.00     0.040 A 
HETATM   22  C   UNL     1      10.207  30.374  56.868  1.00  0.00     0.078 A 
HETATM   23  C   UNL     1       9.910  30.942  58.196  1.00  0.00     0.263 A 
HETATM   24  O   UNL     1      10.520  31.940  58.575  1.00  0.00    -0.267 OA
BRANCH  20  25
HETATM   25  C   UNL     1       7.917  27.399  56.964  1.00  0.00     0.035 A 
HETATM   26  S   UNL     1       7.402  27.090  55.356  1.00  0.00    -0.100 SA
HETATM   27  C   UNL     1       6.741  25.572  55.769  1.00  0.00     0.050 A 
HETATM   28  C   UNL     1       6.899  25.290  57.106  1.00  0.00     0.008 A 
HETATM   29  C   UNL     1       7.573  26.341  57.792  1.00  0.00     0.022 A 
ENDBRANCH  20  25
ENDBRANCH  17  18
ENDBRANCH   1  17
TORSDOF 7
ENDMDL
MODEL 5
REMARK VINA RESULT:      -8.6      2.468      3.849
REMARK  7 active torsions:
REMARK  status: ('A' for Active; 'I' for Inactive)
REMARK    1  A    between atoms: C_2  and  C_3 
REMARK    2  A    between atoms: C_3  and  N_4 
REMARK    3  A    between atoms: C_3  and  C_15 
REMARK       I    between atoms: N_4  and  C_5 
REMARK    4  A    between atoms: C_5  and  C_6 
REMARK    5  A    between atoms: C_9  and  O_10 
REMARK    6  A    between atoms: C_15  and  N_16 
REMARK    7  A    between atoms: C_18  and  C_19 
ROOT
HETATM    1  C   UNL     1       4.536  28.714  54.636  1.00  0.00     0.107 C 
ENDROOT
BRANCH   1   2
HETATM    2  C   UNL     1       3.417  29.661  54.123  1.00  0.00     0.002 C 
HETATM    3  C   UNL     1       3.422  29.844  52.602  1.00  0.00     0.011 C 
HETATM    4  C   UNL     1       3.464  31.033  54.803  1.00  0.00     0.011 C 
ENDBRANCH   1   2
BRANCH   1   5
HETATM    5  N   UNL     1       4.596  27.466  53.868  1.00  0.00    -0.354 N 
HETATM    6  C   UNL     1       5.676  27.108  53.092  1.00  0.00     0.222 C 
HETATM    7  O   UNL     1       6.637  27.845  52.902  1.00  0.00    -0.273 OA
HETATM    8  H   UNL     1       3.944  26.728  54.133  1.00  0.00     0.162 HD
BRANCH   6   9
HETATM    9  C   UNL     1       5.573  25.692  52.518  1.00  0.00     0.078 C 
HETATM   10  C   UNL     1       6.750  25.358  51.591  1.00  0.00     0.016 C 
HETATM   11  C   UNL     1       8.037  25.044  52.359  1.00  0.00     0.033 C 
HETATM   12  C   UNL     1       7.833  23.930  53.390  1.00  0.00     0.120 C 
HETATM   13  C   UNL     1       6.707  24.311  54.354  1.00  0.00     0.033 C 
HETATM   14  C   UNL     1       5.403  24.633  53.618  1.00  0.00     0.016 C 
BRANCH  12  15
HETATM   15  O   UNL     1       7.530  22.730  52.668  1.00  0.00    -0.391 OA
HETATM   16  C   UNL     1       8.155  21.570  53.197  1.00  0.00     0.202 C 
ENDBRANCH  12  15
ENDBRANCH   6   9
ENDBRANCH   1   5
BRANCH   1  17
HETATM   17  C   UNL     1       4.367  28.422  56.148  1.00  0.00     0.180 C 
BRANCH  17  18
HETATM   18  N   UNL     1       5.582  27.875  56.754  1.00  0.00    -0.232 N 
HETATM   19  N   UNL     1       6.623  28.759  56.924  1.00  0.00    -0.168 NA
HETATM   20  C   UNL     1       7.750  28.319  57.407  1.00  0.00     0.094 A 
HETATM   21  C   UNL     1       7.955  26.896  57.779  1.00  0.00     0.040 A 
HETATM   22  C   UNL     1       6.940  26.050  57.593  1.00  0.00     0.078 A 
HETATM   23  C   UNL     1       5.660  26.518  57.032  1.00  0.00     0.263 A 
HETATM   24  O   UNL     1       4.757  25.707  56.831  1.00  0.00    -0.267 OA
BRANCH  20  25
HETATM   25  C   UNL     1       8.826  29.297  57.569  1.00  0.00     0.035 A 
HETATM   26  S   UNL     1       8.673  30.701  58.544  1.00  0.00    -0.100 SA
HETATM   27  C   UNL     1      10.257  31.226  58.185  1.00  0.00     0.050 A 
HETATM   28  C   UNL     1      10.905  30.360  57.337  1.00  0.00     0.008 A 
HETATM   29  C   UNL     1      10.082  29.253  56.982  1.00  0.00     0.022 A 
ENDBRANCH  20  25
ENDBRANCH  17  18
ENDBRANCH   1  17
TORSDOF 7
ENDMDL
MODEL 6
REMARK VINA RESULT:      -8.5      2.081      2.905
REMARK  7 active torsions:
REMARK  status: ('A' for Active; 'I' for Inactive)
REMARK    1  A    between atoms: C_2  and  C_3 
REMARK    2  A    between atoms: C_3  and  N_4 
REMARK    3  A    between atoms: C_3  and  C_15 
REMARK       I    between atoms: N_4  and  C_5 
REMARK    4  A    between atoms: C_5  and  C_6 
REMARK    5  A    between atoms: C_9  and  O_10 
REMARK    6  A    between atoms: C_15  and  N_16 
REMARK    7  A    between atoms: C_18  and  C_19 
ROOT
HETATM    1  C   UNL     1       6.812  27.586  56.269  1.00  0.00     0.107 C 
ENDROOT
BRANCH   1   2
HETATM    2  C   UNL     1       7.401  28.587  55.237  1.00  0.00     0.002 C 
HETATM    3  C   UNL     1       7.465  28.027  53.812  1.00  0.00     0.011 C 
HETATM    4  C   UNL     1       8.788  29.093  55.649  1.00  0.00     0.011 C 
ENDBRANCH   1   2
BRANCH   1   5
HETATM    5  N   UNL     1       6.590  26.260  55.684  1.00  0.00    -0.354 N 
HETATM    6  C   UNL     1       7.264  25.131  56.096  1.00  0.00     0.222 C 
HETATM    7  O   UNL     1       8.172  25.157  56.919  1.00  0.00    -0.273 OA
HETATM    8  H   UNL     1       5.728  26.125  55.157  1.00  0.00     0.162 HD
BRANCH   6   9
HETATM    9  C   UNL     1       6.746  23.842  55.450  1.00  0.00     0.078 C 
HETATM   10  C   UNL     1       6.500  24.010  53.945  1.00  0.00     0.016 C 
HETATM   11  C   UNL     1       7.795  23.998  53.128  1.00  0.00     0.033 C 
HETATM   12  C   UNL     1       8.633  22.745  53.399  1.00  0.00     0.120 C 
HETATM   13  C   UNL     1       8.935  22.632  54.895  1.00  0.00     0.033 C 
HETATM   14  C   UNL     1       7.660  22.641  55.742  1.00  0.00     0.016 C 
BRANCH  12  15
HETATM   15  O   UNL     1       7.884  21.619  52.923  1.00  0.00    -0.391 OA
HETATM   16  C   UNL     1       8.572  20.382  53.039  1.00  0.00     0.202 C 
ENDBRANCH  12  15
ENDBRANCH   6   9
ENDBRANCH   1   5
BRANCH   1  17
HETATM   17  C   UNL     1       5.506  28.138  56.894  1.00  0.00     0.180 C 
BRANCH  17  18
HETATM   18  N   UNL     1       5.578  29.573  57.171  1.00  0.00    -0.232 N 
HETATM   19  N   UNL     1       6.495  29.959  58.124  1.00  0.00    -0.168 NA
HETATM   20  C   UNL     1       6.566  31.216  58.454  1.00  0.00     0.094 A 
HETATM   21  C   UNL     1       5.693  32.250  57.844  1.00  0.00     0.040 A 
HETATM   22  C   UNL     1       4.800  31.857  56.935  1.00  0.00     0.078 A 
HETATM   23  C   UNL     1       4.686  30.437  56.554  1.00  0.00     0.263 A 
HETATM   24  O   UNL     1       3.824  30.097  55.746  1.00  0.00    -0.267 OA
BRANCH  20  25
HETATM   25  C   UNL     1       7.556  31.577  59.471  1.00  0.00     0.035 A 
HETATM   26  S   UNL     1       9.248  31.458  59.210  1.00  0.00    -0.100 SA
HETATM   27  C   UNL     1       9.615  32.025  60.777  1.00  0.00     0.050 A 
HETATM   28  C   UNL     1       8.479  32.303  61.502  1.00  0.00     0.008 A 
HETATM   29  C   UNL     1       7.297  32.043  60.751  1.00  0.00     0.022 A 
ENDBRANCH  20  25
ENDBRANCH  17  18
ENDBRANCH   1  17
TORSDOF 7
ENDMDL
MODEL 7
REMARK VINA RESULT:      -8.4      3.286      8.850
REMARK  7 active torsions:
REMARK  status: ('A' for Active; 'I' for Inactive)
REMARK    1  A    between atoms: C_2  and  C_3 
REMARK    2  A    between atoms: C_3  and  N_4 
REMARK    3  A    between atoms: C_3  and  C_15 
REMARK       I    between atoms: N_4  and  C_5 
REMARK    4  A    between atoms: C_5  and  C_6 
REMARK    5  A    between atoms: C_9  and  O_10 
REMARK    6  A    between atoms: C_15  and  N_16 
REMARK    7  A    between atoms: C_18  and  C_19 
ROOT
HETATM    1  C   UNL     1       8.551  29.761  57.462  1.00  0.00     0.107 C 
ENDROOT
BRANCH   1   2
HETATM    2  C   UNL     1       9.846  29.239  56.781  1.00  0.00     0.002 C 
HETATM    3  C   UNL     1      11.121  29.920  57.291  1.00  0.00     0.011 C 
HETATM    4  C   UNL     1       9.783  29.352  55.254  1.00  0.00     0.011 C 
ENDBRANCH   1   2
BRANCH   1   5
HETATM    5  N   UNL     1       8.828  30.835  58.421  1.00  0.00    -0.354 N 
HETATM    6  C   UNL     1       7.839  31.532  59.080  1.00  0.00     0.222 C 
HETATM    7  O   UNL     1       6.645  31.378  58.850  1.00  0.00    -0.273 OA
HETATM    8  H   UNL     1       9.769  30.877  58.810  1.00  0.00     0.162 HD
BRANCH   6   9
HETATM    9  C   UNL     1       8.376  32.491  60.148  1.00  0.00     0.078 C 
HETATM   10  C   UNL     1       7.247  33.135  60.963  1.00  0.00     0.016 C 
HETATM   11  C   UNL     1       6.647  32.181  62.000  1.00  0.00     0.033 C 
HETATM   12  C   UNL     1       7.715  31.598  62.930  1.00  0.00     0.120 C 
HETATM   13  C   UNL     1       8.795  30.893  62.106  1.00  0.00     0.033 C 
HETATM   14  C   UNL     1       9.416  31.819  61.057  1.00  0.00     0.016 C 
BRANCH  12  15
HETATM   15  O   UNL     1       8.255  32.684  63.693  1.00  0.00    -0.391 OA
HETATM   16  C   UNL     1       7.346  33.227  64.639  1.00  0.00     0.202 C 
ENDBRANCH  12  15
ENDBRANCH   6   9
ENDBRANCH   1   5
BRANCH   1  17
HETATM   17  C   UNL     1       7.775  28.604  58.140  1.00  0.00     0.180 C 
BRANCH  17  18
HETATM   18  N   UNL     1       7.293  27.611  57.179  1.00  0.00    -0.232 N 
HETATM   19  N   UNL     1       6.534  28.097  56.138  1.00  0.00    -0.168 NA
HETATM   20  C   UNL     1       6.030  27.256  55.281  1.00  0.00     0.094 A 
HETATM   21  C   UNL     1       6.241  25.790  55.387  1.00  0.00     0.040 A 
HETATM   22  C   UNL     1       6.965  25.336  56.410  1.00  0.00     0.078 A 
HETATM   23  C   UNL     1       7.534  26.264  57.404  1.00  0.00     0.263 A 
HETATM   24  O   UNL     1       8.160  25.813  58.362  1.00  0.00    -0.267 OA
BRANCH  20  25
HETATM   25  C   UNL     1       5.231  27.821  54.193  1.00  0.00     0.035 A 
HETATM   26  S   UNL     1       5.610  27.583  52.536  1.00  0.00    -0.100 SA
HETATM   27  C   UNL     1       4.279  28.512  52.010  1.00  0.00     0.050 A 
HETATM   28  C   UNL     1       3.548  29.005  53.066  1.00  0.00     0.008 A 
HETATM   29  C   UNL     1       4.097  28.609  54.319  1.00  0.00     0.022 A 
ENDBRANCH  20  25
ENDBRANCH  17  18
ENDBRANCH   1  17
TORSDOF 7
ENDMDL
MODEL 8
REMARK VINA RESULT:      -8.4      2.398      3.824
REMARK  7 active torsions:
REMARK  status: ('A' for Active; 'I' for Inactive)
REMARK    1  A    between atoms: C_2  and  C_3 
REMARK    2  A    between atoms: C_3  and  N_4 
REMARK    3  A    between atoms: C_3  and  C_15 
REMARK       I    between atoms: N_4  and  C_5 
REMARK    4  A    between atoms: C_5  and  C_6 
REMARK    5  A    between atoms: C_9  and  O_10 
REMARK    6  A    between atoms: C_15  and  N_16 
REMARK    7  A    between atoms: C_18  and  C_19 
ROOT
HETATM    1  C   UNL     1       4.608  28.611  54.805  1.00  0.00     0.107 C 
ENDROOT
BRANCH   1   2
HETATM    2  C   UNL     1       3.663  29.406  53.863  1.00  0.00     0.002 C 
HETATM    3  C   UNL     1       3.562  28.808  52.455  1.00  0.00     0.011 C 
HETATM    4  C   UNL     1       4.054  30.884  53.763  1.00  0.00     0.011 C 
ENDBRANCH   1   2
BRANCH   1   5
HETATM    5  N   UNL     1       4.695  27.196  54.432  1.00  0.00    -0.354 N 
HETATM    6  C   UNL     1       5.877  26.488  54.427  1.00  0.00     0.222 C 
HETATM    7  O   UNL     1       6.967  27.005  54.643  1.00  0.00    -0.273 OA
HETATM    8  H   UNL     1       3.828  26.660  54.444  1.00  0.00     0.162 HD
BRANCH   6   9
HETATM    9  C   UNL     1       5.691  24.991  54.160  1.00  0.00     0.078 C 
HETATM   10  C   UNL     1       5.844  24.648  52.671  1.00  0.00     0.016 C 
HETATM   11  C   UNL     1       7.306  24.634  52.216  1.00  0.00     0.033 C 
HETATM   12  C   UNL     1       8.167  23.701  53.073  1.00  0.00     0.120 C 
HETATM   13  C   UNL     1       8.063  24.103  54.546  1.00  0.00     0.033 C 
HETATM   14  C   UNL     1       6.612  24.128  55.035  1.00  0.00     0.016 C 
BRANCH  12  15
HETATM   15  O   UNL     1       7.696  22.365  52.853  1.00  0.00    -0.391 OA
HETATM   16  C   UNL     1       8.551  21.363  53.383  1.00  0.00     0.202 C 
ENDBRANCH  12  15
ENDBRANCH   6   9
ENDBRANCH   1   5
BRANCH   1  17
HETATM   17  C   UNL     1       4.174  28.764  56.285  1.00  0.00     0.180 C 
BRANCH  17  18
HETATM   18  N   UNL     1       4.977  29.751  57.008  1.00  0.00    -0.232 N 
HETATM   19  N   UNL     1       6.343  29.605  56.910  1.00  0.00    -0.168 NA
HETATM   20  C   UNL     1       7.112  30.418  57.576  1.00  0.00     0.094 A 
HETATM   21  C   UNL     1       6.570  31.497  58.440  1.00  0.00     0.040 A 
HETATM   22  C   UNL     1       5.244  31.614  58.535  1.00  0.00     0.078 A 
HETATM   23  C   UNL     1       4.351  30.696  57.806  1.00  0.00     0.263 A 
HETATM   24  O   UNL     1       3.134  30.800  57.947  1.00  0.00    -0.267 OA
BRANCH  20  25
HETATM   25  C   UNL     1       8.556  30.223  57.440  1.00  0.00     0.035 A 
HETATM   26  S   UNL     1       9.702  30.985  58.465  1.00  0.00    -0.100 SA
HETATM   27  C   UNL     1      11.025  30.265  57.664  1.00  0.00     0.050 A 
HETATM   28  C   UNL     1      10.619  29.456  56.628  1.00  0.00     0.008 A 
HETATM   29  C   UNL     1       9.201  29.434  56.500  1.00  0.00     0.022 A 
ENDBRANCH  20  25
ENDBRANCH  17  18
ENDBRANCH   1  17
TORSDOF 7
ENDMDL
MODEL 9
REMARK VINA RESULT:      -8.2      4.675      7.608
REMARK  7 active torsions:
REMARK  status: ('A' for Active; 'I' for Inactive)
REMARK    1  A    between atoms: C_2  and  C_3 
REMARK    2  A    between atoms: C_3  and  N_4 
REMARK    3  A    between atoms: C_3  and  C_15 
REMARK       I    between atoms: N_4  and  C_5 
REMARK    4  A    between atoms: C_5  and  C_6 
REMARK    5  A    between atoms: C_9  and  O_10 
REMARK    6  A    between atoms: C_15  and  N_16 
REMARK    7  A    between atoms: C_18  and  C_19 
ROOT
HETATM    1  C   UNL     1       5.682  26.512  54.843  1.00  0.00     0.107 C 
ENDROOT
BRANCH   1   2
HETATM    2  C   UNL     1       5.139  26.742  56.280  1.00  0.00     0.002 C 
HETATM    3  C   UNL     1       5.986  27.717  57.104  1.00  0.00     0.011 C 
HETATM    4  C   UNL     1       4.974  25.429  57.053  1.00  0.00     0.011 C 
ENDBRANCH   1   2
BRANCH   1   5
HETATM    5  N   UNL     1       6.782  25.541  54.818  1.00  0.00    -0.354 N 
HETATM    6  C   UNL     1       6.990  24.663  53.777  1.00  0.00     0.222 C 
HETATM    7  O   UNL     1       6.221  24.555  52.829  1.00  0.00    -0.273 OA
HETATM    8  H   UNL     1       7.561  25.709  55.453  1.00  0.00     0.162 HD
BRANCH   6   9
HETATM    9  C   UNL     1       8.290  23.863  53.905  1.00  0.00     0.078 C 
HETATM   10  C   UNL     1       8.519  23.362  55.338  1.00  0.00     0.016 C 
HETATM   11  C   UNL     1       7.643  22.156  55.689  1.00  0.00     0.033 C 
HETATM   12  C   UNL     1       7.812  21.011  54.685  1.00  0.00     0.120 C 
HETATM   13  C   UNL     1       7.507  21.508  53.271  1.00  0.00     0.033 C 
HETATM   14  C   UNL     1       8.366  22.716  52.886  1.00  0.00     0.016 C 
BRANCH  12  15
HETATM   15  O   UNL     1       9.160  20.538  54.802  1.00  0.00    -0.391 OA
HETATM   16  C   UNL     1       9.541  20.216  56.132  1.00  0.00     0.202 C 
ENDBRANCH  12  15
ENDBRANCH   6   9
ENDBRANCH   1   5
BRANCH   1  17
HETATM   17  C   UNL     1       6.115  27.850  54.192  1.00  0.00     0.180 C 
BRANCH  17  18
HETATM   18  N   UNL     1       5.077  28.418  53.330  1.00  0.00    -0.232 N 
HETATM   19  N   UNL     1       5.007  27.907  52.053  1.00  0.00    -0.168 NA
HETATM   20  C   UNL     1       4.141  28.410  51.221  1.00  0.00     0.094 A 
HETATM   21  C   UNL     1       3.227  29.518  51.598  1.00  0.00     0.040 A 
HETATM   22  C   UNL     1       3.319  30.011  52.834  1.00  0.00     0.078 A 
HETATM   23  C   UNL     1       4.302  29.472  53.791  1.00  0.00     0.263 A 
HETATM   24  O   UNL     1       4.395  29.975  54.908  1.00  0.00    -0.267 OA
BRANCH  20  25
HETATM   25  C   UNL     1       4.104  27.834  49.876  1.00  0.00     0.035 A 
HETATM   26  S   UNL     1       3.366  28.623  48.543  1.00  0.00    -0.100 SA
HETATM   27  C   UNL     1       3.750  27.352  47.470  1.00  0.00     0.050 A 
HETATM   28  C   UNL     1       4.427  26.335  48.101  1.00  0.00     0.008 A 
HETATM   29  C   UNL     1       4.628  26.612  49.483  1.00  0.00     0.022 A 
ENDBRANCH  20  25
ENDBRANCH  17  18
ENDBRANCH   1  17
TORSDOF 7
ENDMDL
MODEL 10
REMARK VINA RESULT:      -8.0      4.157      8.687
REMARK  7 active torsions:
REMARK  status: ('A' for Active; 'I' for Inactive)
REMARK    1  A    between atoms: C_2  and  C_3 
REMARK    2  A    between atoms: C_3  and  N_4 
REMARK    3  A    between atoms: C_3  and  C_15 
REMARK       I    between atoms: N_4  and  C_5 
REMARK    4  A    between atoms: C_5  and  C_6 
REMARK    5  A    between atoms: C_9  and  O_10 
REMARK    6  A    between atoms: C_15  and  N_16 
REMARK    7  A    between atoms: C_18  and  C_19 
ROOT
HETATM    1  C   UNL     1       5.399  27.020  54.103  1.00  0.00     0.107 C 
ENDROOT
BRANCH   1   2
HETATM    2  C   UNL     1       4.847  26.403  52.789  1.00  0.00     0.002 C 
HETATM    3  C   UNL     1       4.643  24.886  52.866  1.00  0.00     0.011 C 
HETATM    4  C   UNL     1       5.724  26.739  51.579  1.00  0.00     0.011 C 
ENDBRANCH   1   2
BRANCH   1   5
HETATM    5  N   UNL     1       4.885  28.374  54.334  1.00  0.00    -0.354 N 
HETATM    6  C   UNL     1       4.354  28.784  55.537  1.00  0.00     0.222 C 
HETATM    7  O   UNL     1       4.180  28.026  56.485  1.00  0.00    -0.273 OA
HETATM    8  H   UNL     1       5.178  29.098  53.680  1.00  0.00     0.162 HD
BRANCH   6   9
HETATM    9  C   UNL     1       4.034  30.281  55.584  1.00  0.00     0.078 C 
HETATM   10  C   UNL     1       2.959  30.609  56.630  1.00  0.00     0.016 C 
HETATM   11  C   UNL     1       3.503  30.594  58.061  1.00  0.00     0.033 C 
HETATM   12  C   UNL     1       4.712  31.520  58.226  1.00  0.00     0.120 C 
HETATM   13  C   UNL     1       5.806  31.133  57.228  1.00  0.00     0.033 C 
HETATM   14  C   UNL     1       5.295  31.136  55.784  1.00  0.00     0.016 C 
BRANCH  12  15
HETATM   15  O   UNL     1       4.254  32.861  58.017  1.00  0.00    -0.391 OA
HETATM   16  C   UNL     1       3.642  33.442  59.160  1.00  0.00     0.202 C 
ENDBRANCH  12  15
ENDBRANCH   6   9
ENDBRANCH   1   5
BRANCH   1  17
HETATM   17  C   UNL     1       6.949  27.011  54.112  1.00  0.00     0.180 C 
BRANCH  17  18
HETATM   18  N   UNL     1       7.500  26.019  55.035  1.00  0.00    -0.232 N 
HETATM   19  N   UNL     1       7.660  24.748  54.531  1.00  0.00    -0.168 NA
HETATM   20  C   UNL     1       8.094  23.808  55.321  1.00  0.00     0.094 A 
HETATM   21  C   UNL     1       8.421  24.055  56.747  1.00  0.00     0.040 A 
HETATM   22  C   UNL     1       8.246  25.289  57.224  1.00  0.00     0.078 A 
HETATM   23  C   UNL     1       7.739  26.368  56.356  1.00  0.00     0.263 A 
HETATM   24  O   UNL     1       7.546  27.485  56.834  1.00  0.00    -0.267 OA
BRANCH  20  25
HETATM   25  C   UNL     1       8.247  22.474  54.738  1.00  0.00     0.035 A 
HETATM   26  S   UNL     1       8.895  21.144  55.608  1.00  0.00    -0.100 SA
HETATM   27  C   UNL     1       8.727  20.085  54.281  1.00  0.00     0.050 A 
HETATM   28  C   UNL     1       8.190  20.717  53.184  1.00  0.00     0.008 A 
HETATM   29  C   UNL     1       7.916  22.090  53.447  1.00  0.00     0.022 A 
ENDBRANCH  20  25
ENDBRANCH  17  18
ENDBRANCH   1  17
TORSDOF 7
ENDMDL
