MODEL 1
REMARK VINA RESULT:      -8.3      0.000      0.000
REMARK  6 active torsions:
REMARK  status: ('A' for Active; 'I' for Inactive)
REMARK    1  A    between atoms: C_2  and  O_3 
REMARK    2  A    between atoms: O_3  and  C_4 
REMARK    3  A    between atoms: C_5  and  O_6 
REMARK    4  A    between atoms: C_10  and  C_11 
REMARK    5  A    between atoms: C_20  and  C_21 
REMARK       I    between atoms: C_21  and  N_22 
REMARK    6  A    between atoms: N_22  and  C_23 
ROOT
HETATM    1  C   UNL     1       6.684  29.676  57.805  1.00  0.00     0.202 A 
HETATM    2  N   UNL     1       6.718  28.718  56.693  1.00  0.00    -0.084 N 
HETATM    3  C   UNL     1       7.848  28.386  56.002  1.00  0.00     0.725 A 
HETATM    4  N   UNL     1       7.565  27.461  55.122  1.00  0.00    -0.054 NA
HETATM    5  C   UNL     1       6.237  27.216  55.355  1.00  0.00     0.275 A 
HETATM    6  N   UNL     1       5.678  27.932  56.339  1.00  0.00    -0.149 NA
HETATM    7  N   UNL     1       9.011  28.981  56.322  1.00  0.00    -0.192 N 
HETATM    8  C   UNL     1       9.150  29.887  57.367  1.00  0.00     0.037 A 
HETATM    9  C   UNL     1      10.553  30.393  57.603  1.00  0.00     0.070 C 
HETATM   10  C   UNL     1       8.068  30.243  58.108  1.00  0.00     0.062 A 
HETATM   11  H   UNL     1       9.848  28.717  55.808  1.00  0.00     0.184 HD
ENDROOT
BRANCH   1  12
HETATM   12  C   UNL     1       5.611  30.734  57.552  1.00  0.00    -0.024 A 
HETATM   13  C   UNL     1       5.526  31.337  56.283  1.00  0.00     0.031 A 
HETATM   14  C   UNL     1       4.558  32.307  56.018  1.00  0.00     0.047 A 
HETATM   15  C   UNL     1       3.665  32.680  57.019  1.00  0.00     0.116 A 
HETATM   16 BR   UNL     1       4.496  33.079  54.289  1.00  0.00    -0.048 Br
HETATM   17  C   UNL     1       3.732  32.099  58.292  1.00  0.00     0.103 A 
HETATM   18  C   UNL     1       4.714  31.141  58.560  1.00  0.00     0.049 A 
BRANCH  15  19
HETATM   19  O   UNL     1       2.700  33.625  56.775  1.00  0.00    -0.357 OA
HETATM   20  H   UNL     1       1.924  33.125  56.452  1.00  0.00     0.218 HD
ENDBRANCH  15  19
BRANCH  17  21
HETATM   21  O   UNL     1       2.793  32.555  59.182  1.00  0.00    -0.349 OA
BRANCH  21  22
HETATM   22  C   UNL     1       3.271  33.025  60.444  1.00  0.00     0.171 C 
HETATM   23  C   UNL     1       3.406  34.534  60.357  1.00  0.00     0.034 C 
ENDBRANCH  21  22
ENDBRANCH  17  21
ENDBRANCH   1  12
BRANCH  10  24
HETATM   24  C   UNL     1       8.189  31.297  59.163  1.00  0.00     0.256 C 
HETATM   25  N   UNL     1       7.517  31.012  60.333  1.00  0.00    -0.323 N 
HETATM   26  H   UNL     1       6.980  30.161  60.394  1.00  0.00     0.169 HD
HETATM   27  O   UNL     1       8.810  32.323  58.912  1.00  0.00    -0.267 OA
BRANCH  25  28
HETATM   28  C   UNL     1       7.458  31.820  61.492  1.00  0.00     0.035 A 
HETATM   29  C   UNL     1       8.173  31.560  62.663  1.00  0.00     0.029 A 
HETATM   30  C   UNL     1       8.045  32.402  63.773  1.00  0.00     0.002 A 
HETATM   31  C   UNL     1       7.209  33.514  63.718  1.00  0.00     0.000 A 
HETATM   32  C   UNL     1       6.493  33.783  62.555  1.00  0.00     0.002 A 
HETATM   33  C   UNL     1       6.611  32.936  61.450  1.00  0.00     0.029 A 
ENDBRANCH  25  28
ENDBRANCH  10  24
TORSDOF 6
ENDMDL
MODEL 2
REMARK VINA RESULT:      -7.8      3.164      6.818
REMARK  6 active torsions:
REMARK  status: ('A' for Active; 'I' for Inactive)
REMARK    1  A    between atoms: C_2  and  O_3 
REMARK    2  A    between atoms: O_3  and  C_4 
REMARK    3  A    between atoms: C_5  and  O_6 
REMARK    4  A    between atoms: C_10  and  C_11 
REMARK    5  A    between atoms: C_20  and  C_21 
REMARK       I    between atoms: C_21  and  N_22 
REMARK    6  A    between atoms: N_22  and  C_23 
ROOT
HETATM    1  C   UNL     1       4.898  29.489  56.185  1.00  0.00     0.202 A 
HETATM    2  N   UNL     1       4.486  30.645  55.379  1.00  0.00    -0.084 N 
HETATM    3  C   UNL     1       4.172  30.580  54.052  1.00  0.00     0.725 A 
HETATM    4  N   UNL     1       3.780  31.757  53.639  1.00  0.00    -0.054 NA
HETATM    5  C   UNL     1       3.822  32.511  54.783  1.00  0.00     0.275 A 
HETATM    6  N   UNL     1       4.208  31.864  55.890  1.00  0.00    -0.149 NA
HETATM    7  N   UNL     1       4.263  29.401  53.413  1.00  0.00    -0.192 N 
HETATM    8  C   UNL     1       4.610  28.210  54.040  1.00  0.00     0.037 A 
HETATM    9  C   UNL     1       4.593  26.983  53.159  1.00  0.00     0.070 C 
HETATM   10  C   UNL     1       4.913  28.202  55.365  1.00  0.00     0.062 A 
HETATM   11  H   UNL     1       4.014  29.362  52.427  1.00  0.00     0.184 HD
ENDROOT
BRANCH   1  12
HETATM   12  C   UNL     1       6.210  29.794  56.906  1.00  0.00    -0.024 A 
HETATM   13  C   UNL     1       7.429  29.571  56.237  1.00  0.00     0.031 A 
HETATM   14  C   UNL     1       8.646  29.839  56.866  1.00  0.00     0.047 A 
HETATM   15  C   UNL     1       8.654  30.332  58.168  1.00  0.00     0.116 A 
HETATM   16 BR   UNL     1      10.250  29.520  55.911  1.00  0.00    -0.048 Br
HETATM   17  C   UNL     1       7.455  30.556  58.858  1.00  0.00     0.103 A 
HETATM   18  C   UNL     1       6.239  30.270  58.232  1.00  0.00     0.049 A 
BRANCH  15  19
HETATM   19  O   UNL     1       9.841  30.610  58.800  1.00  0.00    -0.357 OA
HETATM   20  H   UNL     1      10.443  30.918  58.095  1.00  0.00     0.218 HD
ENDBRANCH  15  19
BRANCH  17  21
HETATM   21  O   UNL     1       7.606  31.045  60.131  1.00  0.00    -0.349 OA
BRANCH  21  22
HETATM   22  C   UNL     1       7.119  32.365  60.379  1.00  0.00     0.171 C 
HETATM   23  C   UNL     1       7.544  32.762  61.781  1.00  0.00     0.034 C 
ENDBRANCH  21  22
ENDBRANCH  17  21
ENDBRANCH   1  12
BRANCH  10  24
HETATM   24  C   UNL     1       5.390  26.945  56.023  1.00  0.00     0.256 C 
HETATM   25  N   UNL     1       6.529  26.406  55.465  1.00  0.00    -0.323 N 
HETATM   26  H   UNL     1       6.938  26.854  54.660  1.00  0.00     0.169 HD
HETATM   27  O   UNL     1       4.736  26.471  56.945  1.00  0.00    -0.267 OA
BRANCH  25  28
HETATM   28  C   UNL     1       7.199  25.233  55.880  1.00  0.00     0.035 A 
HETATM   29  C   UNL     1       8.120  25.187  56.929  1.00  0.00     0.029 A 
HETATM   30  C   UNL     1       8.753  23.986  57.266  1.00  0.00     0.002 A 
HETATM   31  C   UNL     1       8.465  22.819  56.562  1.00  0.00     0.000 A 
HETATM   32  C   UNL     1       7.548  22.853  55.516  1.00  0.00     0.002 A 
HETATM   33  C   UNL     1       6.925  24.055  55.171  1.00  0.00     0.029 A 
ENDBRANCH  25  28
ENDBRANCH  10  24
TORSDOF 6
ENDMDL
MODEL 3
REMARK VINA RESULT:      -7.7      2.046      2.979
REMARK  6 active torsions:
REMARK  status: ('A' for Active; 'I' for Inactive)
REMARK    1  A    between atoms: C_2  and  O_3 
REMARK    2  A    between atoms: O_3  and  C_4 
REMARK    3  A    between atoms: C_5  and  O_6 
REMARK    4  A    between atoms: C_10  and  C_11 
REMARK    5  A    between atoms: C_20  and  C_21 
REMARK       I    between atoms: C_21  and  N_22 
REMARK    6  A    between atoms: N_22  and  C_23 
ROOT
HETATM    1  C   UNL     1       5.450  30.850  57.948  1.00  0.00     0.202 A 
HETATM    2  N   UNL     1       5.191  29.951  56.817  1.00  0.00    -0.084 N 
HETATM    3  C   UNL     1       6.147  29.190  56.208  1.00  0.00     0.725 A 
HETATM    4  N   UNL     1       5.592  28.450  55.284  1.00  0.00    -0.054 NA
HETATM    5  C   UNL     1       4.262  28.759  55.404  1.00  0.00     0.275 A 
HETATM    6  N   UNL     1       3.957  29.645  56.361  1.00  0.00    -0.149 NA
HETATM    7  N   UNL     1       7.420  29.271  56.634  1.00  0.00    -0.192 N 
HETATM    8  C   UNL     1       7.823  30.053  57.710  1.00  0.00     0.037 A 
HETATM    9  C   UNL     1       9.286  29.957  58.070  1.00  0.00     0.070 C 
HETATM   10  C   UNL     1       6.915  30.817  58.374  1.00  0.00     0.062 A 
HETATM   11  H   UNL     1       8.122  28.691  56.180  1.00  0.00     0.184 HD
ENDROOT
BRANCH   1  12
HETATM   12  C   UNL     1       4.914  32.247  57.640  1.00  0.00    -0.024 A 
HETATM   13  C   UNL     1       4.061  32.875  58.567  1.00  0.00     0.031 A 
HETATM   14  C   UNL     1       3.553  34.151  58.318  1.00  0.00     0.047 A 
HETATM   15  C   UNL     1       3.894  34.810  57.139  1.00  0.00     0.116 A 
HETATM   16 BR   UNL     1       2.412  34.942  59.607  1.00  0.00    -0.048 Br
HETATM   17  C   UNL     1       4.735  34.203  56.197  1.00  0.00     0.103 A 
HETATM   18  C   UNL     1       5.229  32.919  56.442  1.00  0.00     0.049 A 
BRANCH  15  19
HETATM   19  O   UNL     1       3.411  36.068  56.880  1.00  0.00    -0.357 OA
HETATM   20  H   UNL     1       3.176  36.440  57.753  1.00  0.00     0.218 HD
ENDBRANCH  15  19
BRANCH  17  21
HETATM   21  O   UNL     1       4.993  34.962  55.083  1.00  0.00    -0.349 OA
BRANCH  21  22
HETATM   22  C   UNL     1       5.305  34.259  53.879  1.00  0.00     0.171 C 
HETATM   23  C   UNL     1       6.406  35.023  53.167  1.00  0.00     0.034 C 
ENDBRANCH  21  22
ENDBRANCH  17  21
ENDBRANCH   1  12
BRANCH  10  24
HETATM   24  C   UNL     1       7.359  31.741  59.464  1.00  0.00     0.256 C 
HETATM   25  N   UNL     1       6.653  31.616  60.641  1.00  0.00    -0.323 N 
HETATM   26  H   UNL     1       5.889  30.959  60.685  1.00  0.00     0.169 HD
HETATM   27  O   UNL     1       8.252  32.549  59.233  1.00  0.00    -0.267 OA
BRANCH  25  28
HETATM   28  C   UNL     1       6.854  32.353  61.830  1.00  0.00     0.035 A 
HETATM   29  C   UNL     1       7.835  32.056  62.778  1.00  0.00     0.029 A 
HETATM   30  C   UNL     1       7.956  32.828  63.939  1.00  0.00     0.002 A 
HETATM   31  C   UNL     1       7.105  33.907  64.157  1.00  0.00     0.000 A 
HETATM   32  C   UNL     1       6.124  34.213  63.217  1.00  0.00     0.002 A 
HETATM   33  C   UNL     1       5.994  33.436  62.064  1.00  0.00     0.029 A 
ENDBRANCH  25  28
ENDBRANCH  10  24
TORSDOF 6
ENDMDL
MODEL 4
REMARK VINA RESULT:      -7.6      1.415      2.667
REMARK  6 active torsions:
REMARK  status: ('A' for Active; 'I' for Inactive)
REMARK    1  A    between atoms: C_2  and  O_3 
REMARK    2  A    between atoms: O_3  and  C_4 
REMARK    3  A    between atoms: C_5  and  O_6 
REMARK    4  A    between atoms: C_10  and  C_11 
REMARK    5  A    between atoms: C_20  and  C_21 
REMARK       I    between atoms: C_21  and  N_22 
REMARK    6  A    between atoms: N_22  and  C_23 
ROOT
HETATM    1  C   UNL     1       6.590  29.750  57.925  1.00  0.00     0.202 A 
HETATM    2  N   UNL     1       6.657  28.748  56.854  1.00  0.00    -0.084 N 
HETATM    3  C   UNL     1       7.808  28.385  56.216  1.00  0.00     0.725 A 
HETATM    4  N   UNL     1       7.551  27.426  55.364  1.00  0.00    -0.054 NA
HETATM    5  C   UNL     1       6.214  27.196  55.561  1.00  0.00     0.275 A 
HETATM    6  N   UNL     1       5.626  27.952  56.496  1.00  0.00    -0.149 NA
HETATM    7  N   UNL     1       8.963  28.987  56.551  1.00  0.00    -0.192 N 
HETATM    8  C   UNL     1       9.071  29.935  57.563  1.00  0.00     0.037 A 
HETATM    9  C   UNL     1      10.467  30.445  57.827  1.00  0.00     0.070 C 
HETATM   10  C   UNL     1       7.966  30.323  58.252  1.00  0.00     0.062 A 
HETATM   11  H   UNL     1       9.816  28.701  56.077  1.00  0.00     0.184 HD
ENDROOT
BRANCH   1  12
HETATM   12  C   UNL     1       5.531  30.800  57.594  1.00  0.00    -0.024 A 
HETATM   13  C   UNL     1       4.835  31.429  58.643  1.00  0.00     0.031 A 
HETATM   14  C   UNL     1       3.861  32.392  58.376  1.00  0.00     0.047 A 
HETATM   15  C   UNL     1       3.576  32.735  57.057  1.00  0.00     0.116 A 
HETATM   16 BR   UNL     1       2.963  33.203  59.833  1.00  0.00    -0.048 Br
HETATM   17  C   UNL     1       4.249  32.119  55.994  1.00  0.00     0.103 A 
HETATM   18  C   UNL     1       5.212  31.142  56.265  1.00  0.00     0.049 A 
BRANCH  15  19
HETATM   19  O   UNL     1       2.628  33.687  56.774  1.00  0.00    -0.357 OA
HETATM   20  H   UNL     1       1.768  33.238  56.893  1.00  0.00     0.218 HD
ENDBRANCH  15  19
BRANCH  17  21
HETATM   21  O   UNL     1       3.874  32.551  54.747  1.00  0.00    -0.349 OA
BRANCH  21  22
HETATM   22  C   UNL     1       3.050  31.673  53.978  1.00  0.00     0.171 C 
HETATM   23  C   UNL     1       3.876  31.163  52.812  1.00  0.00     0.034 C 
ENDBRANCH  21  22
ENDBRANCH  17  21
ENDBRANCH   1  12
BRANCH  10  24
HETATM   24  C   UNL     1       8.056  31.418  59.269  1.00  0.00     0.256 C 
HETATM   25  N   UNL     1       7.355  31.177  60.431  1.00  0.00    -0.323 N 
HETATM   26  H   UNL     1       6.820  30.326  60.511  1.00  0.00     0.169 HD
HETATM   27  O   UNL     1       8.681  32.436  58.993  1.00  0.00    -0.267 OA
BRANCH  25  28
HETATM   28  C   UNL     1       7.264  32.028  61.555  1.00  0.00     0.035 A 
HETATM   29  C   UNL     1       6.411  33.131  61.634  1.00  0.00     0.029 A 
HETATM   30  C   UNL     1       6.394  33.934  62.779  1.00  0.00     0.002 A 
HETATM   31  C   UNL     1       7.223  33.636  63.858  1.00  0.00     0.000 A 
HETATM   32  C   UNL     1       8.075  32.538  63.791  1.00  0.00     0.002 A 
HETATM   33  C   UNL     1       8.102  31.743  62.642  1.00  0.00     0.029 A 
ENDBRANCH  25  28
ENDBRANCH  10  24
TORSDOF 6
ENDMDL
MODEL 5
REMARK VINA RESULT:      -7.5      3.657      7.683
REMARK  6 active torsions:
REMARK  status: ('A' for Active; 'I' for Inactive)
REMARK    1  A    between atoms: C_2  and  O_3 
REMARK    2  A    between atoms: O_3  and  C_4 
REMARK    3  A    between atoms: C_5  and  O_6 
REMARK    4  A    between atoms: C_10  and  C_11 
REMARK    5  A    between atoms: C_20  and  C_21 
REMARK       I    between atoms: C_21  and  N_22 
REMARK    6  A    between atoms: N_22  and  C_23 
ROOT
HETATM    1  C   UNL     1       6.380  28.639  54.837  1.00  0.00     0.202 A 
HETATM    2  N   UNL     1       7.170  28.529  56.069  1.00  0.00    -0.084 N 
HETATM    3  C   UNL     1       7.549  27.344  56.632  1.00  0.00     0.725 A 
HETATM    4  N   UNL     1       8.298  27.578  57.679  1.00  0.00    -0.054 NA
HETATM    5  C   UNL     1       8.395  28.945  57.683  1.00  0.00     0.275 A 
HETATM    6  N   UNL     1       7.756  29.576  56.690  1.00  0.00    -0.149 NA
HETATM    7  N   UNL     1       7.164  26.191  56.057  1.00  0.00    -0.192 N 
HETATM    8  C   UNL     1       6.437  26.127  54.874  1.00  0.00     0.037 A 
HETATM    9  C   UNL     1       6.158  24.735  54.359  1.00  0.00     0.070 C 
HETATM   10  C   UNL     1       6.049  27.270  54.251  1.00  0.00     0.062 A 
HETATM   11  H   UNL     1       7.461  25.315  56.479  1.00  0.00     0.184 HD
ENDROOT
BRANCH   1  12
HETATM   12  C   UNL     1       5.166  29.536  55.073  1.00  0.00    -0.024 A 
HETATM   13  C   UNL     1       4.638  30.275  53.998  1.00  0.00     0.031 A 
HETATM   14  C   UNL     1       3.529  31.104  54.179  1.00  0.00     0.047 A 
HETATM   15  C   UNL     1       2.939  31.200  55.437  1.00  0.00     0.116 A 
HETATM   16 BR   UNL     1       2.866  32.070  52.691  1.00  0.00    -0.048 Br
HETATM   17  C   UNL     1       3.450  30.480  56.525  1.00  0.00     0.103 A 
HETATM   18  C   UNL     1       4.570  29.664  56.344  1.00  0.00     0.049 A 
BRANCH  15  19
HETATM   19  O   UNL     1       1.843  32.003  55.633  1.00  0.00    -0.357 OA
HETATM   20  H   UNL     1       1.648  32.392  54.757  1.00  0.00     0.218 HD
ENDBRANCH  15  19
BRANCH  17  21
HETATM   21  O   UNL     1       2.773  30.663  57.704  1.00  0.00    -0.349 OA
BRANCH  21  22
HETATM   22  C   UNL     1       3.547  31.049  58.841  1.00  0.00     0.171 C 
HETATM   23  C   UNL     1       3.750  32.551  58.777  1.00  0.00     0.034 C 
ENDBRANCH  21  22
ENDBRANCH  17  21
ENDBRANCH   1  12
BRANCH  10  24
HETATM   24  C   UNL     1       5.177  27.209  53.036  1.00  0.00     0.256 C 
HETATM   25  N   UNL     1       5.843  27.407  51.845  1.00  0.00    -0.323 N 
HETATM   26  H   UNL     1       6.832  27.604  51.865  1.00  0.00     0.169 HD
HETATM   27  O   UNL     1       3.970  27.044  53.176  1.00  0.00    -0.267 OA
BRANCH  25  28
HETATM   28  C   UNL     1       5.278  27.402  50.550  1.00  0.00     0.035 A 
HETATM   29  C   UNL     1       4.760  26.265  49.927  1.00  0.00     0.029 A 
HETATM   30  C   UNL     1       4.233  26.343  48.633  1.00  0.00     0.002 A 
HETATM   31  C   UNL     1       4.211  27.560  47.956  1.00  0.00     0.000 A 
HETATM   32  C   UNL     1       4.724  28.700  48.568  1.00  0.00     0.002 A 
HETATM   33  C   UNL     1       5.262  28.620  49.855  1.00  0.00     0.029 A 
ENDBRANCH  25  28
ENDBRANCH  10  24
TORSDOF 6
ENDMDL
MODEL 6
REMARK VINA RESULT:      -7.4      3.496      7.938
REMARK  6 active torsions:
REMARK  status: ('A' for Active; 'I' for Inactive)
REMARK    1  A    between atoms: C_2  and  O_3 
REMARK    2  A    between atoms: O_3  and  C_4 
REMARK    3  A    between atoms: C_5  and  O_6 
REMARK    4  A    between atoms: C_10  and  C_11 
REMARK    5  A    between atoms: C_20  and  C_21 
REMARK       I    between atoms: C_21  and  N_22 
REMARK    6  A    between atoms: N_22  and  C_23 
ROOT
HETATM    1  C   UNL     1       4.473  30.643  56.634  1.00  0.00     0.202 A 
HETATM    2  N   UNL     1       4.757  31.804  57.487  1.00  0.00    -0.084 N 
HETATM    3  C   UNL     1       4.929  33.075  57.018  1.00  0.00     0.725 A 
HETATM    4  N   UNL     1       5.097  33.893  58.025  1.00  0.00    -0.054 NA
HETATM    5  C   UNL     1       4.964  33.068  59.111  1.00  0.00     0.275 A 
HETATM    6  N   UNL     1       4.711  31.782  58.837  1.00  0.00    -0.149 NA
HETATM    7  N   UNL     1       4.867  33.300  55.694  1.00  0.00    -0.192 N 
HETATM    8  C   UNL     1       4.579  32.313  54.758  1.00  0.00     0.037 A 
HETATM    9  C   UNL     1       4.494  32.783  53.325  1.00  0.00     0.070 C 
HETATM   10  C   UNL     1       4.375  31.031  55.162  1.00  0.00     0.062 A 
HETATM   11  H   UNL     1       4.985  34.253  55.357  1.00  0.00     0.184 HD
ENDROOT
BRANCH   1  12
HETATM   12  C   UNL     1       5.471  29.524  56.927  1.00  0.00    -0.024 A 
HETATM   13  C   UNL     1       5.038  28.185  56.867  1.00  0.00     0.031 A 
HETATM   14  C   UNL     1       5.923  27.138  57.129  1.00  0.00     0.047 A 
HETATM   15  C   UNL     1       7.248  27.421  57.452  1.00  0.00     0.116 A 
HETATM   16 BR   UNL     1       5.279  25.359  57.029  1.00  0.00    -0.048 Br
HETATM   17  C   UNL     1       7.702  28.744  57.525  1.00  0.00     0.103 A 
HETATM   18  C   UNL     1       6.809  29.791  57.279  1.00  0.00     0.049 A 
BRANCH  15  19
HETATM   19  O   UNL     1       8.136  26.404  57.705  1.00  0.00    -0.357 OA
HETATM   20  H   UNL     1       7.972  26.143  58.632  1.00  0.00     0.218 HD
ENDBRANCH  15  19
BRANCH  17  21
HETATM   21  O   UNL     1       9.028  28.881  57.851  1.00  0.00    -0.349 OA
BRANCH  21  22
HETATM   22  C   UNL     1       9.900  29.355  56.824  1.00  0.00     0.171 C 
HETATM   23  C   UNL     1      10.818  30.396  57.437  1.00  0.00     0.034 C 
ENDBRANCH  21  22
ENDBRANCH  17  21
ENDBRANCH   1  12
BRANCH  10  24
HETATM   24  C   UNL     1       4.171  29.945  54.153  1.00  0.00     0.256 C 
HETATM   25  N   UNL     1       5.333  29.346  53.715  1.00  0.00    -0.323 N 
HETATM   26  H   UNL     1       6.217  29.683  54.064  1.00  0.00     0.169 HD
HETATM   27  O   UNL     1       3.035  29.703  53.761  1.00  0.00    -0.267 OA
BRANCH  25  28
HETATM   28  C   UNL     1       5.441  28.299  52.773  1.00  0.00     0.035 A 
HETATM   29  C   UNL     1       5.703  26.969  53.109  1.00  0.00     0.029 A 
HETATM   30  C   UNL     1       5.811  25.994  52.112  1.00  0.00     0.002 A 
HETATM   31  C   UNL     1       5.650  26.338  50.772  1.00  0.00     0.000 A 
HETATM   32  C   UNL     1       5.387  27.661  50.427  1.00  0.00     0.002 A 
HETATM   33  C   UNL     1       5.292  28.637  51.421  1.00  0.00     0.029 A 
ENDBRANCH  25  28
ENDBRANCH  10  24
TORSDOF 6
ENDMDL
MODEL 7
REMARK VINA RESULT:      -7.3      1.859      2.553
REMARK  6 active torsions:
REMARK  status: ('A' for Active; 'I' for Inactive)
REMARK    1  A    between atoms: C_2  and  O_3 
REMARK    2  A    between atoms: O_3  and  C_4 
REMARK    3  A    between atoms: C_5  and  O_6 
REMARK    4  A    between atoms: C_10  and  C_11 
REMARK    5  A    between atoms: C_20  and  C_21 
REMARK       I    between atoms: C_21  and  N_22 
REMARK    6  A    between atoms: N_22  and  C_23 
ROOT
HETATM    1  C   UNL     1       5.969  31.329  59.219  1.00  0.00     0.202 A 
HETATM    2  N   UNL     1       6.278  30.514  58.038  1.00  0.00    -0.084 N 
HETATM    3  C   UNL     1       7.544  30.210  57.627  1.00  0.00     0.725 A 
HETATM    4  N   UNL     1       7.487  29.415  56.590  1.00  0.00    -0.054 NA
HETATM    5  C   UNL     1       6.140  29.215  56.434  1.00  0.00     0.275 A 
HETATM    6  N   UNL     1       5.354  29.834  57.324  1.00  0.00    -0.149 NA
HETATM    7  N   UNL     1       8.592  30.698  58.314  1.00  0.00    -0.192 N 
HETATM    8  C   UNL     1       8.467  31.461  59.470  1.00  0.00     0.037 A 
HETATM    9  C   UNL     1       9.766  31.858  60.128  1.00  0.00     0.070 C 
HETATM   10  C   UNL     1       7.234  31.780  59.944  1.00  0.00     0.062 A 
HETATM   11  H   UNL     1       9.530  30.455  58.006  1.00  0.00     0.184 HD
ENDROOT
BRANCH   1  12
HETATM   12  C   UNL     1       5.021  32.465  58.838  1.00  0.00    -0.024 A 
HETATM   13  C   UNL     1       5.275  33.208  57.669  1.00  0.00     0.031 A 
HETATM   14  C   UNL     1       4.429  34.253  57.291  1.00  0.00     0.047 A 
HETATM   15  C   UNL     1       3.323  34.562  58.078  1.00  0.00     0.116 A 
HETATM   16 BR   UNL     1       4.825  35.212  55.706  1.00  0.00    -0.048 Br
HETATM   17  C   UNL     1       3.053  33.843  59.249  1.00  0.00     0.103 A 
HETATM   18  C   UNL     1       3.910  32.808  59.634  1.00  0.00     0.049 A 
BRANCH  15  19
HETATM   19  O   UNL     1       2.475  35.580  57.718  1.00  0.00    -0.357 OA
HETATM   20  H   UNL     1       2.431  35.547  56.743  1.00  0.00     0.218 HD
ENDBRANCH  15  19
BRANCH  17  21
HETATM   21  O   UNL     1       1.931  34.248  59.928  1.00  0.00    -0.349 OA
BRANCH  21  22
HETATM   22  C   UNL     1       2.062  34.441  61.338  1.00  0.00     0.171 C 
HETATM   23  C   UNL     1       2.735  35.782  61.564  1.00  0.00     0.034 C 
ENDBRANCH  21  22
ENDBRANCH  17  21
ENDBRANCH   1  12
BRANCH  10  24
HETATM   24  C   UNL     1       7.091  32.688  61.125  1.00  0.00     0.256 C 
HETATM   25  N   UNL     1       6.515  32.100  62.231  1.00  0.00    -0.323 N 
HETATM   26  H   UNL     1       6.208  31.142  62.171  1.00  0.00     0.169 HD
HETATM   27  O   UNL     1       7.435  33.860  61.019  1.00  0.00    -0.267 OA
BRANCH  25  28
HETATM   28  C   UNL     1       6.260  32.714  63.478  1.00  0.00     0.035 A 
HETATM   29  C   UNL     1       4.981  32.989  63.967  1.00  0.00     0.029 A 
HETATM   30  C   UNL     1       4.816  33.616  65.207  1.00  0.00     0.002 A 
HETATM   31  C   UNL     1       5.927  33.965  65.971  1.00  0.00     0.000 A 
HETATM   32  C   UNL     1       7.205  33.695  65.493  1.00  0.00     0.002 A 
HETATM   33  C   UNL     1       7.372  33.080  64.249  1.00  0.00     0.029 A 
ENDBRANCH  25  28
ENDBRANCH  10  24
TORSDOF 6
ENDMDL
MODEL 8
REMARK VINA RESULT:      -7.2      2.419      3.182
REMARK  6 active torsions:
REMARK  status: ('A' for Active; 'I' for Inactive)
REMARK    1  A    between atoms: C_2  and  O_3 
REMARK    2  A    between atoms: O_3  and  C_4 
REMARK    3  A    between atoms: C_5  and  O_6 
REMARK    4  A    between atoms: C_10  and  C_11 
REMARK    5  A    between atoms: C_20  and  C_21 
REMARK       I    between atoms: C_21  and  N_22 
REMARK    6  A    between atoms: N_22  and  C_23 
ROOT
HETATM    1  C   UNL     1       4.579  32.113  58.168  1.00  0.00     0.202 A 
HETATM    2  N   UNL     1       4.030  31.461  56.972  1.00  0.00    -0.084 N 
HETATM    3  C   UNL     1       4.691  30.512  56.246  1.00  0.00     0.725 A 
HETATM    4  N   UNL     1       3.915  30.079  55.286  1.00  0.00    -0.054 NA
HETATM    5  C   UNL     1       2.749  30.767  55.504  1.00  0.00     0.275 A 
HETATM    6  N   UNL     1       2.753  31.598  56.554  1.00  0.00    -0.149 NA
HETATM    7  N   UNL     1       5.934  30.154  56.611  1.00  0.00    -0.192 N 
HETATM    8  C   UNL     1       6.582  30.657  57.733  1.00  0.00     0.037 A 
HETATM    9  C   UNL     1       7.950  30.079  58.006  1.00  0.00     0.070 C 
HETATM   10  C   UNL     1       5.970  31.588  58.512  1.00  0.00     0.062 A 
HETATM   11  H   UNL     1       6.412  29.438  56.069  1.00  0.00     0.184 HD
ENDROOT
BRANCH   1  12
HETATM   12  C   UNL     1       4.496  33.631  58.021  1.00  0.00    -0.024 A 
HETATM   13  C   UNL     1       5.003  34.238  56.856  1.00  0.00     0.031 A 
HETATM   14  C   UNL     1       4.943  35.622  56.690  1.00  0.00     0.047 A 
HETATM   15  C   UNL     1       4.375  36.412  57.686  1.00  0.00     0.116 A 
HETATM   16 BR   UNL     1       5.641  36.376  55.098  1.00  0.00    -0.048 Br
HETATM   17  C   UNL     1       3.869  35.833  58.858  1.00  0.00     0.103 A 
HETATM   18  C   UNL     1       3.946  34.448  59.029  1.00  0.00     0.049 A 
BRANCH  15  19
HETATM   19  O   UNL     1       4.299  37.774  57.537  1.00  0.00    -0.357 OA
HETATM   20  H   UNL     1       4.344  38.136  58.444  1.00  0.00     0.218 HD
ENDBRANCH  15  19
BRANCH  17  21
HETATM   21  O   UNL     1       3.335  36.724  59.755  1.00  0.00    -0.349 OA
BRANCH  21  22
HETATM   22  C   UNL     1       3.730  36.582  61.121  1.00  0.00     0.171 C 
HETATM   23  C   UNL     1       4.977  37.419  61.333  1.00  0.00     0.034 C 
ENDBRANCH  21  22
ENDBRANCH  17  21
ENDBRANCH   1  12
BRANCH  10  24
HETATM   24  C   UNL     1       6.701  32.211  59.659  1.00  0.00     0.256 C 
HETATM   25  N   UNL     1       6.011  32.192  60.853  1.00  0.00    -0.323 N 
HETATM   26  H   UNL     1       5.081  31.804  60.874  1.00  0.00     0.169 HD
HETATM   27  O   UNL     1       7.798  32.721  59.460  1.00  0.00    -0.267 OA
BRANCH  25  28
HETATM   28  C   UNL     1       6.454  32.704  62.093  1.00  0.00     0.035 A 
HETATM   29  C   UNL     1       7.494  32.149  62.842  1.00  0.00     0.029 A 
HETATM   30  C   UNL     1       7.860  32.709  64.071  1.00  0.00     0.002 A 
HETATM   31  C   UNL     1       7.197  33.832  64.557  1.00  0.00     0.000 A 
HETATM   32  C   UNL     1       6.160  34.395  63.818  1.00  0.00     0.002 A 
HETATM   33  C   UNL     1       5.785  33.829  62.596  1.00  0.00     0.029 A 
ENDBRANCH  25  28
ENDBRANCH  10  24
TORSDOF 6
ENDMDL
MODEL 9
REMARK VINA RESULT:      -7.2      8.777     11.858
REMARK  6 active torsions:
REMARK  status: ('A' for Active; 'I' for Inactive)
REMARK    1  A    between atoms: C_2  and  O_3 
REMARK    2  A    between atoms: O_3  and  C_4 
REMARK    3  A    between atoms: C_5  and  O_6 
REMARK    4  A    between atoms: C_10  and  C_11 
REMARK    5  A    between atoms: C_20  and  C_21 
REMARK       I    between atoms: C_21  and  N_22 
REMARK    6  A    between atoms: N_22  and  C_23 
ROOT
HETATM    1  C   UNL     1       2.354  28.905  48.176  1.00  0.00     0.202 A 
HETATM    2  N   UNL     1       1.169  28.983  47.314  1.00  0.00    -0.084 N 
HETATM    3  C   UNL     1       0.694  27.942  46.570  1.00  0.00     0.725 A 
HETATM    4  N   UNL     1      -0.409  28.305  45.966  1.00  0.00    -0.054 NA
HETATM    5  C   UNL     1      -0.600  29.582  46.425  1.00  0.00     0.275 A 
HETATM    6  N   UNL     1       0.318  30.032  47.289  1.00  0.00    -0.149 NA
HETATM    7  N   UNL     1       1.351  26.769  46.587  1.00  0.00    -0.192 N 
HETATM    8  C   UNL     1       2.472  26.527  47.373  1.00  0.00     0.037 A 
HETATM    9  C   UNL     1       3.024  25.123  47.298  1.00  0.00     0.070 C 
HETATM   10  C   UNL     1       2.981  27.514  48.154  1.00  0.00     0.062 A 
HETATM   11  H   UNL     1       0.981  25.997  46.038  1.00  0.00     0.184 HD
ENDROOT
BRANCH   1  12
HETATM   12  C   UNL     1       3.322  30.039  47.840  1.00  0.00    -0.024 A 
HETATM   13  C   UNL     1       3.891  30.790  48.885  1.00  0.00     0.031 A 
HETATM   14  C   UNL     1       4.779  31.833  48.613  1.00  0.00     0.047 A 
HETATM   15  C   UNL     1       5.104  32.133  47.292  1.00  0.00     0.116 A 
HETATM   16 BR   UNL     1       5.512  32.803  50.065  1.00  0.00    -0.048 Br
HETATM   17  C   UNL     1       4.545  31.405  46.233  1.00  0.00     0.103 A 
HETATM   18  C   UNL     1       3.644  30.373  46.509  1.00  0.00     0.049 A 
BRANCH  15  19
HETATM   19  O   UNL     1       5.981  33.149  47.004  1.00  0.00    -0.357 OA
HETATM   20  H   UNL     1       6.557  33.223  47.791  1.00  0.00     0.218 HD
ENDBRANCH  15  19
BRANCH  17  21
HETATM   21  O   UNL     1       4.952  31.802  44.985  1.00  0.00    -0.349 OA
BRANCH  21  22
HETATM   22  C   UNL     1       3.946  32.307  44.105  1.00  0.00     0.171 C 
HETATM   23  C   UNL     1       4.143  31.655  42.749  1.00  0.00     0.034 C 
ENDBRANCH  21  22
ENDBRANCH  17  21
ENDBRANCH   1  12
BRANCH  10  24
HETATM   24  C   UNL     1       4.248  27.294  48.920  1.00  0.00     0.256 C 
HETATM   25  N   UNL     1       4.072  27.120  50.276  1.00  0.00    -0.323 N 
HETATM   26  H   UNL     1       3.142  27.181  50.660  1.00  0.00     0.169 HD
HETATM   27  O   UNL     1       5.319  27.330  48.323  1.00  0.00    -0.267 OA
BRANCH  25  28
HETATM   28  C   UNL     1       5.083  26.893  51.237  1.00  0.00     0.035 A 
HETATM   29  C   UNL     1       5.746  25.676  51.403  1.00  0.00     0.029 A 
HETATM   30  C   UNL     1       6.725  25.530  52.392  1.00  0.00     0.002 A 
HETATM   31  C   UNL     1       7.056  26.602  53.216  1.00  0.00     0.000 A 
HETATM   32  C   UNL     1       6.402  27.820  53.059  1.00  0.00     0.002 A 
HETATM   33  C   UNL     1       5.416  27.963  52.080  1.00  0.00     0.029 A 
ENDBRANCH  25  28
ENDBRANCH  10  24
TORSDOF 6
ENDMDL
MODEL 10
REMARK VINA RESULT:      -7.1      2.750      6.078
REMARK  6 active torsions:
REMARK  status: ('A' for Active; 'I' for Inactive)
REMARK    1  A    between atoms: C_2  and  O_3 
REMARK    2  A    between atoms: O_3  and  C_4 
REMARK    3  A    between atoms: C_5  and  O_6 
REMARK    4  A    between atoms: C_10  and  C_11 
REMARK    5  A    between atoms: C_20  and  C_21 
REMARK       I    between atoms: C_21  and  N_22 
REMARK    6  A    between atoms: N_22  and  C_23 
ROOT
HETATM    1  C   UNL     1       6.359  32.178  58.612  1.00  0.00     0.202 A 
HETATM    2  N   UNL     1       7.675  31.595  58.899  1.00  0.00    -0.084 N 
HETATM    3  C   UNL     1       8.027  30.312  58.594  1.00  0.00     0.725 A 
HETATM    4  N   UNL     1       9.281  30.116  58.911  1.00  0.00    -0.054 NA
HETATM    5  C   UNL     1       9.676  31.348  59.364  1.00  0.00     0.275 A 
HETATM    6  N   UNL     1       8.739  32.304  59.337  1.00  0.00    -0.149 NA
HETATM    7  N   UNL     1       7.120  29.501  58.020  1.00  0.00    -0.192 N 
HETATM    8  C   UNL     1       5.841  29.910  57.660  1.00  0.00     0.037 A 
HETATM    9  C   UNL     1       4.997  28.866  56.969  1.00  0.00     0.070 C 
HETATM   10  C   UNL     1       5.437  31.182  57.915  1.00  0.00     0.062 A 
HETATM   11  H   UNL     1       7.397  28.550  57.787  1.00  0.00     0.184 HD
ENDROOT
BRANCH   1  12
HETATM   12  C   UNL     1       5.775  32.799  59.880  1.00  0.00    -0.024 A 
HETATM   13  C   UNL     1       4.852  33.855  59.766  1.00  0.00     0.031 A 
HETATM   14  C   UNL     1       4.299  34.445  60.904  1.00  0.00     0.047 A 
HETATM   15  C   UNL     1       4.665  33.984  62.165  1.00  0.00     0.116 A 
HETATM   16 BR   UNL     1       3.060  35.861  60.681  1.00  0.00    -0.048 Br
HETATM   17  C   UNL     1       5.587  32.939  62.307  1.00  0.00     0.103 A 
HETATM   18  C   UNL     1       6.152  32.361  61.166  1.00  0.00     0.049 A 
BRANCH  15  19
HETATM   19  O   UNL     1       4.125  34.545  63.296  1.00  0.00    -0.357 OA
HETATM   20  H   UNL     1       3.259  34.903  63.018  1.00  0.00     0.218 HD
ENDBRANCH  15  19
BRANCH  17  21
HETATM   21  O   UNL     1       5.856  32.580  63.603  1.00  0.00    -0.349 OA
BRANCH  21  22
HETATM   22  C   UNL     1       7.206  32.725  64.048  1.00  0.00     0.171 C 
HETATM   23  C   UNL     1       7.236  33.826  65.092  1.00  0.00     0.034 C 
ENDBRANCH  21  22
ENDBRANCH  17  21
ENDBRANCH   1  12
BRANCH  10  24
HETATM   24  C   UNL     1       4.029  31.599  57.628  1.00  0.00     0.256 C 
HETATM   25  N   UNL     1       3.901  32.510  56.601  1.00  0.00    -0.323 N 
HETATM   26  H   UNL     1       4.733  32.851  56.145  1.00  0.00     0.169 HD
HETATM   27  O   UNL     1       3.123  31.159  58.328  1.00  0.00    -0.267 OA
BRANCH  25  28
HETATM   28  C   UNL     1       2.699  33.073  56.116  1.00  0.00     0.035 A 
HETATM   29  C   UNL     1       1.850  32.439  55.206  1.00  0.00     0.029 A 
HETATM   30  C   UNL     1       0.686  33.075  54.762  1.00  0.00     0.002 A 
HETATM   31  C   UNL     1       0.356  34.344  55.230  1.00  0.00     0.000 A 
HETATM   32  C   UNL     1       1.194  34.984  56.138  1.00  0.00     0.002 A 
HETATM   33  C   UNL     1       2.364  34.355  56.573  1.00  0.00     0.029 A 
ENDBRANCH  25  28
ENDBRANCH  10  24
TORSDOF 6
ENDMDL
