MODEL 1
REMARK VINA RESULT:      -8.8      0.000      0.000
REMARK  5 active torsions:
REMARK  status: ('A' for Active; 'I' for Inactive)
REMARK    1  A    between atoms: O_2  and  C_3 
REMARK    2  A    between atoms: C_5  and  C_15 
REMARK    3  A    between atoms: C_8  and  C_9 
REMARK       I    between atoms: C_15  and  N_17 
REMARK    4  A    between atoms: N_17  and  C_18 
REMARK    5  A    between atoms: C_18  and  C_19 
ROOT
HETATM    1  C   UNL     1       5.242  32.816  63.461  1.00  0.00     0.080 A 
HETATM    2  C   UNL     1       6.157  32.207  62.588  1.00  0.00     0.054 A 
HETATM    3  C   UNL     1       7.535  32.264  62.846  1.00  0.00     0.034 A 
HETATM    4  C   UNL     1       8.004  32.962  63.959  1.00  0.00     0.018 A 
HETATM    5  C   UNL     1       7.099  33.561  64.837  1.00  0.00     0.016 A 
HETATM    6  C   UNL     1       5.713  33.484  64.614  1.00  0.00     0.010 A 
ENDROOT
BRANCH   3   7
HETATM    7  C   UNL     1       8.526  31.601  61.955  1.00  0.00     0.252 C 
HETATM    8  O   UNL     1       9.061  30.552  62.292  1.00  0.00    -0.268 OA
HETATM    9  N   UNL     1       8.754  32.218  60.744  1.00  0.00    -0.353 N 
HETATM   10  H   UNL     1       8.069  32.890  60.420  1.00  0.00     0.163 HD
BRANCH   9  11
HETATM   11  C   UNL     1       9.558  31.585  59.724  1.00  0.00     0.163 C 
BRANCH  11  12
HETATM   12  C   UNL     1       8.691  30.914  58.689  1.00  0.00    -0.019 A 
HETATM   13  C   UNL     1       7.294  31.052  58.778  1.00  0.00     0.012 A 
HETATM   14  C   UNL     1       6.452  30.436  57.849  1.00  0.00     0.020 A 
HETATM   15  C   UNL     1       6.999  29.667  56.826  1.00  0.00     0.012 A 
HETATM   16 BR   UNL     1       5.859  28.823  55.576  1.00  0.00    -0.051 Br
HETATM   17  C   UNL     1       8.377  29.510  56.720  1.00  0.00     0.043 A 
HETATM   18  C   UNL     1       9.219  30.131  57.647  1.00  0.00     0.043 A 
HETATM   19 CL   UNL     1      10.920  29.879  57.475  1.00  0.00    -0.084 Cl
ENDBRANCH  11  12
ENDBRANCH   9  11
ENDBRANCH   3   7
BRANCH   1  20
HETATM   20  O   UNL     1       3.883  32.760  63.279  1.00  0.00    -0.355 OA
HETATM   21  C   UNL     1       3.357  33.231  62.045  1.00  0.00     0.210 C 
ENDBRANCH   1  20
BRANCH   6  22
HETATM   22  C   UNL     1       4.806  34.112  65.570  1.00  0.00     0.013 A 
HETATM   23  C   UNL     1       3.744  35.029  65.388  1.00  0.00     0.152 A 
HETATM   24  N   UNL     1       3.147  35.369  66.535  1.00  0.00    -0.187 NA
HETATM   25  N   UNL     1       3.815  34.658  67.455  1.00  0.00    -0.289 N 
HETATM   26  H   UNL     1       3.530  34.742  68.426  1.00  0.00     0.188 HD
HETATM   27  C   UNL     1       4.817  33.895  66.934  1.00  0.00     0.123 A 
ENDBRANCH   6  22
TORSDOF 5
ENDMDL
MODEL 2
REMARK VINA RESULT:      -8.6     10.743     13.380
REMARK  5 active torsions:
REMARK  status: ('A' for Active; 'I' for Inactive)
REMARK    1  A    between atoms: O_2  and  C_3 
REMARK    2  A    between atoms: C_5  and  C_15 
REMARK    3  A    between atoms: C_8  and  C_9 
REMARK       I    between atoms: C_15  and  N_17 
REMARK    4  A    between atoms: N_17  and  C_18 
REMARK    5  A    between atoms: C_18  and  C_19 
ROOT
HETATM    1  C   UNL     1       6.935  24.249  54.634  1.00  0.00     0.080 A 
HETATM    2  C   UNL     1       6.421  25.456  54.136  1.00  0.00     0.054 A 
HETATM    3  C   UNL     1       6.594  25.803  52.788  1.00  0.00     0.034 A 
HETATM    4  C   UNL     1       7.316  24.960  51.942  1.00  0.00     0.018 A 
HETATM    5  C   UNL     1       7.822  23.754  52.428  1.00  0.00     0.016 A 
HETATM    6  C   UNL     1       7.627  23.372  53.767  1.00  0.00     0.010 A 
ENDROOT
BRANCH   3   7
HETATM    7  C   UNL     1       6.032  27.062  52.225  1.00  0.00     0.252 C 
HETATM    8  O   UNL     1       5.802  28.019  52.953  1.00  0.00    -0.268 OA
HETATM    9  N   UNL     1       5.839  27.077  50.861  1.00  0.00    -0.353 N 
HETATM   10  H   UNL     1       6.325  26.382  50.307  1.00  0.00     0.163 HD
BRANCH   9  11
HETATM   11  C   UNL     1       5.465  28.292  50.175  1.00  0.00     0.163 C 
BRANCH  11  12
HETATM   12  C   UNL     1       4.225  28.084  49.341  1.00  0.00    -0.019 A 
HETATM   13  C   UNL     1       4.353  27.524  48.059  1.00  0.00     0.012 A 
HETATM   14  C   UNL     1       3.233  27.327  47.246  1.00  0.00     0.020 A 
HETATM   15  C   UNL     1       1.973  27.697  47.708  1.00  0.00     0.012 A 
HETATM   16 BR   UNL     1       0.459  27.441  46.606  1.00  0.00    -0.051 Br
HETATM   17  C   UNL     1       1.820  28.259  48.972  1.00  0.00     0.043 A 
HETATM   18  C   UNL     1       2.942  28.450  49.785  1.00  0.00     0.043 A 
HETATM   19 CL   UNL     1       2.690  29.174  51.334  1.00  0.00    -0.084 Cl
ENDBRANCH  11  12
ENDBRANCH   9  11
ENDBRANCH   3   7
BRANCH   1  20
HETATM   20  O   UNL     1       6.763  23.841  55.933  1.00  0.00    -0.355 OA
HETATM   21  C   UNL     1       6.739  24.838  56.946  1.00  0.00     0.210 C 
ENDBRANCH   1  20
BRANCH   6  22
HETATM   22  C   UNL     1       8.161  22.093  54.224  1.00  0.00     0.013 A 
HETATM   23  C   UNL     1       7.907  20.768  53.799  1.00  0.00     0.152 A 
HETATM   24  N   UNL     1       8.610  19.858  54.481  1.00  0.00    -0.187 NA
HETATM   25  N   UNL     1       9.330  20.599  55.335  1.00  0.00    -0.289 N 
HETATM   26  H   UNL     1       9.965  20.121  55.967  1.00  0.00     0.188 HD
HETATM   27  C   UNL     1       9.097  21.938  55.227  1.00  0.00     0.123 A 
ENDBRANCH   6  22
TORSDOF 5
ENDMDL
MODEL 3
REMARK VINA RESULT:      -8.5      5.243      8.162
REMARK  5 active torsions:
REMARK  status: ('A' for Active; 'I' for Inactive)
REMARK    1  A    between atoms: O_2  and  C_3 
REMARK    2  A    between atoms: C_5  and  C_15 
REMARK    3  A    between atoms: C_8  and  C_9 
REMARK       I    between atoms: C_15  and  N_17 
REMARK    4  A    between atoms: N_17  and  C_18 
REMARK    5  A    between atoms: C_18  and  C_19 
ROOT
HETATM    1  C   UNL     1       9.183  29.774  57.639  1.00  0.00     0.080 A 
HETATM    2  C   UNL     1       8.940  29.045  56.464  1.00  0.00     0.054 A 
HETATM    3  C   UNL     1       7.638  28.655  56.123  1.00  0.00     0.034 A 
HETATM    4  C   UNL     1       6.576  28.960  56.976  1.00  0.00     0.018 A 
HETATM    5  C   UNL     1       6.808  29.693  58.141  1.00  0.00     0.016 A 
HETATM    6  C   UNL     1       8.103  30.124  58.480  1.00  0.00     0.010 A 
ENDROOT
BRANCH   3   7
HETATM    7  C   UNL     1       7.347  27.908  54.868  1.00  0.00     0.252 C 
HETATM    8  O   UNL     1       7.859  28.250  53.809  1.00  0.00    -0.268 OA
HETATM    9  N   UNL     1       6.518  26.815  54.997  1.00  0.00    -0.353 N 
HETATM   10  H   UNL     1       6.387  26.428  55.923  1.00  0.00     0.163 HD
BRANCH   9  11
HETATM   11  C   UNL     1       6.300  25.911  53.891  1.00  0.00     0.163 C 
BRANCH  11  12
HETATM   12  C   UNL     1       6.911  24.560  54.167  1.00  0.00    -0.019 A 
HETATM   13  C   UNL     1       6.802  24.014  55.458  1.00  0.00     0.012 A 
HETATM   14  C   UNL     1       7.365  22.773  55.763  1.00  0.00     0.020 A 
HETATM   15  C   UNL     1       8.051  22.067  54.778  1.00  0.00     0.012 A 
HETATM   16 BR   UNL     1       8.823  20.392  55.193  1.00  0.00    -0.051 Br
HETATM   17  C   UNL     1       8.178  22.587  53.494  1.00  0.00     0.043 A 
HETATM   18  C   UNL     1       7.610  23.828  53.190  1.00  0.00     0.043 A 
HETATM   19 CL   UNL     1       7.822  24.431  51.585  1.00  0.00    -0.084 Cl
ENDBRANCH  11  12
ENDBRANCH   9  11
ENDBRANCH   3   7
BRANCH   1  20
HETATM   20  O   UNL     1      10.431  30.214  58.003  1.00  0.00    -0.355 OA
HETATM   21  C   UNL     1      11.536  29.820  57.201  1.00  0.00     0.210 C 
ENDBRANCH   1  20
BRANCH   6  22
HETATM   22  C   UNL     1       8.292  30.903  59.701  1.00  0.00     0.013 A 
HETATM   23  C   UNL     1       8.913  30.580  60.930  1.00  0.00     0.152 A 
HETATM   24  N   UNL     1       8.879  31.584  61.811  1.00  0.00    -0.187 NA
HETATM   25  N   UNL     1       8.250  32.562  61.144  1.00  0.00    -0.289 N 
HETATM   26  H   UNL     1       8.111  33.451  61.613  1.00  0.00     0.188 HD
HETATM   27  C   UNL     1       7.874  32.207  59.881  1.00  0.00     0.123 A 
ENDBRANCH   6  22
TORSDOF 5
ENDMDL
MODEL 4
REMARK VINA RESULT:      -8.5      1.718      2.246
REMARK  5 active torsions:
REMARK  status: ('A' for Active; 'I' for Inactive)
REMARK    1  A    between atoms: O_2  and  C_3 
REMARK    2  A    between atoms: C_5  and  C_15 
REMARK    3  A    between atoms: C_8  and  C_9 
REMARK       I    between atoms: C_15  and  N_17 
REMARK    4  A    between atoms: N_17  and  C_18 
REMARK    5  A    between atoms: C_18  and  C_19 
ROOT
HETATM    1  C   UNL     1       6.141  33.161  62.145  1.00  0.00     0.080 A 
HETATM    2  C   UNL     1       6.761  32.759  60.952  1.00  0.00     0.054 A 
HETATM    3  C   UNL     1       8.049  32.204  60.969  1.00  0.00     0.034 A 
HETATM    4  C   UNL     1       8.737  32.086  62.178  1.00  0.00     0.018 A 
HETATM    5  C   UNL     1       8.123  32.474  63.370  1.00  0.00     0.016 A 
HETATM    6  C   UNL     1       6.818  32.998  63.375  1.00  0.00     0.010 A 
ENDROOT
BRANCH   3   7
HETATM    7  C   UNL     1       8.719  31.740  59.724  1.00  0.00     0.252 C 
HETATM    8  O   UNL     1       9.451  32.493  59.094  1.00  0.00    -0.268 OA
HETATM    9  N   UNL     1       8.490  30.428  59.371  1.00  0.00    -0.353 N 
HETATM   10  H   UNL     1       8.134  29.802  60.083  1.00  0.00     0.163 HD
BRANCH   9  11
HETATM   11  C   UNL     1       9.217  29.810  58.286  1.00  0.00     0.163 C 
BRANCH  11  12
HETATM   12  C   UNL     1       8.275  29.158  57.304  1.00  0.00    -0.019 A 
HETATM   13  C   UNL     1       7.052  28.647  57.773  1.00  0.00     0.012 A 
HETATM   14  C   UNL     1       6.155  28.022  56.902  1.00  0.00     0.020 A 
HETATM   15  C   UNL     1       6.478  27.895  55.554  1.00  0.00     0.012 A 
HETATM   16 BR   UNL     1       5.271  27.040  54.378  1.00  0.00    -0.051 Br
HETATM   17  C   UNL     1       7.685  28.388  55.067  1.00  0.00     0.043 A 
HETATM   18  C   UNL     1       8.578  29.017  55.939  1.00  0.00     0.043 A 
HETATM   19 CL   UNL     1      10.071  29.587  55.278  1.00  0.00    -0.084 Cl
ENDBRANCH  11  12
ENDBRANCH   9  11
ENDBRANCH   3   7
BRANCH   1  20
HETATM   20  O   UNL     1       4.869  33.674  62.191  1.00  0.00    -0.355 OA
HETATM   21  C   UNL     1       4.645  34.953  61.613  1.00  0.00     0.210 C 
ENDBRANCH   1  20
BRANCH   6  22
HETATM   22  C   UNL     1       6.212  33.375  64.649  1.00  0.00     0.013 A 
HETATM   23  C   UNL     1       4.859  33.444  65.057  1.00  0.00     0.152 A 
HETATM   24  N   UNL     1       4.717  33.839  66.326  1.00  0.00    -0.187 NA
HETATM   25  N   UNL     1       5.981  34.009  66.742  1.00  0.00    -0.289 N 
HETATM   26  H   UNL     1       6.136  34.303  67.701  1.00  0.00     0.188 HD
HETATM   27  C   UNL     1       6.912  33.749  65.779  1.00  0.00     0.123 A 
ENDBRANCH   6  22
TORSDOF 5
ENDMDL
MODEL 5
REMARK VINA RESULT:      -8.5      6.737     11.670
REMARK  5 active torsions:
REMARK  status: ('A' for Active; 'I' for Inactive)
REMARK    1  A    between atoms: O_2  and  C_3 
REMARK    2  A    between atoms: C_5  and  C_15 
REMARK    3  A    between atoms: C_8  and  C_9 
REMARK       I    between atoms: C_15  and  N_17 
REMARK    4  A    between atoms: N_17  and  C_18 
REMARK    5  A    between atoms: C_18  and  C_19 
ROOT
HETATM    1  C   UNL     1       7.715  24.305  55.458  1.00  0.00     0.080 A 
HETATM    2  C   UNL     1       7.177  25.579  55.700  1.00  0.00     0.054 A 
HETATM    3  C   UNL     1       6.178  26.102  54.867  1.00  0.00     0.034 A 
HETATM    4  C   UNL     1       5.740  25.367  53.764  1.00  0.00     0.018 A 
HETATM    5  C   UNL     1       6.263  24.096  53.522  1.00  0.00     0.016 A 
HETATM    6  C   UNL     1       7.239  23.541  54.369  1.00  0.00     0.010 A 
ENDROOT
BRANCH   3   7
HETATM    7  C   UNL     1       5.567  27.436  55.118  1.00  0.00     0.252 C 
HETATM    8  O   UNL     1       4.565  27.786  54.507  1.00  0.00    -0.268 OA
HETATM    9  N   UNL     1       6.173  28.201  56.090  1.00  0.00    -0.353 N 
HETATM   10  H   UNL     1       6.789  27.734  56.744  1.00  0.00     0.163 HD
BRANCH   9  11
HETATM   11  C   UNL     1       5.576  29.435  56.547  1.00  0.00     0.163 C 
BRANCH  11  12
HETATM   12  C   UNL     1       6.419  30.081  57.619  1.00  0.00    -0.019 A 
HETATM   13  C   UNL     1       7.566  29.411  58.078  1.00  0.00     0.012 A 
HETATM   14  C   UNL     1       8.368  29.965  59.079  1.00  0.00     0.020 A 
HETATM   15  C   UNL     1       8.025  31.193  59.636  1.00  0.00     0.012 A 
HETATM   16 BR   UNL     1       9.103  31.938  60.998  1.00  0.00    -0.051 Br
HETATM   17  C   UNL     1       6.892  31.874  59.202  1.00  0.00     0.043 A 
HETATM   18  C   UNL     1       6.094  31.321  58.197  1.00  0.00     0.043 A 
HETATM   19 CL   UNL     1       4.687  32.203  57.718  1.00  0.00    -0.084 Cl
ENDBRANCH  11  12
ENDBRANCH   9  11
ENDBRANCH   3   7
BRANCH   1  20
HETATM   20  O   UNL     1       8.667  23.729  56.262  1.00  0.00    -0.355 OA
HETATM   21  C   UNL     1       8.962  24.360  57.501  1.00  0.00     0.210 C 
ENDBRANCH   1  20
BRANCH   6  22
HETATM   22  C   UNL     1       7.744  22.201  54.084  1.00  0.00     0.013 A 
HETATM   23  C   UNL     1       7.848  21.048  54.896  1.00  0.00     0.152 A 
HETATM   24  N   UNL     1       8.372  20.001  54.251  1.00  0.00    -0.187 NA
HETATM   25  N   UNL     1       8.592  20.475  53.017  1.00  0.00    -0.289 N 
HETATM   26  H   UNL     1       8.986  19.846  52.324  1.00  0.00     0.188 HD
HETATM   27  C   UNL     1       8.239  21.784  52.863  1.00  0.00     0.123 A 
ENDBRANCH   6  22
TORSDOF 5
ENDMDL
MODEL 6
REMARK VINA RESULT:      -8.1      5.121      7.727
REMARK  5 active torsions:
REMARK  status: ('A' for Active; 'I' for Inactive)
REMARK    1  A    between atoms: O_2  and  C_3 
REMARK    2  A    between atoms: C_5  and  C_15 
REMARK    3  A    between atoms: C_8  and  C_9 
REMARK       I    between atoms: C_15  and  N_17 
REMARK    4  A    between atoms: N_17  and  C_18 
REMARK    5  A    between atoms: C_18  and  C_19 
ROOT
HETATM    1  C   UNL     1       6.488  30.808  57.912  1.00  0.00     0.080 A 
HETATM    2  C   UNL     1       5.936  30.012  56.896  1.00  0.00     0.054 A 
HETATM    3  C   UNL     1       6.439  28.729  56.642  1.00  0.00     0.034 A 
HETATM    4  C   UNL     1       7.523  28.250  57.379  1.00  0.00     0.018 A 
HETATM    5  C   UNL     1       8.071  29.031  58.398  1.00  0.00     0.016 A 
HETATM    6  C   UNL     1       7.556  30.306  58.691  1.00  0.00     0.010 A 
ENDROOT
BRANCH   3   7
HETATM    7  C   UNL     1       5.852  27.851  55.592  1.00  0.00     0.252 C 
HETATM    8  O   UNL     1       4.753  28.103  55.115  1.00  0.00    -0.268 OA
HETATM    9  N   UNL     1       6.636  26.794  55.185  1.00  0.00    -0.353 N 
HETATM   10  H   UNL     1       7.626  26.829  55.398  1.00  0.00     0.163 HD
BRANCH   9  11
HETATM   11  C   UNL     1       6.256  25.976  54.056  1.00  0.00     0.163 C 
BRANCH  11  12
HETATM   12  C   UNL     1       6.841  24.590  54.170  1.00  0.00    -0.019 A 
HETATM   13  C   UNL     1       6.791  23.930  55.411  1.00  0.00     0.012 A 
HETATM   14  C   UNL     1       7.333  22.652  55.566  1.00  0.00     0.020 A 
HETATM   15  C   UNL     1       7.938  22.023  54.481  1.00  0.00     0.012 A 
HETATM   16 BR   UNL     1       8.681  20.298  54.693  1.00  0.00    -0.051 Br
HETATM   17  C   UNL     1       8.005  22.657  53.244  1.00  0.00     0.043 A 
HETATM   18  C   UNL     1       7.457  23.934  53.090  1.00  0.00     0.043 A 
HETATM   19 CL   UNL     1       7.592  24.678  51.535  1.00  0.00    -0.084 Cl
ENDBRANCH  11  12
ENDBRANCH   9  11
ENDBRANCH   3   7
BRANCH   1  20
HETATM   20  O   UNL     1       6.012  32.055  58.229  1.00  0.00    -0.355 OA
HETATM   21  C   UNL     1       5.157  32.699  57.293  1.00  0.00     0.210 C 
ENDBRANCH   1  20
BRANCH   6  22
HETATM   22  C   UNL     1       8.153  31.078  59.777  1.00  0.00     0.013 A 
HETATM   23  C   UNL     1       7.655  31.440  61.051  1.00  0.00     0.152 A 
HETATM   24  N   UNL     1       8.525  32.162  61.763  1.00  0.00    -0.187 NA
HETATM   25  N   UNL     1       9.591  32.253  60.955  1.00  0.00    -0.289 N 
HETATM   26  H   UNL     1      10.405  32.758  61.288  1.00  0.00     0.188 HD
HETATM   27  C   UNL     1       9.420  31.627  59.755  1.00  0.00     0.123 A 
ENDBRANCH   6  22
TORSDOF 5
ENDMDL
MODEL 7
REMARK VINA RESULT:      -7.9      5.082      9.821
REMARK  5 active torsions:
REMARK  status: ('A' for Active; 'I' for Inactive)
REMARK    1  A    between atoms: O_2  and  C_3 
REMARK    2  A    between atoms: C_5  and  C_15 
REMARK    3  A    between atoms: C_8  and  C_9 
REMARK       I    between atoms: C_15  and  N_17 
REMARK    4  A    between atoms: N_17  and  C_18 
REMARK    5  A    between atoms: C_18  and  C_19 
ROOT
HETATM    1  C   UNL     1       7.141  26.439  56.134  1.00  0.00     0.080 A 
HETATM    2  C   UNL     1       7.914  27.241  56.987  1.00  0.00     0.054 A 
HETATM    3  C   UNL     1       8.526  28.409  56.509  1.00  0.00     0.034 A 
HETATM    4  C   UNL     1       8.397  28.758  55.164  1.00  0.00     0.018 A 
HETATM    5  C   UNL     1       7.621  27.971  54.312  1.00  0.00     0.016 A 
HETATM    6  C   UNL     1       6.970  26.817  54.782  1.00  0.00     0.010 A 
ENDROOT
BRANCH   3   7
HETATM    7  C   UNL     1       9.326  29.295  57.399  1.00  0.00     0.252 C 
HETATM    8  O   UNL     1      10.501  29.530  57.148  1.00  0.00    -0.268 OA
HETATM    9  N   UNL     1       8.650  29.843  58.467  1.00  0.00    -0.353 N 
HETATM   10  H   UNL     1       7.638  29.847  58.434  1.00  0.00     0.163 HD
BRANCH   9  11
HETATM   11  C   UNL     1       9.264  30.851  59.299  1.00  0.00     0.163 C 
BRANCH  11  12
HETATM   12  C   UNL     1       8.304  31.342  60.354  1.00  0.00    -0.019 A 
HETATM   13  C   UNL     1       7.223  32.153  59.966  1.00  0.00     0.012 A 
HETATM   14  C   UNL     1       6.318  32.642  60.911  1.00  0.00     0.020 A 
HETATM   15  C   UNL     1       6.490  32.330  62.256  1.00  0.00     0.012 A 
HETATM   16 BR   UNL     1       5.271  33.001  63.536  1.00  0.00    -0.051 Br
HETATM   17  C   UNL     1       7.554  31.534  62.667  1.00  0.00     0.043 A 
HETATM   18  C   UNL     1       8.456  31.042  61.719  1.00  0.00     0.043 A 
HETATM   19 CL   UNL     1       9.771  30.078  62.294  1.00  0.00    -0.084 Cl
ENDBRANCH  11  12
ENDBRANCH   9  11
ENDBRANCH   3   7
BRANCH   1  20
HETATM   20  O   UNL     1       6.489  25.307  56.556  1.00  0.00    -0.355 OA
HETATM   21  C   UNL     1       5.225  25.463  57.189  1.00  0.00     0.210 C 
ENDBRANCH   1  20
BRANCH   6  22
HETATM   22  C   UNL     1       6.157  26.036  53.856  1.00  0.00     0.013 A 
HETATM   23  C   UNL     1       6.423  24.831  53.163  1.00  0.00     0.152 A 
HETATM   24  N   UNL     1       5.402  24.433  52.399  1.00  0.00    -0.187 NA
HETATM   25  N   UNL     1       4.469  25.372  52.612  1.00  0.00    -0.289 N 
HETATM   26  H   UNL     1       3.577  25.279  52.137  1.00  0.00     0.188 HD
HETATM   27  C   UNL     1       4.870  26.354  53.470  1.00  0.00     0.123 A 
ENDBRANCH   6  22
TORSDOF 5
ENDMDL
MODEL 8
REMARK VINA RESULT:      -7.9     10.223     12.741
REMARK  5 active torsions:
REMARK  status: ('A' for Active; 'I' for Inactive)
REMARK    1  A    between atoms: O_2  and  C_3 
REMARK    2  A    between atoms: C_5  and  C_15 
REMARK    3  A    between atoms: C_8  and  C_9 
REMARK       I    between atoms: C_15  and  N_17 
REMARK    4  A    between atoms: N_17  and  C_18 
REMARK    5  A    between atoms: C_18  and  C_19 
ROOT
HETATM    1  C   UNL     1       7.974  24.029  55.248  1.00  0.00     0.080 A 
HETATM    2  C   UNL     1       7.398  25.307  55.192  1.00  0.00     0.054 A 
HETATM    3  C   UNL     1       6.431  25.614  54.224  1.00  0.00     0.034 A 
HETATM    4  C   UNL     1       6.065  24.651  53.282  1.00  0.00     0.018 A 
HETATM    5  C   UNL     1       6.625  23.375  53.336  1.00  0.00     0.016 A 
HETATM    6  C   UNL     1       7.569  23.039  54.323  1.00  0.00     0.010 A 
ENDROOT
BRANCH   3   7
HETATM    7  C   UNL     1       5.780  26.951  54.162  1.00  0.00     0.252 C 
HETATM    8  O   UNL     1       6.380  27.952  54.535  1.00  0.00    -0.268 OA
HETATM    9  N   UNL     1       4.509  26.978  53.632  1.00  0.00    -0.353 N 
HETATM   10  H   UNL     1       4.210  26.182  53.081  1.00  0.00     0.163 HD
BRANCH   9  11
HETATM   11  C   UNL     1       3.842  28.229  53.358  1.00  0.00     0.163 C 
BRANCH  11  12
HETATM   12  C   UNL     1       3.979  28.611  51.905  1.00  0.00    -0.019 A 
HETATM   13  C   UNL     1       4.465  27.657  50.994  1.00  0.00     0.012 A 
HETATM   14  C   UNL     1       4.622  27.970  49.642  1.00  0.00     0.020 A 
HETATM   15  C   UNL     1       4.301  29.247  49.189  1.00  0.00     0.012 A 
HETATM   16 BR   UNL     1       4.524  29.675  47.361  1.00  0.00    -0.051 Br
HETATM   17  C   UNL     1       3.823  30.210  50.071  1.00  0.00     0.043 A 
HETATM   18  C   UNL     1       3.662  29.893  51.423  1.00  0.00     0.043 A 
HETATM   19 CL   UNL     1       3.086  31.140  52.472  1.00  0.00    -0.084 Cl
ENDBRANCH  11  12
ENDBRANCH   9  11
ENDBRANCH   3   7
BRANCH   1  20
HETATM   20  O   UNL     1       8.896  23.663  56.196  1.00  0.00    -0.355 OA
HETATM   21  C   UNL     1       8.955  24.424  57.395  1.00  0.00     0.210 C 
ENDBRANCH   1  20
BRANCH   6  22
HETATM   22  C   UNL     1       8.115  21.685  54.349  1.00  0.00     0.013 A 
HETATM   23  C   UNL     1       8.720  20.901  53.339  1.00  0.00     0.152 A 
HETATM   24  N   UNL     1       9.094  19.693  53.771  1.00  0.00    -0.187 NA
HETATM   25  N   UNL     1       8.745  19.704  55.066  1.00  0.00    -0.289 N 
HETATM   26  H   UNL     1       8.942  18.879  55.623  1.00  0.00     0.188 HD
HETATM   27  C   UNL     1       8.153  20.868  55.461  1.00  0.00     0.123 A 
ENDBRANCH   6  22
TORSDOF 5
ENDMDL
MODEL 9
REMARK VINA RESULT:      -7.7      4.352      8.672
REMARK  5 active torsions:
REMARK  status: ('A' for Active; 'I' for Inactive)
REMARK    1  A    between atoms: O_2  and  C_3 
REMARK    2  A    between atoms: C_5  and  C_15 
REMARK    3  A    between atoms: C_8  and  C_9 
REMARK       I    between atoms: C_15  and  N_17 
REMARK    4  A    between atoms: N_17  and  C_18 
REMARK    5  A    between atoms: C_18  and  C_19 
ROOT
HETATM    1  C   UNL     1       6.094  29.944  56.881  1.00  0.00     0.080 A 
HETATM    2  C   UNL     1       6.732  30.840  57.754  1.00  0.00     0.054 A 
HETATM    3  C   UNL     1       7.977  30.523  58.318  1.00  0.00     0.034 A 
HETATM    4  C   UNL     1       8.570  29.290  58.040  1.00  0.00     0.018 A 
HETATM    5  C   UNL     1       7.947  28.399  57.166  1.00  0.00     0.016 A 
HETATM    6  C   UNL     1       6.716  28.715  56.563  1.00  0.00     0.010 A 
ENDROOT
BRANCH   3   7
HETATM    7  C   UNL     1       8.691  31.467  59.220  1.00  0.00     0.252 C 
HETATM    8  O   UNL     1       9.628  32.136  58.804  1.00  0.00    -0.268 OA
HETATM    9  N   UNL     1       8.203  31.554  60.506  1.00  0.00    -0.353 N 
HETATM   10  H   UNL     1       7.267  31.211  60.681  1.00  0.00     0.163 HD
BRANCH   9  11
HETATM   11  C   UNL     1       8.695  32.556  61.423  1.00  0.00     0.163 C 
BRANCH  11  12
HETATM   12  C   UNL     1       7.654  32.904  62.457  1.00  0.00    -0.019 A 
HETATM   13  C   UNL     1       8.024  32.931  63.813  1.00  0.00     0.012 A 
HETATM   14  C   UNL     1       7.088  33.234  64.806  1.00  0.00     0.020 A 
HETATM   15  C   UNL     1       5.770  33.505  64.452  1.00  0.00     0.012 A 
HETATM   16 BR   UNL     1       4.502  33.903  65.795  1.00  0.00    -0.051 Br
HETATM   17  C   UNL     1       5.377  33.479  63.117  1.00  0.00     0.043 A 
HETATM   18  C   UNL     1       6.316  33.180  62.125  1.00  0.00     0.043 A 
HETATM   19 CL   UNL     1       5.762  33.141  60.488  1.00  0.00    -0.084 Cl
ENDBRANCH  11  12
ENDBRANCH   9  11
ENDBRANCH   3   7
BRANCH   1  20
HETATM   20  O   UNL     1       4.896  30.217  56.272  1.00  0.00    -0.355 OA
HETATM   21  C   UNL     1       3.746  30.356  57.097  1.00  0.00     0.210 C 
ENDBRANCH   1  20
BRANCH   6  22
HETATM   22  C   UNL     1       6.112  27.757  55.643  1.00  0.00     0.013 A 
HETATM   23  C   UNL     1       6.186  27.636  54.235  1.00  0.00     0.152 A 
HETATM   24  N   UNL     1       5.478  26.606  53.762  1.00  0.00    -0.187 NA
HETATM   25  N   UNL     1       4.960  26.051  54.868  1.00  0.00    -0.289 N 
HETATM   26  H   UNL     1       4.379  25.225  54.764  1.00  0.00     0.188 HD
HETATM   27  C   UNL     1       5.304  26.701  56.017  1.00  0.00     0.123 A 
ENDBRANCH   6  22
TORSDOF 5
ENDMDL
MODEL 10
REMARK VINA RESULT:      -7.6      7.828     12.091
REMARK  5 active torsions:
REMARK  status: ('A' for Active; 'I' for Inactive)
REMARK    1  A    between atoms: O_2  and  C_3 
REMARK    2  A    between atoms: C_5  and  C_15 
REMARK    3  A    between atoms: C_8  and  C_9 
REMARK       I    between atoms: C_15  and  N_17 
REMARK    4  A    between atoms: N_17  and  C_18 
REMARK    5  A    between atoms: C_18  and  C_19 
ROOT
HETATM    1  C   UNL     1       7.869  24.217  55.132  1.00  0.00     0.080 A 
HETATM    2  C   UNL     1       7.348  25.516  55.026  1.00  0.00     0.054 A 
HETATM    3  C   UNL     1       6.558  25.881  53.927  1.00  0.00     0.034 A 
HETATM    4  C   UNL     1       6.316  24.956  52.910  1.00  0.00     0.018 A 
HETATM    5  C   UNL     1       6.821  23.660  53.013  1.00  0.00     0.016 A 
HETATM    6  C   UNL     1       7.586  23.266  54.126  1.00  0.00     0.010 A 
ENDROOT
BRANCH   3   7
HETATM    7  C   UNL     1       5.967  27.242  53.804  1.00  0.00     0.252 C 
HETATM    8  O   UNL     1       6.568  28.129  53.212  1.00  0.00    -0.268 OA
HETATM    9  N   UNL     1       4.714  27.405  54.355  1.00  0.00    -0.353 N 
HETATM   10  H   UNL     1       4.171  26.574  54.551  1.00  0.00     0.163 HD
BRANCH   9  11
HETATM   11  C   UNL     1       3.964  28.623  54.151  1.00  0.00     0.163 C 
BRANCH  11  12
HETATM   12  C   UNL     1       4.294  29.647  55.209  1.00  0.00    -0.019 A 
HETATM   13  C   UNL     1       4.524  29.214  56.527  1.00  0.00     0.012 A 
HETATM   14  C   UNL     1       4.818  30.128  57.541  1.00  0.00     0.020 A 
HETATM   15  C   UNL     1       4.877  31.488  57.248  1.00  0.00     0.012 A 
HETATM   16 BR   UNL     1       5.264  32.726  58.622  1.00  0.00    -0.051 Br
HETATM   17  C   UNL     1       4.648  31.942  55.953  1.00  0.00     0.043 A 
HETATM   18  C   UNL     1       4.359  31.025  54.938  1.00  0.00     0.043 A 
HETATM   19 CL   UNL     1       4.061  31.653  53.356  1.00  0.00    -0.084 Cl
ENDBRANCH  11  12
ENDBRANCH   9  11
ENDBRANCH   3   7
BRANCH   1  20
HETATM   20  O   UNL     1       8.617  23.795  56.203  1.00  0.00    -0.355 OA
HETATM   21  C   UNL     1       8.764  24.683  57.304  1.00  0.00     0.210 C 
ENDBRANCH   1  20
BRANCH   6  22
HETATM   22  C   UNL     1       8.079  21.894  54.196  1.00  0.00     0.013 A 
HETATM   23  C   UNL     1       7.885  20.878  55.162  1.00  0.00     0.152 A 
HETATM   24  N   UNL     1       8.516  19.740  54.855  1.00  0.00    -0.187 NA
HETATM   25  N   UNL     1       9.103  20.017  53.682  1.00  0.00    -0.289 N 
HETATM   26  H   UNL     1       9.645  19.286  53.232  1.00  0.00     0.188 HD
HETATM   27  C   UNL     1       8.878  21.290  53.246  1.00  0.00     0.123 A 
ENDBRANCH   6  22
TORSDOF 5
ENDMDL
