MODEL 1
REMARK VINA RESULT:      -8.9      0.000      0.000
REMARK  5 active torsions:
REMARK  status: ('A' for Active; 'I' for Inactive)
REMARK    1  A    between atoms: C_2  and  N_3 
REMARK    2  A    between atoms: C_2  and  C_21 
REMARK       I    between atoms: N_3  and  C_5 
REMARK       I    between atoms: C_5  and  N_6 
REMARK    3  A    between atoms: N_6  and  C_7 
REMARK    4  A    between atoms: C_7  and  C_8 
REMARK    5  A    between atoms: C_10  and  C_11 
ROOT
HETATM    1  N   UNL     1       6.990  30.524  58.516  1.00  0.00    -0.218 N 
HETATM    2  H   UNL     1       6.386  31.313  58.688  1.00  0.00     0.178 HD
HETATM    3  C   UNL     1       6.751  29.788  57.401  1.00  0.00     0.670 C 
HETATM    4  N   UNL     1       7.420  28.633  57.192  1.00  0.00    -0.221 N 
HETATM    5  N   UNL     1       5.816  30.215  56.509  1.00  0.00    -0.231 N 
HETATM    6  C   UNL     1       5.037  31.444  56.639  1.00  0.00     0.165 C 
HETATM    7  H   UNL     1       7.931  28.248  57.975  1.00  0.00     0.178 HD
HETATM    8  H   UNL     1       5.663  29.658  55.682  1.00  0.00     0.177 HD
ENDROOT
BRANCH   4   9
HETATM    9  C   UNL     1       7.612  27.976  55.897  1.00  0.00     0.199 C 
BRANCH   9  10
HETATM   10  C   UNL     1       7.559  26.510  56.123  1.00  0.00     0.077 A 
HETATM   11  N   UNL     1       7.555  25.622  55.059  1.00  0.00    -0.225 NA
HETATM   12  C   UNL     1       7.603  24.431  55.634  1.00  0.00     0.179 A 
HETATM   13  O   UNL     1       7.591  24.479  57.003  1.00  0.00    -0.301 OA
HETATM   14  C   UNL     1       7.560  25.806  57.303  1.00  0.00     0.173 A 
BRANCH  12  15
HETATM   15  C   UNL     1       7.698  23.111  55.016  1.00  0.00     0.017 A 
HETATM   16  C   UNL     1       7.812  23.002  53.621  1.00  0.00     0.016 A 
HETATM   17  C   UNL     1       7.933  21.753  53.006  1.00  0.00     0.001 A 
HETATM   18  C   UNL     1       7.944  20.596  53.781  1.00  0.00     0.000 A 
HETATM   19  C   UNL     1       7.832  20.685  55.167  1.00  0.00     0.001 A 
HETATM   20  C   UNL     1       7.708  21.935  55.781  1.00  0.00     0.016 A 
ENDBRANCH  12  15
ENDBRANCH   9  10
ENDBRANCH   4   9
BRANCH   1  21
HETATM   21  C   UNL     1       8.184  30.390  59.371  1.00  0.00     0.135 C 
HETATM   22  C   UNL     1       9.420  30.900  58.635  1.00  0.00     0.038 C 
BRANCH  21  23
HETATM   23  C   UNL     1       7.984  31.110  60.674  1.00  0.00     0.005 A 
HETATM   24  S   UNL     1       6.731  32.263  60.885  1.00  0.00    -0.104 SA
HETATM   25  C   UNL     1       7.192  32.570  62.501  1.00  0.00     0.050 A 
HETATM   26  C   UNL     1       8.277  31.813  62.881  1.00  0.00     0.008 A 
HETATM   27  C   UNL     1       8.737  30.972  61.828  1.00  0.00     0.017 A 
ENDBRANCH  21  23
ENDBRANCH   1  21
TORSDOF 5
ENDMDL
MODEL 2
REMARK VINA RESULT:      -8.7      2.655      3.394
REMARK  5 active torsions:
REMARK  status: ('A' for Active; 'I' for Inactive)
REMARK    1  A    between atoms: C_2  and  N_3 
REMARK    2  A    between atoms: C_2  and  C_21 
REMARK       I    between atoms: N_3  and  C_5 
REMARK       I    between atoms: C_5  and  N_6 
REMARK    3  A    between atoms: N_6  and  C_7 
REMARK    4  A    between atoms: C_7  and  C_8 
REMARK    5  A    between atoms: C_10  and  C_11 
ROOT
HETATM    1  N   UNL     1       6.392  29.112  57.058  1.00  0.00    -0.218 N 
HETATM    2  H   UNL     1       5.802  29.800  57.498  1.00  0.00     0.178 HD
HETATM    3  C   UNL     1       6.271  28.954  55.716  1.00  0.00     0.670 C 
HETATM    4  N   UNL     1       6.916  27.946  55.088  1.00  0.00    -0.221 N 
HETATM    5  N   UNL     1       5.475  29.807  55.015  1.00  0.00    -0.231 N 
HETATM    6  C   UNL     1       4.734  30.925  55.593  1.00  0.00     0.165 C 
HETATM    7  H   UNL     1       7.306  27.217  55.668  1.00  0.00     0.178 HD
HETATM    8  H   UNL     1       5.408  29.677  54.017  1.00  0.00     0.177 HD
ENDROOT
BRANCH   4   9
HETATM    9  C   UNL     1       7.247  27.898  53.662  1.00  0.00     0.199 C 
BRANCH   9  10
HETATM   10  C   UNL     1       7.290  26.470  53.257  1.00  0.00     0.077 A 
HETATM   11  N   UNL     1       7.704  25.487  54.141  1.00  0.00    -0.225 NA
HETATM   12  C   UNL     1       7.519  24.358  53.478  1.00  0.00     0.179 A 
HETATM   13  O   UNL     1       7.055  24.539  52.201  1.00  0.00    -0.301 OA
HETATM   14  C   UNL     1       6.916  25.887  52.070  1.00  0.00     0.173 A 
BRANCH  12  15
HETATM   15  C   UNL     1       7.706  22.982  53.927  1.00  0.00     0.017 A 
HETATM   16  C   UNL     1       7.670  22.687  55.299  1.00  0.00     0.016 A 
HETATM   17  C   UNL     1       7.818  21.374  55.755  1.00  0.00     0.001 A 
HETATM   18  C   UNL     1       8.002  20.338  54.843  1.00  0.00     0.000 A 
HETATM   19  C   UNL     1       8.041  20.612  53.477  1.00  0.00     0.001 A 
HETATM   20  C   UNL     1       7.895  21.926  53.022  1.00  0.00     0.016 A 
ENDBRANCH  12  15
ENDBRANCH   9  10
ENDBRANCH   4   9
BRANCH   1  21
HETATM   21  C   UNL     1       7.460  28.514  57.880  1.00  0.00     0.135 C 
HETATM   22  C   UNL     1       7.611  27.030  57.555  1.00  0.00     0.038 C 
BRANCH  21  23
HETATM   23  C   UNL     1       8.753  29.253  57.687  1.00  0.00     0.005 A 
HETATM   24  S   UNL     1       9.053  30.761  58.450  1.00  0.00    -0.104 SA
HETATM   25  C   UNL     1      10.603  30.887  57.743  1.00  0.00     0.050 A 
HETATM   26  C   UNL     1      10.895  29.807  56.942  1.00  0.00     0.008 A 
HETATM   27  C   UNL     1       9.828  28.865  56.906  1.00  0.00     0.017 A 
ENDBRANCH  21  23
ENDBRANCH   1  21
TORSDOF 5
ENDMDL
MODEL 3
REMARK VINA RESULT:      -8.6      1.669      2.114
REMARK  5 active torsions:
REMARK  status: ('A' for Active; 'I' for Inactive)
REMARK    1  A    between atoms: C_2  and  N_3 
REMARK    2  A    between atoms: C_2  and  C_21 
REMARK       I    between atoms: N_3  and  C_5 
REMARK       I    between atoms: C_5  and  N_6 
REMARK    3  A    between atoms: N_6  and  C_7 
REMARK    4  A    between atoms: C_7  and  C_8 
REMARK    5  A    between atoms: C_10  and  C_11 
ROOT
HETATM    1  N   UNL     1       6.287  29.548  57.920  1.00  0.00    -0.218 N 
HETATM    2  H   UNL     1       5.916  30.377  58.357  1.00  0.00     0.178 HD
HETATM    3  C   UNL     1       5.423  28.776  57.214  1.00  0.00     0.670 C 
HETATM    4  N   UNL     1       5.818  27.575  56.735  1.00  0.00    -0.221 N 
HETATM    5  N   UNL     1       4.150  29.214  57.014  1.00  0.00    -0.231 N 
HETATM    6  C   UNL     1       3.621  30.491  57.487  1.00  0.00     0.165 C 
HETATM    7  H   UNL     1       6.684  27.199  57.094  1.00  0.00     0.178 HD
HETATM    8  H   UNL     1       3.529  28.629  56.477  1.00  0.00     0.177 HD
ENDROOT
BRANCH   4   9
HETATM    9  C   UNL     1       5.197  26.849  55.626  1.00  0.00     0.199 C 
BRANCH   9  10
HETATM   10  C   UNL     1       6.221  25.941  55.051  1.00  0.00     0.077 A 
HETATM   11  N   UNL     1       6.221  24.586  55.342  1.00  0.00    -0.225 NA
HETATM   12  C   UNL     1       7.193  24.096  54.591  1.00  0.00     0.179 A 
HETATM   13  O   UNL     1       7.859  25.046  53.862  1.00  0.00    -0.301 OA
HETATM   14  C   UNL     1       7.234  26.216  54.165  1.00  0.00     0.173 A 
BRANCH  12  15
HETATM   15  C   UNL     1       7.613  22.708  54.415  1.00  0.00     0.017 A 
HETATM   16  C   UNL     1       7.933  22.235  53.132  1.00  0.00     0.016 A 
HETATM   17  C   UNL     1       8.364  20.920  52.939  1.00  0.00     0.001 A 
HETATM   18  C   UNL     1       8.485  20.062  54.029  1.00  0.00     0.000 A 
HETATM   19  C   UNL     1       8.172  20.514  55.309  1.00  0.00     0.001 A 
HETATM   20  C   UNL     1       7.738  21.829  55.501  1.00  0.00     0.016 A 
ENDBRANCH  12  15
ENDBRANCH   9  10
ENDBRANCH   4   9
BRANCH   1  21
HETATM   21  C   UNL     1       7.753  29.386  57.918  1.00  0.00     0.135 C 
HETATM   22  C   UNL     1       8.278  29.343  56.485  1.00  0.00     0.038 C 
BRANCH  21  23
HETATM   23  C   UNL     1       8.407  30.481  58.710  1.00  0.00     0.005 A 
HETATM   24  S   UNL     1       7.583  31.294  59.977  1.00  0.00    -0.104 SA
HETATM   25  C   UNL     1       8.928  32.297  60.300  1.00  0.00     0.050 A 
HETATM   26  C   UNL     1       9.987  32.024  59.466  1.00  0.00     0.008 A 
HETATM   27  C   UNL     1       9.689  30.979  58.547  1.00  0.00     0.017 A 
ENDBRANCH  21  23
ENDBRANCH   1  21
TORSDOF 5
ENDMDL
MODEL 4
REMARK VINA RESULT:      -8.6      1.432      1.892
REMARK  5 active torsions:
REMARK  status: ('A' for Active; 'I' for Inactive)
REMARK    1  A    between atoms: C_2  and  N_3 
REMARK    2  A    between atoms: C_2  and  C_21 
REMARK       I    between atoms: N_3  and  C_5 
REMARK       I    between atoms: C_5  and  N_6 
REMARK    3  A    between atoms: N_6  and  C_7 
REMARK    4  A    between atoms: C_7  and  C_8 
REMARK    5  A    between atoms: C_10  and  C_11 
ROOT
HETATM    1  N   UNL     1       6.686  31.607  59.680  1.00  0.00    -0.218 N 
HETATM    2  H   UNL     1       5.994  32.306  59.897  1.00  0.00     0.178 HD
HETATM    3  C   UNL     1       6.660  31.069  58.434  1.00  0.00     0.670 C 
HETATM    4  N   UNL     1       7.456  30.021  58.128  1.00  0.00    -0.221 N 
HETATM    5  N   UNL     1       5.807  31.583  57.506  1.00  0.00    -0.231 N 
HETATM    6  C   UNL     1       4.905  32.710  57.732  1.00  0.00     0.165 C 
HETATM    7  H   UNL     1       7.899  29.539  58.897  1.00  0.00     0.178 HD
HETATM    8  H   UNL     1       5.812  31.175  56.584  1.00  0.00     0.177 HD
ENDROOT
BRANCH   4   9
HETATM    9  C   UNL     1       7.870  29.625  56.780  1.00  0.00     0.199 C 
BRANCH   9  10
HETATM   10  C   UNL     1       7.615  28.170  56.639  1.00  0.00     0.077 A 
HETATM   11  N   UNL     1       7.674  27.549  55.402  1.00  0.00    -0.225 NA
HETATM   12  C   UNL     1       7.496  26.267  55.676  1.00  0.00     0.179 A 
HETATM   13  O   UNL     1       7.279  26.013  57.005  1.00  0.00    -0.301 OA
HETATM   14  C   UNL     1       7.355  27.231  57.607  1.00  0.00     0.173 A 
BRANCH  12  15
HETATM   15  C   UNL     1       7.534  25.117  54.777  1.00  0.00     0.017 A 
HETATM   16  C   UNL     1       7.723  25.316  53.400  1.00  0.00     0.016 A 
HETATM   17  C   UNL     1       7.791  24.232  52.521  1.00  0.00     0.001 A 
HETATM   18  C   UNL     1       7.674  22.933  53.009  1.00  0.00     0.000 A 
HETATM   19  C   UNL     1       7.485  22.716  54.373  1.00  0.00     0.001 A 
HETATM   20  C   UNL     1       7.414  23.802  55.251  1.00  0.00     0.016 A 
ENDBRANCH  12  15
ENDBRANCH   9  10
ENDBRANCH   4   9
BRANCH   1  21
HETATM   21  C   UNL     1       7.771  31.406  60.658  1.00  0.00     0.135 C 
HETATM   22  C   UNL     1       9.073  32.006  60.134  1.00  0.00     0.038 C 
BRANCH  21  23
HETATM   23  C   UNL     1       7.396  31.987  61.991  1.00  0.00     0.005 A 
HETATM   24  S   UNL     1       5.757  32.199  62.453  1.00  0.00    -0.104 SA
HETATM   25  C   UNL     1       6.198  32.863  63.964  1.00  0.00     0.050 A 
HETATM   26  C   UNL     1       7.563  32.925  64.122  1.00  0.00     0.008 A 
HETATM   27  C   UNL     1       8.256  32.422  62.985  1.00  0.00     0.017 A 
ENDBRANCH  21  23
ENDBRANCH   1  21
TORSDOF 5
ENDMDL
MODEL 5
REMARK VINA RESULT:      -8.5      3.199      9.842
REMARK  5 active torsions:
REMARK  status: ('A' for Active; 'I' for Inactive)
REMARK    1  A    between atoms: C_2  and  N_3 
REMARK    2  A    between atoms: C_2  and  C_21 
REMARK       I    between atoms: N_3  and  C_5 
REMARK       I    between atoms: C_5  and  N_6 
REMARK    3  A    between atoms: N_6  and  C_7 
REMARK    4  A    between atoms: C_7  and  C_8 
REMARK    5  A    between atoms: C_10  and  C_11 
ROOT
HETATM    1  N   UNL     1       8.659  27.982  57.115  1.00  0.00    -0.218 N 
HETATM    2  H   UNL     1       9.499  27.626  56.687  1.00  0.00     0.178 HD
HETATM    3  C   UNL     1       8.722  29.213  57.681  1.00  0.00     0.670 C 
HETATM    4  N   UNL     1       7.682  29.684  58.405  1.00  0.00    -0.221 N 
HETATM    5  N   UNL     1       9.851  29.958  57.530  1.00  0.00    -0.231 N 
HETATM    6  C   UNL     1      11.029  29.546  56.772  1.00  0.00     0.165 C 
HETATM    7  H   UNL     1       6.970  29.020  58.674  1.00  0.00     0.178 HD
HETATM    8  H   UNL     1       9.871  30.875  57.949  1.00  0.00     0.177 HD
ENDROOT
BRANCH   4   9
HETATM    9  C   UNL     1       7.406  31.094  58.691  1.00  0.00     0.199 C 
BRANCH   9  10
HETATM   10  C   UNL     1       7.634  31.312  60.142  1.00  0.00     0.077 A 
HETATM   11  N   UNL     1       6.841  32.187  60.867  1.00  0.00    -0.225 NA
HETATM   12  C   UNL     1       7.265  32.049  62.112  1.00  0.00     0.179 A 
HETATM   13  O   UNL     1       8.313  31.175  62.244  1.00  0.00    -0.301 OA
HETATM   14  C   UNL     1       8.540  30.715  60.983  1.00  0.00     0.173 A 
BRANCH  12  15
HETATM   15  C   UNL     1       6.753  32.661  63.335  1.00  0.00     0.017 A 
HETATM   16  C   UNL     1       7.650  33.217  64.262  1.00  0.00     0.016 A 
HETATM   17  C   UNL     1       7.186  33.834  65.427  1.00  0.00     0.001 A 
HETATM   18  C   UNL     1       5.818  33.905  65.679  1.00  0.00     0.000 A 
HETATM   19  C   UNL     1       4.914  33.358  64.770  1.00  0.00     0.001 A 
HETATM   20  C   UNL     1       5.379  32.739  63.606  1.00  0.00     0.016 A 
ENDBRANCH  12  15
ENDBRANCH   9  10
ENDBRANCH   4   9
BRANCH   1  21
HETATM   21  C   UNL     1       7.415  27.223  56.891  1.00  0.00     0.135 C 
HETATM   22  C   UNL     1       6.649  27.801  55.704  1.00  0.00     0.038 C 
BRANCH  21  23
HETATM   23  C   UNL     1       7.713  25.764  56.695  1.00  0.00     0.005 A 
HETATM   24  S   UNL     1       7.040  24.874  55.391  1.00  0.00    -0.104 SA
HETATM   25  C   UNL     1       7.816  23.435  55.884  1.00  0.00     0.050 A 
HETATM   26  C   UNL     1       8.574  23.619  57.017  1.00  0.00     0.008 A 
HETATM   27  C   UNL     1       8.514  24.961  57.488  1.00  0.00     0.017 A 
ENDBRANCH  21  23
ENDBRANCH   1  21
TORSDOF 5
ENDMDL
MODEL 6
REMARK VINA RESULT:      -8.4      2.327      3.379
REMARK  5 active torsions:
REMARK  status: ('A' for Active; 'I' for Inactive)
REMARK    1  A    between atoms: C_2  and  N_3 
REMARK    2  A    between atoms: C_2  and  C_21 
REMARK       I    between atoms: N_3  and  C_5 
REMARK       I    between atoms: C_5  and  N_6 
REMARK    3  A    between atoms: N_6  and  C_7 
REMARK    4  A    between atoms: C_7  and  C_8 
REMARK    5  A    between atoms: C_10  and  C_11 
ROOT
HETATM    1  N   UNL     1       5.819  29.488  55.424  1.00  0.00    -0.218 N 
HETATM    2  H   UNL     1       5.666  30.478  55.535  1.00  0.00     0.178 HD
HETATM    3  C   UNL     1       5.100  28.849  54.467  1.00  0.00     0.670 C 
HETATM    4  N   UNL     1       5.141  27.502  54.370  1.00  0.00    -0.221 N 
HETATM    5  N   UNL     1       4.320  29.578  53.623  1.00  0.00    -0.231 N 
HETATM    6  C   UNL     1       4.202  31.034  53.642  1.00  0.00     0.165 C 
HETATM    7  H   UNL     1       5.547  26.996  55.145  1.00  0.00     0.178 HD
HETATM    8  H   UNL     1       3.803  29.084  52.912  1.00  0.00     0.177 HD
ENDROOT
BRANCH   4   9
HETATM    9  C   UNL     1       4.807  26.718  53.179  1.00  0.00     0.199 C 
BRANCH   9  10
HETATM   10  C   UNL     1       5.866  25.694  53.000  1.00  0.00     0.077 A 
HETATM   11  N   UNL     1       6.026  24.662  53.912  1.00  0.00    -0.225 NA
HETATM   12  C   UNL     1       6.978  23.911  53.384  1.00  0.00     0.179 A 
HETATM   13  O   UNL     1       7.484  24.406  52.210  1.00  0.00    -0.301 OA
HETATM   14  C   UNL     1       6.771  25.542  51.978  1.00  0.00     0.173 A 
BRANCH  12  15
HETATM   15  C   UNL     1       7.520  22.640  53.857  1.00  0.00     0.017 A 
HETATM   16  C   UNL     1       7.600  22.388  55.236  1.00  0.00     0.016 A 
HETATM   17  C   UNL     1       8.089  21.170  55.715  1.00  0.00     0.001 A 
HETATM   18  C   UNL     1       8.501  20.186  54.820  1.00  0.00     0.000 A 
HETATM   19  C   UNL     1       8.429  20.418  53.448  1.00  0.00     0.001 A 
HETATM   20  C   UNL     1       7.942  21.639  52.969  1.00  0.00     0.016 A 
ENDBRANCH  12  15
ENDBRANCH   9  10
ENDBRANCH   4   9
BRANCH   1  21
HETATM   21  C   UNL     1       6.950  28.895  56.160  1.00  0.00     0.135 C 
HETATM   22  C   UNL     1       8.177  28.798  55.257  1.00  0.00     0.038 C 
BRANCH  21  23
HETATM   23  C   UNL     1       7.245  29.684  57.404  1.00  0.00     0.005 A 
HETATM   24  S   UNL     1       6.289  31.033  57.863  1.00  0.00    -0.104 SA
HETATM   25  C   UNL     1       7.238  31.318  59.254  1.00  0.00     0.050 A 
HETATM   26  C   UNL     1       8.263  30.409  59.375  1.00  0.00     0.008 A 
HETATM   27  C   UNL     1       8.271  29.467  58.308  1.00  0.00     0.017 A 
ENDBRANCH  21  23
ENDBRANCH   1  21
TORSDOF 5
ENDMDL
MODEL 7
REMARK VINA RESULT:      -8.2      2.984      8.967
REMARK  5 active torsions:
REMARK  status: ('A' for Active; 'I' for Inactive)
REMARK    1  A    between atoms: C_2  and  N_3 
REMARK    2  A    between atoms: C_2  and  C_21 
REMARK       I    between atoms: N_3  and  C_5 
REMARK       I    between atoms: C_5  and  N_6 
REMARK    3  A    between atoms: N_6  and  C_7 
REMARK    4  A    between atoms: C_7  and  C_8 
REMARK    5  A    between atoms: C_10  and  C_11 
ROOT
HETATM    1  N   UNL     1       6.779  24.674  56.023  1.00  0.00    -0.218 N 
HETATM    2  H   UNL     1       6.249  23.963  56.500  1.00  0.00     0.178 HD
HETATM    3  C   UNL     1       6.234  25.914  55.950  1.00  0.00     0.670 C 
HETATM    4  N   UNL     1       6.817  26.872  55.194  1.00  0.00    -0.221 N 
HETATM    5  N   UNL     1       5.082  26.176  56.627  1.00  0.00    -0.231 N 
HETATM    6  C   UNL     1       4.372  25.217  57.469  1.00  0.00     0.165 C 
HETATM    7  H   UNL     1       7.529  26.574  54.543  1.00  0.00     0.178 HD
HETATM    8  H   UNL     1       4.701  27.108  56.568  1.00  0.00     0.177 HD
ENDROOT
BRANCH   4   9
HETATM    9  C   UNL     1       6.632  28.316  55.349  1.00  0.00     0.199 C 
BRANCH   9  10
HETATM   10  C   UNL     1       7.478  28.760  56.485  1.00  0.00     0.077 A 
HETATM   11  N   UNL     1       7.073  29.790  57.320  1.00  0.00    -0.225 NA
HETATM   12  C   UNL     1       8.009  29.836  58.252  1.00  0.00     0.179 A 
HETATM   13  O   UNL     1       9.025  28.936  58.058  1.00  0.00    -0.301 OA
HETATM   14  C   UNL     1       8.677  28.259  56.930  1.00  0.00     0.173 A 
BRANCH  12  15
HETATM   15  C   UNL     1       8.083  30.674  59.446  1.00  0.00     0.017 A 
HETATM   16  C   UNL     1       9.129  30.485  60.364  1.00  0.00     0.016 A 
HETATM   17  C   UNL     1       9.239  31.291  61.501  1.00  0.00     0.001 A 
HETATM   18  C   UNL     1       8.306  32.298  61.732  1.00  0.00     0.000 A 
HETATM   19  C   UNL     1       7.261  32.499  60.832  1.00  0.00     0.001 A 
HETATM   20  C   UNL     1       7.150  31.691  59.696  1.00  0.00     0.016 A 
ENDBRANCH  12  15
ENDBRANCH   9  10
ENDBRANCH   4   9
BRANCH   1  21
HETATM   21  C   UNL     1       8.167  24.345  55.651  1.00  0.00     0.135 C 
HETATM   22  C   UNL     1       9.064  24.360  56.886  1.00  0.00     0.038 C 
BRANCH  21  23
HETATM   23  C   UNL     1       8.226  23.019  54.947  1.00  0.00     0.005 A 
HETATM   24  S   UNL     1       8.281  21.539  55.813  1.00  0.00    -0.104 SA
HETATM   25  C   UNL     1       8.338  20.620  54.375  1.00  0.00     0.050 A 
HETATM   26  C   UNL     1       8.315  21.415  53.253  1.00  0.00     0.008 A 
HETATM   27  C   UNL     1       8.252  22.800  53.580  1.00  0.00     0.017 A 
ENDBRANCH  21  23
ENDBRANCH   1  21
TORSDOF 5
ENDMDL
MODEL 8
REMARK VINA RESULT:      -8.1      5.087      8.427
REMARK  5 active torsions:
REMARK  status: ('A' for Active; 'I' for Inactive)
REMARK    1  A    between atoms: C_2  and  N_3 
REMARK    2  A    between atoms: C_2  and  C_21 
REMARK       I    between atoms: N_3  and  C_5 
REMARK       I    between atoms: C_5  and  N_6 
REMARK    3  A    between atoms: N_6  and  C_7 
REMARK    4  A    between atoms: C_7  and  C_8 
REMARK    5  A    between atoms: C_10  and  C_11 
ROOT
HETATM    1  N   UNL     1       7.310  25.278  55.082  1.00  0.00    -0.218 N 
HETATM    2  H   UNL     1       8.173  25.105  55.573  1.00  0.00     0.178 HD
HETATM    3  C   UNL     1       6.520  26.280  55.543  1.00  0.00     0.670 C 
HETATM    4  N   UNL     1       5.283  26.464  55.031  1.00  0.00    -0.221 N 
HETATM    5  N   UNL     1       6.980  27.083  56.542  1.00  0.00    -0.231 N 
HETATM    6  C   UNL     1       8.296  26.972  57.166  1.00  0.00     0.165 C 
HETATM    7  H   UNL     1       4.905  25.720  54.462  1.00  0.00     0.178 HD
HETATM    8  H   UNL     1       6.381  27.829  56.861  1.00  0.00     0.177 HD
ENDROOT
BRANCH   4   9
HETATM    9  C   UNL     1       4.509  27.706  55.084  1.00  0.00     0.199 C 
BRANCH   9  10
HETATM   10  C   UNL     1       4.359  28.204  53.694  1.00  0.00     0.077 A 
HETATM   11  N   UNL     1       4.913  27.519  52.625  1.00  0.00    -0.225 NA
HETATM   12  C   UNL     1       4.498  28.190  51.563  1.00  0.00     0.179 A 
HETATM   13  O   UNL     1       3.748  29.296  51.868  1.00  0.00    -0.301 OA
HETATM   14  C   UNL     1       3.668  29.296  53.227  1.00  0.00     0.173 A 
BRANCH  12  15
HETATM   15  C   UNL     1       4.701  27.895  50.147  1.00  0.00     0.017 A 
HETATM   16  C   UNL     1       4.439  26.604  49.661  1.00  0.00     0.016 A 
HETATM   17  C   UNL     1       4.598  26.302  48.306  1.00  0.00     0.001 A 
HETATM   18  C   UNL     1       5.018  27.289  47.418  1.00  0.00     0.000 A 
HETATM   19  C   UNL     1       5.283  28.576  47.883  1.00  0.00     0.001 A 
HETATM   20  C   UNL     1       5.126  28.877  49.240  1.00  0.00     0.016 A 
ENDBRANCH  12  15
ENDBRANCH   9  10
ENDBRANCH   4   9
BRANCH   1  21
HETATM   21  C   UNL     1       7.108  24.571  53.804  1.00  0.00     0.135 C 
HETATM   22  C   UNL     1       7.890  25.261  52.689  1.00  0.00     0.038 C 
BRANCH  21  23
HETATM   23  C   UNL     1       7.494  23.125  53.932  1.00  0.00     0.005 A 
HETATM   24  S   UNL     1       7.630  22.360  55.462  1.00  0.00    -0.104 SA
HETATM   25  C   UNL     1       8.079  20.872  54.755  1.00  0.00     0.050 A 
HETATM   26  C   UNL     1       8.126  20.947  53.382  1.00  0.00     0.008 A 
HETATM   27  C   UNL     1       7.792  22.246  52.905  1.00  0.00     0.017 A 
ENDBRANCH  21  23
ENDBRANCH   1  21
TORSDOF 5
ENDMDL
MODEL 9
REMARK VINA RESULT:      -8.0      5.862      8.103
REMARK  5 active torsions:
REMARK  status: ('A' for Active; 'I' for Inactive)
REMARK    1  A    between atoms: C_2  and  N_3 
REMARK    2  A    between atoms: C_2  and  C_21 
REMARK       I    between atoms: N_3  and  C_5 
REMARK       I    between atoms: C_5  and  N_6 
REMARK    3  A    between atoms: N_6  and  C_7 
REMARK    4  A    between atoms: C_7  and  C_8 
REMARK    5  A    between atoms: C_10  and  C_11 
ROOT
HETATM    1  N   UNL     1       3.554  29.487  51.220  1.00  0.00    -0.218 N 
HETATM    2  H   UNL     1       3.311  30.460  51.117  1.00  0.00     0.178 HD
HETATM    3  C   UNL     1       4.329  29.147  52.280  1.00  0.00     0.670 C 
HETATM    4  N   UNL     1       4.818  27.892  52.392  1.00  0.00    -0.221 N 
HETATM    5  N   UNL     1       4.627  30.090  53.217  1.00  0.00    -0.231 N 
HETATM    6  C   UNL     1       4.153  31.471  53.192  1.00  0.00     0.165 C 
HETATM    7  H   UNL     1       4.760  27.301  51.575  1.00  0.00     0.178 HD
HETATM    8  H   UNL     1       5.196  29.812  54.002  1.00  0.00     0.177 HD
ENDROOT
BRANCH   4   9
HETATM    9  C   UNL     1       5.271  27.256  53.631  1.00  0.00     0.199 C 
BRANCH   9  10
HETATM   10  C   UNL     1       6.086  26.072  53.259  1.00  0.00     0.077 A 
HETATM   11  N   UNL     1       6.360  25.074  54.179  1.00  0.00    -0.225 NA
HETATM   12  C   UNL     1       7.009  24.159  53.479  1.00  0.00     0.179 A 
HETATM   13  O   UNL     1       7.218  24.512  52.171  1.00  0.00    -0.301 OA
HETATM   14  C   UNL     1       6.629  25.732  52.044  1.00  0.00     0.173 A 
BRANCH  12  15
HETATM   15  C   UNL     1       7.486  22.843  53.895  1.00  0.00     0.017 A 
HETATM   16  C   UNL     1       7.482  22.501  55.257  1.00  0.00     0.016 A 
HETATM   17  C   UNL     1       7.908  21.239  55.681  1.00  0.00     0.001 A 
HETATM   18  C   UNL     1       8.341  20.302  54.747  1.00  0.00     0.000 A 
HETATM   19  C   UNL     1       8.353  20.624  53.391  1.00  0.00     0.001 A 
HETATM   20  C   UNL     1       7.929  21.888  52.969  1.00  0.00     0.016 A 
ENDBRANCH  12  15
ENDBRANCH   9  10
ENDBRANCH   4   9
BRANCH   1  21
HETATM   21  C   UNL     1       2.868  28.524  50.339  1.00  0.00     0.135 C 
HETATM   22  C   UNL     1       1.580  29.133  49.792  1.00  0.00     0.038 C 
BRANCH  21  23
HETATM   23  C   UNL     1       3.780  28.080  49.231  1.00  0.00     0.005 A 
HETATM   24  S   UNL     1       4.649  29.206  48.272  1.00  0.00    -0.104 SA
HETATM   25  C   UNL     1       5.358  27.966  47.336  1.00  0.00     0.050 A 
HETATM   26  C   UNL     1       4.947  26.716  47.739  1.00  0.00     0.008 A 
HETATM   27  C   UNL     1       4.035  26.780  48.830  1.00  0.00     0.017 A 
ENDBRANCH  21  23
ENDBRANCH   1  21
TORSDOF 5
ENDMDL
MODEL 10
REMARK VINA RESULT:      -8.0      2.227      4.326
REMARK  5 active torsions:
REMARK  status: ('A' for Active; 'I' for Inactive)
REMARK    1  A    between atoms: C_2  and  N_3 
REMARK    2  A    between atoms: C_2  and  C_21 
REMARK       I    between atoms: N_3  and  C_5 
REMARK       I    between atoms: C_5  and  N_6 
REMARK    3  A    between atoms: N_6  and  C_7 
REMARK    4  A    between atoms: C_7  and  C_8 
REMARK    5  A    between atoms: C_10  and  C_11 
ROOT
HETATM    1  N   UNL     1       6.004  30.364  57.748  1.00  0.00    -0.218 N 
HETATM    2  H   UNL     1       6.244  31.292  58.060  1.00  0.00     0.178 HD
HETATM    3  C   UNL     1       6.971  29.414  57.821  1.00  0.00     0.670 C 
HETATM    4  N   UNL     1       6.768  28.193  57.278  1.00  0.00    -0.221 N 
HETATM    5  N   UNL     1       8.153  29.713  58.425  1.00  0.00    -0.231 N 
HETATM    6  C   UNL     1       8.477  30.997  59.040  1.00  0.00     0.165 C 
HETATM    7  H   UNL     1       5.979  28.091  56.655  1.00  0.00     0.178 HD
HETATM    8  H   UNL     1       8.853  28.988  58.477  1.00  0.00     0.177 HD
ENDROOT
BRANCH   4   9
HETATM    9  C   UNL     1       7.481  26.965  57.639  1.00  0.00     0.199 C 
BRANCH   9  10
HETATM   10  C   UNL     1       7.563  26.118  56.423  1.00  0.00     0.077 A 
HETATM   11  N   UNL     1       7.823  24.760  56.513  1.00  0.00    -0.225 NA
HETATM   12  C   UNL     1       7.724  24.329  55.267  1.00  0.00     0.179 A 
HETATM   13  O   UNL     1       7.462  25.323  54.360  1.00  0.00    -0.301 OA
HETATM   14  C   UNL     1       7.365  26.456  55.106  1.00  0.00     0.173 A 
BRANCH  12  15
HETATM   15  C   UNL     1       7.820  22.967  54.750  1.00  0.00     0.017 A 
HETATM   16  C   UNL     1       8.029  22.756  53.378  1.00  0.00     0.016 A 
HETATM   17  C   UNL     1       8.153  21.464  52.861  1.00  0.00     0.001 A 
HETATM   18  C   UNL     1       8.071  20.364  53.711  1.00  0.00     0.000 A 
HETATM   19  C   UNL     1       7.863  20.554  55.076  1.00  0.00     0.001 A 
HETATM   20  C   UNL     1       7.737  21.847  55.592  1.00  0.00     0.016 A 
ENDBRANCH  12  15
ENDBRANCH   9  10
ENDBRANCH   4   9
BRANCH   1  21
HETATM   21  C   UNL     1       4.585  30.096  57.455  1.00  0.00     0.135 C 
HETATM   22  C   UNL     1       3.690  30.960  58.340  1.00  0.00     0.038 C 
BRANCH  21  23
HETATM   23  C   UNL     1       4.295  30.316  55.998  1.00  0.00     0.005 A 
HETATM   24  S   UNL     1       4.129  29.006  54.903  1.00  0.00    -0.104 SA
HETATM   25  C   UNL     1       3.848  30.054  53.584  1.00  0.00     0.050 A 
HETATM   26  C   UNL     1       3.877  31.377  53.961  1.00  0.00     0.008 A 
HETATM   27  C   UNL     1       4.137  31.531  55.352  1.00  0.00     0.017 A 
ENDBRANCH  21  23
ENDBRANCH   1  21
TORSDOF 5
ENDMDL
