MODEL 1
REMARK VINA RESULT:     -10.5      0.000      0.000
REMARK  8 active torsions:
REMARK  status: ('A' for Active; 'I' for Inactive)
REMARK    1  A    between atoms: C_6  and  N_7 
REMARK       I    between atoms: N_7  and  C_8 
REMARK    2  A    between atoms: C_8  and  C_9 
REMARK    3  A    between atoms: C_9  and  N_10 
REMARK    4  A    between atoms: C_13  and  C_14 
REMARK       I    between atoms: C_14  and  N_15 
REMARK    5  A    between atoms: N_15  and  C_16 
REMARK    6  A    between atoms: C_16  and  C_17 
REMARK    7  A    between atoms: C_19  and  O_20 
REMARK    8  A    between atoms: C_26  and  N_27 
ROOT
HETATM    1  N   UNL     1       6.907  28.425  57.166  1.00  0.00    -0.248 N 
HETATM    2  N   UNL     1       8.166  27.940  57.207  1.00  0.00     0.007 NA
HETATM    3  N   UNL     1       8.866  28.709  58.023  1.00  0.00    -0.150 NA
HETATM    4  C   UNL     1       8.063  29.743  58.446  1.00  0.00     0.186 A 
HETATM    5  C   UNL     1       6.785  29.566  57.929  1.00  0.00     0.151 A 
ENDROOT
BRANCH   1   6
HETATM    6  C   UNL     1       5.950  27.790  56.288  1.00  0.00     0.251 C 
BRANCH   6   7
HETATM    7  C   UNL     1       6.129  26.285  56.183  1.00  0.00     0.241 C 
HETATM    8  N   UNL     1       7.100  25.890  55.278  1.00  0.00    -0.326 N 
HETATM    9  H   UNL     1       7.744  26.619  54.965  1.00  0.00     0.169 HD
HETATM   10  O   UNL     1       5.383  25.537  56.809  1.00  0.00    -0.271 OA
BRANCH   8  11
HETATM   11  C   UNL     1       7.376  24.592  54.803  1.00  0.00     0.036 A 
HETATM   12  C   UNL     1       7.468  23.462  55.614  1.00  0.00     0.053 A 
HETATM   13  C   UNL     1       7.698  22.201  55.047  1.00  0.00     0.042 A 
HETATM   14  C   UNL     1       7.848  22.048  53.660  1.00  0.00    -0.040 A 
HETATM   15 CL   UNL     1       7.778  20.840  56.110  1.00  0.00    -0.084 Cl
HETATM   16  C   UNL     1       8.075  20.707  53.023  1.00  0.00     0.050 C 
HETATM   17  C   UNL     1       7.761  23.190  52.853  1.00  0.00     0.011 A 
HETATM   18  C   UNL     1       7.527  24.445  53.420  1.00  0.00     0.030 A 
ENDBRANCH   8  11
ENDBRANCH   6   7
ENDBRANCH   1   6
BRANCH   5  19
HETATM   19  N   UNL     1       5.626  30.262  58.071  1.00  0.00    -0.382 N 
HETATM   20  H   UNL     1       5.292  30.470  59.013  1.00  0.00     0.157 HD
HETATM   21  H   UNL     1       4.833  30.105  57.449  1.00  0.00     0.157 HD
ENDBRANCH   5  19
BRANCH   4  22
HETATM   22  C   UNL     1       8.580  30.809  59.294  1.00  0.00     0.275 C 
HETATM   23  N   UNL     1       8.571  30.533  60.646  1.00  0.00    -0.351 N 
HETATM   24  H   UNL     1       8.184  29.655  60.968  1.00  0.00     0.163 HD
HETATM   25  O   UNL     1       8.959  31.887  58.844  1.00  0.00    -0.266 OA
BRANCH  23  26
HETATM   26  C   UNL     1       9.019  31.508  61.612  1.00  0.00     0.161 C 
BRANCH  26  27
HETATM   27  C   UNL     1       7.883  31.981  62.481  1.00  0.00    -0.038 A 
HETATM   28  C   UNL     1       6.555  31.660  62.142  1.00  0.00     0.045 A 
HETATM   29  C   UNL     1       5.490  32.112  62.926  1.00  0.00     0.068 A 
HETATM   30  C   UNL     1       5.756  32.887  64.056  1.00  0.00     0.037 A 
HETATM   31  C   UNL     1       7.068  33.211  64.404  1.00  0.00     0.003 A 
HETATM   32  C   UNL     1       8.128  32.759  63.621  1.00  0.00     0.009 A 
BRANCH  29  33
HETATM   33  O   UNL     1       4.164  31.871  62.698  1.00  0.00    -0.356 OA
HETATM   34  C   UNL     1       3.636  32.297  61.448  1.00  0.00     0.210 C 
ENDBRANCH  29  33
ENDBRANCH  26  27
ENDBRANCH  23  26
ENDBRANCH   4  22
TORSDOF 8
ENDMDL
MODEL 2
REMARK VINA RESULT:     -10.1      1.138      1.591
REMARK  8 active torsions:
REMARK  status: ('A' for Active; 'I' for Inactive)
REMARK    1  A    between atoms: C_6  and  N_7 
REMARK       I    between atoms: N_7  and  C_8 
REMARK    2  A    between atoms: C_8  and  C_9 
REMARK    3  A    between atoms: C_9  and  N_10 
REMARK    4  A    between atoms: C_13  and  C_14 
REMARK       I    between atoms: C_14  and  N_15 
REMARK    5  A    between atoms: N_15  and  C_16 
REMARK    6  A    between atoms: C_16  and  C_17 
REMARK    7  A    between atoms: C_19  and  O_20 
REMARK    8  A    between atoms: C_26  and  N_27 
ROOT
HETATM    1  N   UNL     1       7.356  28.652  56.734  1.00  0.00    -0.248 N 
HETATM    2  N   UNL     1       8.639  28.312  56.487  1.00  0.00     0.007 NA
HETATM    3  N   UNL     1       9.396  28.924  57.381  1.00  0.00    -0.150 NA
HETATM    4  C   UNL     1       8.592  29.727  58.158  1.00  0.00     0.186 A 
HETATM    5  C   UNL     1       7.267  29.546  57.778  1.00  0.00     0.151 A 
ENDROOT
BRANCH   1   6
HETATM    6  C   UNL     1       6.327  28.154  55.849  1.00  0.00     0.251 C 
BRANCH   6   7
HETATM    7  C   UNL     1       6.293  26.639  55.750  1.00  0.00     0.241 C 
HETATM    8  N   UNL     1       7.385  26.087  55.103  1.00  0.00    -0.326 N 
HETATM    9  H   UNL     1       8.191  26.702  54.980  1.00  0.00     0.169 HD
HETATM   10  O   UNL     1       5.308  26.023  56.150  1.00  0.00    -0.271 OA
BRANCH   8  11
HETATM   11  C   UNL     1       7.568  24.756  54.675  1.00  0.00     0.036 A 
HETATM   12  C   UNL     1       7.603  23.654  55.529  1.00  0.00     0.053 A 
HETATM   13  C   UNL     1       7.740  22.360  55.009  1.00  0.00     0.042 A 
HETATM   14  C   UNL     1       7.852  22.144  53.626  1.00  0.00    -0.040 A 
HETATM   15 CL   UNL     1       7.754  21.039  56.124  1.00  0.00    -0.084 Cl
HETATM   16  C   UNL     1       7.979  20.767  53.040  1.00  0.00     0.050 C 
HETATM   17  C   UNL     1       7.822  23.257  52.776  1.00  0.00     0.011 A 
HETATM   18  C   UNL     1       7.680  24.546  53.297  1.00  0.00     0.030 A 
ENDBRANCH   8  11
ENDBRANCH   6   7
ENDBRANCH   1   6
BRANCH   5  19
HETATM   19  N   UNL     1       6.096  30.054  58.243  1.00  0.00    -0.382 N 
HETATM   20  H   UNL     1       6.122  30.703  59.031  1.00  0.00     0.157 HD
HETATM   21  H   UNL     1       5.252  29.482  58.293  1.00  0.00     0.157 HD
ENDBRANCH   5  19
BRANCH   4  22
HETATM   22  C   UNL     1       9.151  30.598  59.183  1.00  0.00     0.275 C 
HETATM   23  N   UNL     1       8.744  30.318  60.471  1.00  0.00    -0.351 N 
HETATM   24  H   UNL     1       8.072  29.576  60.625  1.00  0.00     0.163 HD
HETATM   25  O   UNL     1       9.899  31.536  58.918  1.00  0.00    -0.266 OA
BRANCH  23  26
HETATM   26  C   UNL     1       9.185  31.119  61.587  1.00  0.00     0.161 C 
BRANCH  26  27
HETATM   27  C   UNL     1       8.103  32.059  62.051  1.00  0.00    -0.038 A 
HETATM   28  C   UNL     1       8.082  32.506  63.385  1.00  0.00     0.045 A 
HETATM   29  C   UNL     1       7.071  33.359  63.836  1.00  0.00     0.068 A 
HETATM   30  C   UNL     1       6.077  33.768  62.945  1.00  0.00     0.037 A 
HETATM   31  C   UNL     1       6.087  33.333  61.619  1.00  0.00     0.003 A 
HETATM   32  C   UNL     1       7.097  32.482  61.172  1.00  0.00     0.009 A 
BRANCH  29  33
HETATM   33  O   UNL     1       6.941  33.856  65.103  1.00  0.00    -0.356 OA
HETATM   34  C   UNL     1       5.634  33.862  65.662  1.00  0.00     0.210 C 
ENDBRANCH  29  33
ENDBRANCH  26  27
ENDBRANCH  23  26
ENDBRANCH   4  22
TORSDOF 8
ENDMDL
MODEL 3
REMARK VINA RESULT:     -10.1      3.095     10.445
REMARK  8 active torsions:
REMARK  status: ('A' for Active; 'I' for Inactive)
REMARK    1  A    between atoms: C_6  and  N_7 
REMARK       I    between atoms: N_7  and  C_8 
REMARK    2  A    between atoms: C_8  and  C_9 
REMARK    3  A    between atoms: C_9  and  N_10 
REMARK    4  A    between atoms: C_13  and  C_14 
REMARK       I    between atoms: C_14  and  N_15 
REMARK    5  A    between atoms: N_15  and  C_16 
REMARK    6  A    between atoms: C_16  and  C_17 
REMARK    7  A    between atoms: C_19  and  O_20 
REMARK    8  A    between atoms: C_26  and  N_27 
ROOT
HETATM    1  N   UNL     1       9.126  29.698  58.090  1.00  0.00    -0.248 N 
HETATM    2  N   UNL     1       8.012  29.192  58.662  1.00  0.00     0.007 NA
HETATM    3  N   UNL     1       7.389  28.463  57.753  1.00  0.00    -0.150 NA
HETATM    4  C   UNL     1       8.073  28.568  56.563  1.00  0.00     0.186 A 
HETATM    5  C   UNL     1       9.214  29.337  56.763  1.00  0.00     0.151 A 
ENDROOT
BRANCH   1   6
HETATM    6  C   UNL     1       9.959  30.589  58.866  1.00  0.00     0.251 C 
BRANCH   6   7
HETATM    7  C   UNL     1       9.170  31.601  59.680  1.00  0.00     0.241 C 
HETATM    8  N   UNL     1       8.736  31.129  60.907  1.00  0.00    -0.326 N 
HETATM    9  H   UNL     1       9.177  30.269  61.238  1.00  0.00     0.169 HD
HETATM   10  O   UNL     1       8.899  32.696  59.194  1.00  0.00    -0.271 OA
BRANCH   8  11
HETATM   11  C   UNL     1       7.830  31.730  61.804  1.00  0.00     0.036 A 
HETATM   12  C   UNL     1       6.458  31.839  61.580  1.00  0.00     0.053 A 
HETATM   13  C   UNL     1       5.625  32.410  62.552  1.00  0.00     0.042 A 
HETATM   14  C   UNL     1       6.150  32.888  63.763  1.00  0.00    -0.040 A 
HETATM   15 CL   UNL     1       3.931  32.493  62.216  1.00  0.00    -0.084 Cl
HETATM   16  C   UNL     1       5.278  33.486  64.831  1.00  0.00     0.050 C 
HETATM   17  C   UNL     1       7.530  32.781  63.978  1.00  0.00     0.011 A 
HETATM   18  C   UNL     1       8.357  32.207  63.009  1.00  0.00     0.030 A 
ENDBRANCH   8  11
ENDBRANCH   6   7
ENDBRANCH   1   6
BRANCH   5  19
HETATM   19  N   UNL     1      10.235  29.704  55.944  1.00  0.00    -0.382 N 
HETATM   20  H   UNL     1      10.469  29.102  55.153  1.00  0.00     0.157 HD
HETATM   21  H   UNL     1      11.082  30.135  56.314  1.00  0.00     0.157 HD
ENDBRANCH   5  19
BRANCH   4  22
HETATM   22  C   UNL     1       7.581  27.940  55.345  1.00  0.00     0.275 C 
HETATM   23  N   UNL     1       6.691  26.905  55.543  1.00  0.00    -0.351 N 
HETATM   24  H   UNL     1       6.467  26.621  56.489  1.00  0.00     0.163 HD
HETATM   25  O   UNL     1       7.957  28.280  54.226  1.00  0.00    -0.266 OA
BRANCH  23  26
HETATM   26  C   UNL     1       6.146  26.162  54.432  1.00  0.00     0.161 C 
BRANCH  26  27
HETATM   27  C   UNL     1       6.853  24.844  54.252  1.00  0.00    -0.038 A 
HETATM   28  C   UNL     1       7.070  24.003  55.360  1.00  0.00     0.045 A 
HETATM   29  C   UNL     1       7.745  22.790  55.213  1.00  0.00     0.068 A 
HETATM   30  C   UNL     1       8.205  22.414  53.949  1.00  0.00     0.037 A 
HETATM   31  C   UNL     1       7.996  23.237  52.842  1.00  0.00     0.003 A 
HETATM   32  C   UNL     1       7.321  24.448  52.992  1.00  0.00     0.009 A 
BRANCH  29  33
HETATM   33  O   UNL     1       8.019  21.894  56.209  1.00  0.00    -0.356 OA
HETATM   34  C   UNL     1       8.911  20.832  55.894  1.00  0.00     0.210 C 
ENDBRANCH  29  33
ENDBRANCH  26  27
ENDBRANCH  23  26
ENDBRANCH   4  22
TORSDOF 8
ENDMDL
MODEL 4
REMARK VINA RESULT:      -9.5      3.557     10.868
REMARK  8 active torsions:
REMARK  status: ('A' for Active; 'I' for Inactive)
REMARK    1  A    between atoms: C_6  and  N_7 
REMARK       I    between atoms: N_7  and  C_8 
REMARK    2  A    between atoms: C_8  and  C_9 
REMARK    3  A    between atoms: C_9  and  N_10 
REMARK    4  A    between atoms: C_13  and  C_14 
REMARK       I    between atoms: C_14  and  N_15 
REMARK    5  A    between atoms: N_15  and  C_16 
REMARK    6  A    between atoms: C_16  and  C_17 
REMARK    7  A    between atoms: C_19  and  O_20 
REMARK    8  A    between atoms: C_26  and  N_27 
ROOT
HETATM    1  N   UNL     1       6.444  30.047  57.803  1.00  0.00    -0.248 N 
HETATM    2  N   UNL     1       5.272  29.455  57.487  1.00  0.00     0.007 NA
HETATM    3  N   UNL     1       5.499  28.160  57.356  1.00  0.00    -0.150 NA
HETATM    4  C   UNL     1       6.848  27.934  57.514  1.00  0.00     0.186 A 
HETATM    5  C   UNL     1       7.475  29.134  57.832  1.00  0.00     0.151 A 
ENDROOT
BRANCH   1   6
HETATM    6  C   UNL     1       6.476  31.486  57.943  1.00  0.00     0.251 C 
BRANCH   6   7
HETATM    7  C   UNL     1       7.114  31.956  59.239  1.00  0.00     0.241 C 
HETATM    8  N   UNL     1       6.254  31.970  60.324  1.00  0.00    -0.326 N 
HETATM    9  H   UNL     1       5.380  31.453  60.210  1.00  0.00     0.169 HD
HETATM   10  O   UNL     1       8.274  32.359  59.236  1.00  0.00    -0.271 OA
BRANCH   8  11
HETATM   11  C   UNL     1       6.466  32.527  61.601  1.00  0.00     0.036 A 
HETATM   12  C   UNL     1       5.756  33.612  62.112  1.00  0.00     0.053 A 
HETATM   13  C   UNL     1       6.002  34.068  63.415  1.00  0.00     0.042 A 
HETATM   14  C   UNL     1       6.967  33.452  64.227  1.00  0.00    -0.040 A 
HETATM   15 CL   UNL     1       5.069  35.404  63.992  1.00  0.00    -0.084 Cl
HETATM   16  C   UNL     1       7.238  33.907  65.633  1.00  0.00     0.050 C 
HETATM   17  C   UNL     1       7.681  32.366  63.703  1.00  0.00     0.011 A 
HETATM   18  C   UNL     1       7.430  31.910  62.406  1.00  0.00     0.030 A 
ENDBRANCH   8  11
ENDBRANCH   6   7
ENDBRANCH   1   6
BRANCH   5  19
HETATM   19  N   UNL     1       8.763  29.452  58.125  1.00  0.00    -0.382 N 
HETATM   20  H   UNL     1       9.505  29.104  57.517  1.00  0.00     0.157 HD
HETATM   21  H   UNL     1       9.093  29.488  59.090  1.00  0.00     0.157 HD
ENDBRANCH   5  19
BRANCH   4  22
HETATM   22  C   UNL     1       7.422  26.607  57.340  1.00  0.00     0.275 C 
HETATM   23  N   UNL     1       6.520  25.626  56.981  1.00  0.00    -0.351 N 
HETATM   24  H   UNL     1       5.539  25.863  56.899  1.00  0.00     0.163 HD
HETATM   25  O   UNL     1       8.610  26.369  57.536  1.00  0.00    -0.266 OA
BRANCH  23  26
HETATM   26  C   UNL     1       6.935  24.254  56.809  1.00  0.00     0.161 C 
BRANCH  26  27
HETATM   27  C   UNL     1       7.230  23.945  55.364  1.00  0.00    -0.038 A 
HETATM   28  C   UNL     1       8.058  22.857  55.030  1.00  0.00     0.045 A 
HETATM   29  C   UNL     1       8.359  22.573  53.697  1.00  0.00     0.068 A 
HETATM   30  C   UNL     1       7.827  23.382  52.691  1.00  0.00     0.037 A 
HETATM   31  C   UNL     1       7.003  24.462  53.008  1.00  0.00     0.003 A 
HETATM   32  C   UNL     1       6.704  24.743  54.339  1.00  0.00     0.009 A 
BRANCH  29  33
HETATM   33  O   UNL     1       9.151  21.552  53.249  1.00  0.00    -0.356 OA
HETATM   34  C   UNL     1       8.523  20.293  53.041  1.00  0.00     0.210 C 
ENDBRANCH  29  33
ENDBRANCH  26  27
ENDBRANCH  23  26
ENDBRANCH   4  22
TORSDOF 8
ENDMDL
MODEL 5
REMARK VINA RESULT:      -9.3      5.319      9.661
REMARK  8 active torsions:
REMARK  status: ('A' for Active; 'I' for Inactive)
REMARK    1  A    between atoms: C_6  and  N_7 
REMARK       I    between atoms: N_7  and  C_8 
REMARK    2  A    between atoms: C_8  and  C_9 
REMARK    3  A    between atoms: C_9  and  N_10 
REMARK    4  A    between atoms: C_13  and  C_14 
REMARK       I    between atoms: C_14  and  N_15 
REMARK    5  A    between atoms: N_15  and  C_16 
REMARK    6  A    between atoms: C_16  and  C_17 
REMARK    7  A    between atoms: C_19  and  O_20 
REMARK    8  A    between atoms: C_26  and  N_27 
ROOT
HETATM    1  N   UNL     1       6.405  28.032  54.887  1.00  0.00    -0.248 N 
HETATM    2  N   UNL     1       7.227  28.244  53.837  1.00  0.00     0.007 NA
HETATM    3  N   UNL     1       6.481  28.618  52.812  1.00  0.00    -0.150 NA
HETATM    4  C   UNL     1       5.158  28.567  53.192  1.00  0.00     0.186 A 
HETATM    5  C   UNL     1       5.086  28.219  54.536  1.00  0.00     0.151 A 
ENDROOT
BRANCH   1   6
HETATM    6  C   UNL     1       6.976  27.552  56.126  1.00  0.00     0.251 C 
BRANCH   6   7
HETATM    7  C   UNL     1       7.630  26.187  56.003  1.00  0.00     0.241 C 
HETATM    8  N   UNL     1       7.332  25.517  54.828  1.00  0.00    -0.326 N 
HETATM    9  H   UNL     1       6.920  26.081  54.083  1.00  0.00     0.169 HD
HETATM   10  O   UNL     1       8.284  25.737  56.941  1.00  0.00    -0.271 OA
BRANCH   8  11
HETATM   11  C   UNL     1       7.607  24.176  54.492  1.00  0.00     0.036 A 
HETATM   12  C   UNL     1       7.519  23.109  55.384  1.00  0.00     0.053 A 
HETATM   13  C   UNL     1       7.765  21.800  54.948  1.00  0.00     0.042 A 
HETATM   14  C   UNL     1       8.110  21.535  53.613  1.00  0.00    -0.040 A 
HETATM   15 CL   UNL     1       7.616  20.522  56.103  1.00  0.00    -0.084 Cl
HETATM   16  C   UNL     1       8.359  20.140  53.113  1.00  0.00     0.050 C 
HETATM   17  C   UNL     1       8.203  22.614  52.725  1.00  0.00     0.011 A 
HETATM   18  C   UNL     1       7.953  23.918  53.161  1.00  0.00     0.030 A 
ENDBRANCH   8  11
ENDBRANCH   6   7
ENDBRANCH   1   6
BRANCH   5  19
HETATM   19  N   UNL     1       4.045  28.076  55.397  1.00  0.00    -0.382 N 
HETATM   20  H   UNL     1       4.210  27.617  56.294  1.00  0.00     0.157 HD
HETATM   21  H   UNL     1       3.107  27.855  55.062  1.00  0.00     0.157 HD
ENDBRANCH   5  19
BRANCH   4  22
HETATM   22  C   UNL     1       4.085  28.844  52.247  1.00  0.00     0.275 C 
HETATM   23  N   UNL     1       4.481  28.943  50.929  1.00  0.00    -0.351 N 
HETATM   24  H   UNL     1       5.465  28.861  50.702  1.00  0.00     0.163 HD
HETATM   25  O   UNL     1       2.921  29.014  52.600  1.00  0.00    -0.266 OA
BRANCH  23  26
HETATM   26  C   UNL     1       3.535  29.250  49.884  1.00  0.00     0.161 C 
BRANCH  26  27
HETATM   27  C   UNL     1       3.332  28.076  48.963  1.00  0.00    -0.038 A 
HETATM   28  C   UNL     1       2.212  28.032  48.111  1.00  0.00     0.045 A 
HETATM   29  C   UNL     1       1.999  26.939  47.269  1.00  0.00     0.068 A 
HETATM   30  C   UNL     1       2.913  25.883  47.277  1.00  0.00     0.037 A 
HETATM   31  C   UNL     1       4.028  25.914  48.115  1.00  0.00     0.003 A 
HETATM   32  C   UNL     1       4.238  27.007  48.955  1.00  0.00     0.009 A 
BRANCH  29  33
HETATM   33  O   UNL     1       0.952  26.780  46.404  1.00  0.00    -0.356 OA
HETATM   34  C   UNL     1      -0.084  27.752  46.461  1.00  0.00     0.210 C 
ENDBRANCH  29  33
ENDBRANCH  26  27
ENDBRANCH  23  26
ENDBRANCH   4  22
TORSDOF 8
ENDMDL
MODEL 6
REMARK VINA RESULT:      -9.2      1.922      2.755
REMARK  8 active torsions:
REMARK  status: ('A' for Active; 'I' for Inactive)
REMARK    1  A    between atoms: C_6  and  N_7 
REMARK       I    between atoms: N_7  and  C_8 
REMARK    2  A    between atoms: C_8  and  C_9 
REMARK    3  A    between atoms: C_9  and  N_10 
REMARK    4  A    between atoms: C_13  and  C_14 
REMARK       I    between atoms: C_14  and  N_15 
REMARK    5  A    between atoms: N_15  and  C_16 
REMARK    6  A    between atoms: C_16  and  C_17 
REMARK    7  A    between atoms: C_19  and  O_20 
REMARK    8  A    between atoms: C_26  and  N_27 
ROOT
HETATM    1  N   UNL     1       5.914  28.392  55.003  1.00  0.00    -0.248 N 
HETATM    2  N   UNL     1       6.531  27.894  56.095  1.00  0.00     0.007 NA
HETATM    3  N   UNL     1       6.456  28.804  57.050  1.00  0.00    -0.150 NA
HETATM    4  C   UNL     1       5.850  29.929  56.536  1.00  0.00     0.186 A 
HETATM    5  C   UNL     1       5.465  29.676  55.224  1.00  0.00     0.151 A 
ENDROOT
BRANCH   1   6
HETATM    6  C   UNL     1       5.912  27.605  53.790  1.00  0.00     0.251 C 
BRANCH   6   7
HETATM    7  C   UNL     1       5.954  26.107  54.040  1.00  0.00     0.241 C 
HETATM    8  N   UNL     1       7.230  25.594  54.200  1.00  0.00    -0.326 N 
HETATM    9  H   UNL     1       7.969  26.276  54.373  1.00  0.00     0.169 HD
HETATM   10  O   UNL     1       4.915  25.453  54.002  1.00  0.00    -0.271 OA
BRANCH   8  11
HETATM   11  C   UNL     1       7.629  24.243  54.248  1.00  0.00     0.036 A 
HETATM   12  C   UNL     1       7.815  23.520  55.426  1.00  0.00     0.053 A 
HETATM   13  C   UNL     1       8.166  22.164  55.376  1.00  0.00     0.042 A 
HETATM   14  C   UNL     1       8.344  21.507  54.149  1.00  0.00    -0.040 A 
HETATM   15 CL   UNL     1       8.359  21.325  56.876  1.00  0.00    -0.084 Cl
HETATM   16  C   UNL     1       8.699  20.050  54.065  1.00  0.00     0.050 C 
HETATM   17  C   UNL     1       8.161  22.242  52.970  1.00  0.00     0.011 A 
HETATM   18  C   UNL     1       7.806  23.593  53.022  1.00  0.00     0.030 A 
ENDBRANCH   8  11
ENDBRANCH   6   7
ENDBRANCH   1   6
BRANCH   5  19
HETATM   19  N   UNL     1       4.805  30.419  54.297  1.00  0.00    -0.382 N 
HETATM   20  H   UNL     1       3.835  30.682  54.480  1.00  0.00     0.157 HD
HETATM   21  H   UNL     1       4.937  30.260  53.298  1.00  0.00     0.157 HD
ENDBRANCH   5  19
BRANCH   4  22
HETATM   22  C   UNL     1       5.700  31.141  57.329  1.00  0.00     0.275 C 
HETATM   23  N   UNL     1       6.019  31.006  58.664  1.00  0.00    -0.351 N 
HETATM   24  H   UNL     1       6.292  30.097  59.017  1.00  0.00     0.163 HD
HETATM   25  O   UNL     1       5.284  32.195  56.854  1.00  0.00    -0.266 OA
BRANCH  23  26
HETATM   26  C   UNL     1       5.883  32.112  59.582  1.00  0.00     0.161 C 
BRANCH  26  27
HETATM   27  C   UNL     1       7.030  32.160  60.558  1.00  0.00    -0.038 A 
HETATM   28  C   UNL     1       6.779  32.317  61.934  1.00  0.00     0.045 A 
HETATM   29  C   UNL     1       7.833  32.387  62.848  1.00  0.00     0.068 A 
HETATM   30  C   UNL     1       9.146  32.297  62.382  1.00  0.00     0.037 A 
HETATM   31  C   UNL     1       9.409  32.139  61.021  1.00  0.00     0.003 A 
HETATM   32  C   UNL     1       8.355  32.069  60.111  1.00  0.00     0.009 A 
BRANCH  29  33
HETATM   33  O   UNL     1       7.717  32.542  64.201  1.00  0.00    -0.356 OA
HETATM   34  C   UNL     1       7.218  33.790  64.667  1.00  0.00     0.210 C 
ENDBRANCH  29  33
ENDBRANCH  26  27
ENDBRANCH  23  26
ENDBRANCH   4  22
TORSDOF 8
ENDMDL
MODEL 7
REMARK VINA RESULT:      -9.1      1.676      2.340
REMARK  8 active torsions:
REMARK  status: ('A' for Active; 'I' for Inactive)
REMARK    1  A    between atoms: C_6  and  N_7 
REMARK       I    between atoms: N_7  and  C_8 
REMARK    2  A    between atoms: C_8  and  C_9 
REMARK    3  A    between atoms: C_9  and  N_10 
REMARK    4  A    between atoms: C_13  and  C_14 
REMARK       I    between atoms: C_14  and  N_15 
REMARK    5  A    between atoms: N_15  and  C_16 
REMARK    6  A    between atoms: C_16  and  C_17 
REMARK    7  A    between atoms: C_19  and  O_20 
REMARK    8  A    between atoms: C_26  and  N_27 
ROOT
HETATM    1  N   UNL     1       7.551  28.535  57.480  1.00  0.00    -0.248 N 
HETATM    2  N   UNL     1       6.238  28.317  57.252  1.00  0.00     0.007 NA
HETATM    3  N   UNL     1       5.590  29.432  57.538  1.00  0.00    -0.150 NA
HETATM    4  C   UNL     1       6.492  30.349  58.030  1.00  0.00     0.186 A 
HETATM    5  C   UNL     1       7.769  29.802  57.974  1.00  0.00     0.151 A 
ENDROOT
BRANCH   1   6
HETATM    6  C   UNL     1       8.476  27.438  57.298  1.00  0.00     0.251 C 
BRANCH   6   7
HETATM    7  C   UNL     1       8.026  26.433  56.251  1.00  0.00     0.241 C 
HETATM    8  N   UNL     1       8.303  25.116  56.572  1.00  0.00    -0.326 N 
HETATM    9  H   UNL     1       8.548  24.934  57.547  1.00  0.00     0.169 HD
HETATM   10  O   UNL     1       7.545  26.830  55.193  1.00  0.00    -0.271 OA
BRANCH   8  11
HETATM   11  C   UNL     1       8.200  23.975  55.751  1.00  0.00     0.036 A 
HETATM   12  C   UNL     1       8.184  22.664  56.225  1.00  0.00     0.053 A 
HETATM   13  C   UNL     1       8.029  21.592  55.335  1.00  0.00     0.042 A 
HETATM   14  C   UNL     1       7.894  21.810  53.955  1.00  0.00    -0.040 A 
HETATM   15 CL   UNL     1       7.995  19.994  55.996  1.00  0.00    -0.084 Cl
HETATM   16  C   UNL     1       7.706  20.682  52.982  1.00  0.00     0.050 C 
HETATM   17  C   UNL     1       7.917  23.130  53.487  1.00  0.00     0.011 A 
HETATM   18  C   UNL     1       8.068  24.198  54.376  1.00  0.00     0.030 A 
ENDBRANCH   8  11
ENDBRANCH   6   7
ENDBRANCH   1   6
BRANCH   5  19
HETATM   19  N   UNL     1       8.997  30.292  58.290  1.00  0.00    -0.382 N 
HETATM   20  H   UNL     1       9.231  31.245  58.009  1.00  0.00     0.157 HD
HETATM   21  H   UNL     1       9.829  29.703  58.247  1.00  0.00     0.157 HD
ENDBRANCH   5  19
BRANCH   4  22
HETATM   22  C   UNL     1       6.063  31.653  58.514  1.00  0.00     0.275 C 
HETATM   23  N   UNL     1       5.935  31.752  59.884  1.00  0.00    -0.351 N 
HETATM   24  H   UNL     1       6.101  30.933  60.455  1.00  0.00     0.163 HD
HETATM   25  O   UNL     1       5.797  32.585  57.759  1.00  0.00    -0.266 OA
BRANCH  23  26
HETATM   26  C   UNL     1       5.482  32.973  60.508  1.00  0.00     0.161 C 
BRANCH  26  27
HETATM   27  C   UNL     1       5.901  33.039  61.953  1.00  0.00    -0.038 A 
HETATM   28  C   UNL     1       4.928  33.112  62.967  1.00  0.00     0.045 A 
HETATM   29  C   UNL     1       5.302  33.198  64.310  1.00  0.00     0.068 A 
HETATM   30  C   UNL     1       6.658  33.209  64.641  1.00  0.00     0.037 A 
HETATM   31  C   UNL     1       7.634  33.136  63.645  1.00  0.00     0.003 A 
HETATM   32  C   UNL     1       7.257  33.050  62.307  1.00  0.00     0.009 A 
BRANCH  29  33
HETATM   33  O   UNL     1       4.453  33.278  65.379  1.00  0.00    -0.356 OA
HETATM   34  C   UNL     1       4.909  34.009  66.511  1.00  0.00     0.210 C 
ENDBRANCH  29  33
ENDBRANCH  26  27
ENDBRANCH  23  26
ENDBRANCH   4  22
TORSDOF 8
ENDMDL
MODEL 8
REMARK VINA RESULT:      -8.8      3.710     10.960
REMARK  8 active torsions:
REMARK  status: ('A' for Active; 'I' for Inactive)
REMARK    1  A    between atoms: C_6  and  N_7 
REMARK       I    between atoms: N_7  and  C_8 
REMARK    2  A    between atoms: C_8  and  C_9 
REMARK    3  A    between atoms: C_9  and  N_10 
REMARK    4  A    between atoms: C_13  and  C_14 
REMARK       I    between atoms: C_14  and  N_15 
REMARK    5  A    between atoms: N_15  and  C_16 
REMARK    6  A    between atoms: C_16  and  C_17 
REMARK    7  A    between atoms: C_19  and  O_20 
REMARK    8  A    between atoms: C_26  and  N_27 
ROOT
HETATM    1  N   UNL     1       7.914  31.041  59.309  1.00  0.00    -0.248 N 
HETATM    2  N   UNL     1       8.721  29.965  59.429  1.00  0.00     0.007 NA
HETATM    3  N   UNL     1       8.300  29.050  58.572  1.00  0.00    -0.150 NA
HETATM    4  C   UNL     1       7.163  29.519  57.955  1.00  0.00     0.186 A 
HETATM    5  C   UNL     1       6.910  30.814  58.393  1.00  0.00     0.151 A 
ENDROOT
BRANCH   1   6
HETATM    6  C   UNL     1       8.130  32.168  60.189  1.00  0.00     0.251 C 
BRANCH   6   7
HETATM    7  C   UNL     1       7.373  32.066  61.502  1.00  0.00     0.241 C 
HETATM    8  N   UNL     1       6.702  33.222  61.863  1.00  0.00    -0.326 N 
HETATM    9  H   UNL     1       6.582  33.919  61.126  1.00  0.00     0.169 HD
HETATM   10  O   UNL     1       7.463  31.045  62.180  1.00  0.00    -0.271 OA
BRANCH   8  11
HETATM   11  C   UNL     1       6.080  33.524  63.090  1.00  0.00     0.036 A 
HETATM   12  C   UNL     1       6.752  33.627  64.307  1.00  0.00     0.053 A 
HETATM   13  C   UNL     1       6.057  33.981  65.472  1.00  0.00     0.042 A 
HETATM   14  C   UNL     1       4.676  34.233  65.442  1.00  0.00    -0.040 A 
HETATM   15 CL   UNL     1       6.958  34.111  66.942  1.00  0.00    -0.084 Cl
HETATM   16  C   UNL     1       3.910  34.634  66.670  1.00  0.00     0.050 C 
HETATM   17  C   UNL     1       4.007  34.122  64.217  1.00  0.00     0.011 A 
HETATM   18  C   UNL     1       4.703  33.773  63.056  1.00  0.00     0.030 A 
ENDBRANCH   8  11
ENDBRANCH   6   7
ENDBRANCH   1   6
BRANCH   5  19
HETATM   19  N   UNL     1       5.957  31.727  58.071  1.00  0.00    -0.382 N 
HETATM   20  H   UNL     1       5.514  32.259  58.822  1.00  0.00     0.157 HD
HETATM   21  H   UNL     1       5.281  31.548  57.328  1.00  0.00     0.157 HD
ENDBRANCH   5  19
BRANCH   4  22
HETATM   22  C   UNL     1       6.415  28.696  57.014  1.00  0.00     0.275 C 
HETATM   23  N   UNL     1       6.436  27.343  57.280  1.00  0.00    -0.351 N 
HETATM   24  H   UNL     1       6.983  27.002  58.061  1.00  0.00     0.163 HD
HETATM   25  O   UNL     1       5.839  29.166  56.036  1.00  0.00    -0.266 OA
BRANCH  23  26
HETATM   26  C   UNL     1       5.771  26.398  56.414  1.00  0.00     0.161 C 
BRANCH  26  27
HETATM   27  C   UNL     1       6.704  25.298  55.981  1.00  0.00    -0.038 A 
HETATM   28  C   UNL     1       6.511  24.656  54.744  1.00  0.00     0.045 A 
HETATM   29  C   UNL     1       7.354  23.618  54.340  1.00  0.00     0.068 A 
HETATM   30  C   UNL     1       8.398  23.222  55.178  1.00  0.00     0.037 A 
HETATM   31  C   UNL     1       8.601  23.851  56.407  1.00  0.00     0.003 A 
HETATM   32  C   UNL     1       7.759  24.886  56.807  1.00  0.00     0.009 A 
BRANCH  29  33
HETATM   33  O   UNL     1       7.266  22.918  53.169  1.00  0.00    -0.356 OA
HETATM   34  C   UNL     1       7.921  21.657  53.121  1.00  0.00     0.210 C 
ENDBRANCH  29  33
ENDBRANCH  26  27
ENDBRANCH  23  26
ENDBRANCH   4  22
TORSDOF 8
ENDMDL
MODEL 9
REMARK VINA RESULT:      -8.8      2.135      2.810
REMARK  8 active torsions:
REMARK  status: ('A' for Active; 'I' for Inactive)
REMARK    1  A    between atoms: C_6  and  N_7 
REMARK       I    between atoms: N_7  and  C_8 
REMARK    2  A    between atoms: C_8  and  C_9 
REMARK    3  A    between atoms: C_9  and  N_10 
REMARK    4  A    between atoms: C_13  and  C_14 
REMARK       I    between atoms: C_14  and  N_15 
REMARK    5  A    between atoms: N_15  and  C_16 
REMARK    6  A    between atoms: C_16  and  C_17 
REMARK    7  A    between atoms: C_19  and  O_20 
REMARK    8  A    between atoms: C_26  and  N_27 
ROOT
HETATM    1  N   UNL     1       4.684  29.248  56.250  1.00  0.00    -0.248 N 
HETATM    2  N   UNL     1       5.749  28.826  56.965  1.00  0.00     0.007 NA
HETATM    3  N   UNL     1       6.065  29.786  57.817  1.00  0.00    -0.150 NA
HETATM    4  C   UNL     1       5.241  30.864  57.588  1.00  0.00     0.186 A 
HETATM    5  C   UNL     1       4.321  30.529  56.600  1.00  0.00     0.151 A 
ENDROOT
BRANCH   1   6
HETATM    6  C   UNL     1       4.176  28.394  55.199  1.00  0.00     0.251 C 
BRANCH   6   7
HETATM    7  C   UNL     1       5.235  27.499  54.580  1.00  0.00     0.241 C 
HETATM    8  N   UNL     1       5.101  26.158  54.895  1.00  0.00    -0.326 N 
HETATM    9  H   UNL     1       4.202  25.878  55.292  1.00  0.00     0.169 HD
HETATM   10  O   UNL     1       6.156  27.998  53.938  1.00  0.00    -0.271 OA
BRANCH   8  11
HETATM   11  C   UNL     1       6.009  25.107  54.653  1.00  0.00     0.036 A 
HETATM   12  C   UNL     1       6.708  24.428  55.651  1.00  0.00     0.053 A 
HETATM   13  C   UNL     1       7.555  23.362  55.320  1.00  0.00     0.042 A 
HETATM   14  C   UNL     1       7.724  22.959  53.986  1.00  0.00    -0.040 A 
HETATM   15 CL   UNL     1       8.373  22.550  56.610  1.00  0.00    -0.084 Cl
HETATM   16  C   UNL     1       8.610  21.807  53.605  1.00  0.00     0.050 C 
HETATM   17  C   UNL     1       7.024  23.651  52.990  1.00  0.00     0.011 A 
HETATM   18  C   UNL     1       6.176  24.711  53.322  1.00  0.00     0.030 A 
ENDBRANCH   8  11
ENDBRANCH   6   7
ENDBRANCH   1   6
BRANCH   5  19
HETATM   19  N   UNL     1       3.280  31.202  56.043  1.00  0.00    -0.382 N 
HETATM   20  H   UNL     1       2.595  31.643  56.659  1.00  0.00     0.157 HD
HETATM   21  H   UNL     1       2.819  30.860  55.200  1.00  0.00     0.157 HD
ENDBRANCH   5  19
BRANCH   4  22
HETATM   22  C   UNL     1       5.404  32.114  58.317  1.00  0.00     0.275 C 
HETATM   23  N   UNL     1       5.001  32.074  59.636  1.00  0.00    -0.351 N 
HETATM   24  H   UNL     1       4.592  31.223  60.002  1.00  0.00     0.163 HD
HETATM   25  O   UNL     1       5.832  33.137  57.790  1.00  0.00    -0.266 OA
BRANCH  23  26
HETATM   26  C   UNL     1       5.068  33.247  60.475  1.00  0.00     0.161 C 
BRANCH  26  27
HETATM   27  C   UNL     1       6.038  33.056  61.611  1.00  0.00    -0.038 A 
HETATM   28  C   UNL     1       6.865  31.917  61.648  1.00  0.00     0.045 A 
HETATM   29  C   UNL     1       7.753  31.715  62.707  1.00  0.00     0.068 A 
HETATM   30  C   UNL     1       7.815  32.658  63.734  1.00  0.00     0.037 A 
HETATM   31  C   UNL     1       7.003  33.793  63.709  1.00  0.00     0.003 A 
HETATM   32  C   UNL     1       6.118  33.992  62.651  1.00  0.00     0.009 A 
BRANCH  29  33
HETATM   33  O   UNL     1       8.599  30.652  62.857  1.00  0.00    -0.356 OA
HETATM   34  C   UNL     1       9.433  30.330  61.750  1.00  0.00     0.210 C 
ENDBRANCH  29  33
ENDBRANCH  26  27
ENDBRANCH  23  26
ENDBRANCH   4  22
TORSDOF 8
ENDMDL
MODEL 10
REMARK VINA RESULT:      -8.7      3.776     10.815
REMARK  8 active torsions:
REMARK  status: ('A' for Active; 'I' for Inactive)
REMARK    1  A    between atoms: C_6  and  N_7 
REMARK       I    between atoms: N_7  and  C_8 
REMARK    2  A    between atoms: C_8  and  C_9 
REMARK    3  A    between atoms: C_9  and  N_10 
REMARK    4  A    between atoms: C_13  and  C_14 
REMARK       I    between atoms: C_14  and  N_15 
REMARK    5  A    between atoms: N_15  and  C_16 
REMARK    6  A    between atoms: C_16  and  C_17 
REMARK    7  A    between atoms: C_19  and  O_20 
REMARK    8  A    between atoms: C_26  and  N_27 
ROOT
HETATM    1  N   UNL     1       7.732  30.335  58.364  1.00  0.00    -0.248 N 
HETATM    2  N   UNL     1       8.393  29.247  58.814  1.00  0.00     0.007 NA
HETATM    3  N   UNL     1       7.841  28.183  58.257  1.00  0.00    -0.150 NA
HETATM    4  C   UNL     1       6.764  28.593  57.504  1.00  0.00     0.186 A 
HETATM    5  C   UNL     1       6.692  29.981  57.535  1.00  0.00     0.151 A 
ENDROOT
BRANCH   1   6
HETATM    6  C   UNL     1       8.110  31.633  58.877  1.00  0.00     0.251 C 
BRANCH   6   7
HETATM    7  C   UNL     1       7.197  32.139  59.980  1.00  0.00     0.241 C 
HETATM    8  N   UNL     1       7.853  32.811  60.997  1.00  0.00    -0.326 N 
HETATM    9  H   UNL     1       8.810  33.105  60.796  1.00  0.00     0.169 HD
HETATM   10  O   UNL     1       6.000  31.863  59.956  1.00  0.00    -0.271 OA
BRANCH   8  11
HETATM   11  C   UNL     1       7.341  33.227  62.243  1.00  0.00     0.036 A 
HETATM   12  C   UNL     1       6.267  34.103  62.397  1.00  0.00     0.053 A 
HETATM   13  C   UNL     1       5.794  34.423  63.678  1.00  0.00     0.042 A 
HETATM   14  C   UNL     1       6.389  33.878  64.826  1.00  0.00    -0.040 A 
HETATM   15 CL   UNL     1       4.445  35.499  63.794  1.00  0.00    -0.084 Cl
HETATM   16  C   UNL     1       5.890  34.187  66.209  1.00  0.00     0.050 C 
HETATM   17  C   UNL     1       7.471  33.003  64.662  1.00  0.00     0.011 A 
HETATM   18  C   UNL     1       7.938  32.682  63.384  1.00  0.00     0.030 A 
ENDBRANCH   8  11
ENDBRANCH   6   7
ENDBRANCH   1   6
BRANCH   5  19
HETATM   19  N   UNL     1       5.861  30.875  56.936  1.00  0.00    -0.382 N 
HETATM   20  H   UNL     1       5.800  31.819  57.319  1.00  0.00     0.157 HD
HETATM   21  H   UNL     1       4.953  30.590  56.569  1.00  0.00     0.157 HD
ENDBRANCH   5  19
BRANCH   4  22
HETATM   22  C   UNL     1       5.897  27.634  56.832  1.00  0.00     0.275 C 
HETATM   23  N   UNL     1       6.494  26.430  56.520  1.00  0.00    -0.351 N 
HETATM   24  H   UNL     1       7.476  26.297  56.729  1.00  0.00     0.163 HD
HETATM   25  O   UNL     1       4.734  27.890  56.532  1.00  0.00    -0.266 OA
BRANCH  23  26
HETATM   26  C   UNL     1       5.771  25.395  55.819  1.00  0.00     0.161 C 
BRANCH  26  27
HETATM   27  C   UNL     1       6.038  25.446  54.337  1.00  0.00    -0.038 A 
HETATM   28  C   UNL     1       5.174  26.164  53.489  1.00  0.00     0.045 A 
HETATM   29  C   UNL     1       5.395  26.199  52.111  1.00  0.00     0.068 A 
HETATM   30  C   UNL     1       6.489  25.515  51.578  1.00  0.00     0.037 A 
HETATM   31  C   UNL     1       7.354  24.800  52.408  1.00  0.00     0.003 A 
HETATM   32  C   UNL     1       7.131  24.766  53.783  1.00  0.00     0.009 A 
BRANCH  29  33
HETATM   33  O   UNL     1       4.628  26.855  51.188  1.00  0.00    -0.356 OA
HETATM   34  C   UNL     1       5.316  27.576  50.173  1.00  0.00     0.210 C 
ENDBRANCH  29  33
ENDBRANCH  26  27
ENDBRANCH  23  26
ENDBRANCH   4  22
TORSDOF 8
ENDMDL
