MODEL 1
REMARK VINA RESULT:      -9.4      0.000      0.000
REMARK  6 active torsions:
REMARK  status: ('A' for Active; 'I' for Inactive)
REMARK    1  A    between atoms: C_4  and  C_5 
REMARK    2  A    between atoms: C_5  and  C_6 
REMARK    3  A    between atoms: C_6  and  N_7 
REMARK       I    between atoms: N_7  and  C_8 
REMARK    4  A    between atoms: C_8  and  C_9 
REMARK    5  A    between atoms: C_12  and  N_13 
REMARK       I    between atoms: N_13  and  C_14 
REMARK       I    between atoms: C_14  and  N_15 
REMARK    6  A    between atoms: N_15  and  C_16 
ROOT
HETATM    1  C   UNL     1       6.381  33.306  64.543  1.00  0.00     0.032 A 
HETATM    2  C   UNL     1       7.743  33.152  64.266  1.00  0.00     0.019 A 
HETATM    3  C   UNL     1       8.160  32.332  63.210  1.00  0.00     0.030 A 
HETATM    4  C   UNL     1       7.228  31.665  62.413  1.00  0.00     0.036 A 
HETATM    5  C   UNL     1       5.863  31.841  62.679  1.00  0.00     0.030 A 
HETATM    6  C   UNL     1       5.443  32.660  63.733  1.00  0.00     0.019 A 
ENDROOT
BRANCH   1   7
HETATM    7  C   UNL     1       5.888  34.151  65.667  1.00  0.00     0.251 C 
HETATM    8  N   UNL     1       6.636  34.127  66.827  1.00  0.00    -0.357 N 
HETATM    9  H   UNL     1       7.286  33.361  66.956  1.00  0.00     0.162 HD
HETATM   10  O   UNL     1       4.850  34.792  65.545  1.00  0.00    -0.268 OA
BRANCH   8  11
HETATM   11  C   UNL     1       6.146  34.769  68.035  1.00  0.00     0.127 C 
BRANCH  11  12
HETATM   12  C   UNL     1       7.263  35.059  69.041  1.00  0.00     0.058 C 
BRANCH  12  13
HETATM   13  C   UNL     1       7.340  34.067  70.179  1.00  0.00    -0.057 A 
HETATM   14  C   UNL     1       6.427  33.006  70.257  1.00  0.00     0.007 A 
HETATM   15  C   UNL     1       6.500  32.081  71.300  1.00  0.00     0.001 A 
HETATM   16  C   UNL     1       7.485  32.208  72.277  1.00  0.00     0.000 A 
HETATM   17  C   UNL     1       8.401  33.255  72.209  1.00  0.00     0.001 A 
HETATM   18  C   UNL     1       8.332  34.178  71.164  1.00  0.00     0.007 A 
ENDBRANCH  12  13
ENDBRANCH  11  12
ENDBRANCH   8  11
ENDBRANCH   1   7
BRANCH   4  19
HETATM   19  N   UNL     1       7.570  30.795  61.356  1.00  0.00    -0.309 N 
HETATM   20  C   UNL     1       8.147  31.127  60.140  1.00  0.00     0.325 C 
HETATM   21  N   UNL     1       8.474  29.987  59.422  1.00  0.00    -0.306 N 
HETATM   22  O   UNL     1       8.358  32.268  59.746  1.00  0.00    -0.247 OA
HETATM   23  H   UNL     1       8.345  29.083  59.849  1.00  0.00     0.171 HD
HETATM   24  H   UNL     1       7.323  29.826  61.485  1.00  0.00     0.170 HD
BRANCH  21  25
HETATM   25  C   UNL     1       9.078  30.000  58.180  1.00  0.00     0.072 A 
HETATM   26  C   UNL     1      10.248  30.640  57.710  1.00  0.00     0.169 A 
HETATM   27  N   UNL     1      10.485  30.381  56.419  1.00  0.00    -0.185 NA
HETATM   28  N   UNL     1       9.471  29.578  56.067  1.00  0.00    -0.287 N 
HETATM   29  H   UNL     1       9.440  29.239  55.111  1.00  0.00     0.188 HD
HETATM   30  C   UNL     1       8.597  29.323  57.085  1.00  0.00     0.140 A 
ENDBRANCH  21  25
ENDBRANCH   4  19
TORSDOF 6
ENDMDL
MODEL 2
REMARK VINA RESULT:      -9.0      5.368      8.948
REMARK  6 active torsions:
REMARK  status: ('A' for Active; 'I' for Inactive)
REMARK    1  A    between atoms: C_4  and  C_5 
REMARK    2  A    between atoms: C_5  and  C_6 
REMARK    3  A    between atoms: C_6  and  N_7 
REMARK       I    between atoms: N_7  and  C_8 
REMARK    4  A    between atoms: C_8  and  C_9 
REMARK    5  A    between atoms: C_12  and  N_13 
REMARK       I    between atoms: N_13  and  C_14 
REMARK       I    between atoms: C_14  and  N_15 
REMARK    6  A    between atoms: N_15  and  C_16 
ROOT
HETATM    1  C   UNL     1       6.658  28.506  57.419  1.00  0.00     0.032 A 
HETATM    2  C   UNL     1       7.800  27.765  57.740  1.00  0.00     0.019 A 
HETATM    3  C   UNL     1       7.849  26.391  57.471  1.00  0.00     0.030 A 
HETATM    4  C   UNL     1       6.767  25.742  56.871  1.00  0.00     0.036 A 
HETATM    5  C   UNL     1       5.635  26.493  56.529  1.00  0.00     0.030 A 
HETATM    6  C   UNL     1       5.583  27.865  56.796  1.00  0.00     0.019 A 
ENDROOT
BRANCH   1   7
HETATM    7  C   UNL     1       6.550  29.964  57.703  1.00  0.00     0.251 C 
HETATM    8  N   UNL     1       7.125  30.406  58.878  1.00  0.00    -0.357 N 
HETATM    9  H   UNL     1       7.330  29.717  59.592  1.00  0.00     0.162 HD
HETATM   10  O   UNL     1       5.943  30.698  56.930  1.00  0.00    -0.268 OA
BRANCH   8  11
HETATM   11  C   UNL     1       6.919  31.769  59.334  1.00  0.00     0.127 C 
BRANCH  11  12
HETATM   12  C   UNL     1       8.066  32.275  60.214  1.00  0.00     0.058 C 
BRANCH  12  13
HETATM   13  C   UNL     1       7.628  32.764  61.576  1.00  0.00    -0.057 A 
HETATM   14  C   UNL     1       6.529  33.627  61.699  1.00  0.00     0.007 A 
HETATM   15  C   UNL     1       6.116  34.074  62.955  1.00  0.00     0.001 A 
HETATM   16  C   UNL     1       6.795  33.665  64.100  1.00  0.00     0.000 A 
HETATM   17  C   UNL     1       7.886  32.805  63.991  1.00  0.00     0.001 A 
HETATM   18  C   UNL     1       8.298  32.353  62.737  1.00  0.00     0.007 A 
ENDBRANCH  12  13
ENDBRANCH  11  12
ENDBRANCH   8  11
ENDBRANCH   1   7
BRANCH   4  19
HETATM   19  N   UNL     1       6.727  24.358  56.602  1.00  0.00    -0.309 N 
HETATM   20  C   UNL     1       7.515  23.646  55.710  1.00  0.00     0.325 C 
HETATM   21  N   UNL     1       7.289  22.283  55.833  1.00  0.00    -0.306 N 
HETATM   22  O   UNL     1       8.317  24.139  54.927  1.00  0.00    -0.247 OA
HETATM   23  H   UNL     1       6.675  21.949  56.559  1.00  0.00     0.171 HD
HETATM   24  H   UNL     1       6.009  23.836  57.081  1.00  0.00     0.170 HD
BRANCH  21  25
HETATM   25  C   UNL     1       7.941  21.320  55.088  1.00  0.00     0.072 A 
HETATM   26  C   UNL     1       7.871  20.983  53.717  1.00  0.00     0.169 A 
HETATM   27  N   UNL     1       8.689  19.974  53.399  1.00  0.00    -0.185 NA
HETATM   28  N   UNL     1       9.282  19.669  54.563  1.00  0.00    -0.287 N 
HETATM   29  H   UNL     1       9.965  18.919  54.569  1.00  0.00     0.188 HD
HETATM   30  C   UNL     1       8.865  20.444  55.607  1.00  0.00     0.140 A 
ENDBRANCH  21  25
ENDBRANCH   4  19
TORSDOF 6
ENDMDL
MODEL 3
REMARK VINA RESULT:      -8.9      3.732     12.296
REMARK  6 active torsions:
REMARK  status: ('A' for Active; 'I' for Inactive)
REMARK    1  A    between atoms: C_4  and  C_5 
REMARK    2  A    between atoms: C_5  and  C_6 
REMARK    3  A    between atoms: C_6  and  N_7 
REMARK       I    between atoms: N_7  and  C_8 
REMARK    4  A    between atoms: C_8  and  C_9 
REMARK    5  A    between atoms: C_12  and  N_13 
REMARK       I    between atoms: N_13  and  C_14 
REMARK       I    between atoms: C_14  and  N_15 
REMARK    6  A    between atoms: N_15  and  C_16 
ROOT
HETATM    1  C   UNL     1       7.550  30.017  58.183  1.00  0.00     0.032 A 
HETATM    2  C   UNL     1       6.484  30.914  58.062  1.00  0.00     0.019 A 
HETATM    3  C   UNL     1       6.256  31.877  59.054  1.00  0.00     0.030 A 
HETATM    4  C   UNL     1       7.090  31.963  60.170  1.00  0.00     0.036 A 
HETATM    5  C   UNL     1       8.171  31.078  60.275  1.00  0.00     0.030 A 
HETATM    6  C   UNL     1       8.402  30.115  59.287  1.00  0.00     0.019 A 
ENDROOT
BRANCH   1   7
HETATM    7  C   UNL     1       7.822  28.963  57.166  1.00  0.00     0.251 C 
HETATM    8  N   UNL     1       7.625  27.656  57.566  1.00  0.00    -0.357 N 
HETATM    9  H   UNL     1       7.584  27.467  58.561  1.00  0.00     0.162 HD
HETATM   10  O   UNL     1       8.233  29.274  56.053  1.00  0.00    -0.268 OA
BRANCH   8  11
HETATM   11  C   UNL     1       8.031  26.553  56.714  1.00  0.00     0.127 C 
BRANCH  11  12
HETATM   12  C   UNL     1       6.844  25.857  56.044  1.00  0.00     0.058 C 
BRANCH  12  13
HETATM   13  C   UNL     1       7.227  24.956  54.892  1.00  0.00    -0.057 A 
HETATM   14  C   UNL     1       7.253  23.564  55.059  1.00  0.00     0.007 A 
HETATM   15  C   UNL     1       7.597  22.728  53.995  1.00  0.00     0.001 A 
HETATM   16  C   UNL     1       7.918  23.273  52.755  1.00  0.00     0.000 A 
HETATM   17  C   UNL     1       7.892  24.654  52.574  1.00  0.00     0.001 A 
HETATM   18  C   UNL     1       7.544  25.492  53.635  1.00  0.00     0.007 A 
ENDBRANCH  12  13
ENDBRANCH  11  12
ENDBRANCH   8  11
ENDBRANCH   1   7
BRANCH   4  19
HETATM   19  N   UNL     1       6.904  32.879  61.226  1.00  0.00    -0.309 N 
HETATM   20  C   UNL     1       6.363  32.628  62.479  1.00  0.00     0.325 C 
HETATM   21  N   UNL     1       6.484  33.741  63.298  1.00  0.00    -0.306 N 
HETATM   22  O   UNL     1       5.858  31.570  62.832  1.00  0.00    -0.247 OA
HETATM   23  H   UNL     1       6.987  34.547  62.963  1.00  0.00     0.171 HD
HETATM   24  H   UNL     1       7.151  33.837  61.029  1.00  0.00     0.170 HD
BRANCH  21  25
HETATM   25  C   UNL     1       6.052  33.786  64.610  1.00  0.00     0.072 A 
HETATM   26  C   UNL     1       4.756  33.845  65.172  1.00  0.00     0.169 A 
HETATM   27  N   UNL     1       4.783  33.867  66.509  1.00  0.00    -0.185 NA
HETATM   28  N   UNL     1       6.092  33.821  66.800  1.00  0.00    -0.287 N 
HETATM   29  H   UNL     1       6.364  33.821  67.777  1.00  0.00     0.188 HD
HETATM   30  C   UNL     1       6.894  33.775  65.696  1.00  0.00     0.140 A 
ENDBRANCH  21  25
ENDBRANCH   4  19
TORSDOF 6
ENDMDL
MODEL 4
REMARK VINA RESULT:      -8.7      3.070     11.433
REMARK  6 active torsions:
REMARK  status: ('A' for Active; 'I' for Inactive)
REMARK    1  A    between atoms: C_4  and  C_5 
REMARK    2  A    between atoms: C_5  and  C_6 
REMARK    3  A    between atoms: C_6  and  N_7 
REMARK       I    between atoms: N_7  and  C_8 
REMARK    4  A    between atoms: C_8  and  C_9 
REMARK    5  A    between atoms: C_12  and  N_13 
REMARK       I    between atoms: N_13  and  C_14 
REMARK       I    between atoms: C_14  and  N_15 
REMARK    6  A    between atoms: N_15  and  C_16 
ROOT
HETATM    1  C   UNL     1       8.114  31.061  60.013  1.00  0.00     0.032 A 
HETATM    2  C   UNL     1       8.773  31.110  61.246  1.00  0.00     0.019 A 
HETATM    3  C   UNL     1       8.320  31.969  62.255  1.00  0.00     0.030 A 
HETATM    4  C   UNL     1       7.202  32.781  62.053  1.00  0.00     0.036 A 
HETATM    5  C   UNL     1       6.529  32.710  60.825  1.00  0.00     0.030 A 
HETATM    6  C   UNL     1       6.980  31.854  59.815  1.00  0.00     0.019 A 
ENDROOT
BRANCH   1   7
HETATM    7  C   UNL     1       8.569  30.180  58.902  1.00  0.00     0.251 C 
HETATM    8  N   UNL     1       7.675  29.220  58.472  1.00  0.00    -0.357 N 
HETATM    9  H   UNL     1       6.905  28.982  59.087  1.00  0.00     0.162 HD
HETATM   10  O   UNL     1       9.699  30.305  58.441  1.00  0.00    -0.268 OA
BRANCH   8  11
HETATM   11  C   UNL     1       8.085  28.200  57.524  1.00  0.00     0.127 C 
BRANCH  11  12
HETATM   12  C   UNL     1       7.025  27.113  57.332  1.00  0.00     0.058 C 
BRANCH  12  13
HETATM   13  C   UNL     1       7.539  25.861  56.656  1.00  0.00    -0.057 A 
HETATM   14  C   UNL     1       7.107  25.527  55.365  1.00  0.00     0.007 A 
HETATM   15  C   UNL     1       7.586  24.377  54.733  1.00  0.00     0.001 A 
HETATM   16  C   UNL     1       8.499  23.552  55.384  1.00  0.00     0.000 A 
HETATM   17  C   UNL     1       8.939  23.876  56.666  1.00  0.00     0.001 A 
HETATM   18  C   UNL     1       8.465  25.026  57.298  1.00  0.00     0.007 A 
ENDBRANCH  12  13
ENDBRANCH  11  12
ENDBRANCH   8  11
ENDBRANCH   1   7
BRANCH   4  19
HETATM   19  N   UNL     1       6.707  33.696  63.006  1.00  0.00    -0.309 N 
HETATM   20  C   UNL     1       5.749  33.466  63.982  1.00  0.00     0.325 C 
HETATM   21  N   UNL     1       5.635  34.560  64.827  1.00  0.00    -0.306 N 
HETATM   22  O   UNL     1       5.097  32.436  64.104  1.00  0.00    -0.247 OA
HETATM   23  H   UNL     1       6.266  35.337  64.713  1.00  0.00     0.171 HD
HETATM   24  H   UNL     1       7.058  34.638  62.936  1.00  0.00     0.170 HD
BRANCH  21  25
HETATM   25  C   UNL     1       4.774  34.618  65.906  1.00  0.00     0.072 A 
HETATM   26  C   UNL     1       4.807  33.987  67.170  1.00  0.00     0.169 A 
HETATM   27  N   UNL     1       3.764  34.328  67.935  1.00  0.00    -0.185 NA
HETATM   28  N   UNL     1       3.069  35.176  67.162  1.00  0.00    -0.287 N 
HETATM   29  H   UNL     1       2.219  35.580  67.541  1.00  0.00     0.188 HD
HETATM   30  C   UNL     1       3.630  35.379  65.934  1.00  0.00     0.140 A 
ENDBRANCH  21  25
ENDBRANCH   4  19
TORSDOF 6
ENDMDL
MODEL 5
REMARK VINA RESULT:      -8.7      4.234      7.734
REMARK  6 active torsions:
REMARK  status: ('A' for Active; 'I' for Inactive)
REMARK    1  A    between atoms: C_4  and  C_5 
REMARK    2  A    between atoms: C_5  and  C_6 
REMARK    3  A    between atoms: C_6  and  N_7 
REMARK       I    between atoms: N_7  and  C_8 
REMARK    4  A    between atoms: C_8  and  C_9 
REMARK    5  A    between atoms: C_12  and  N_13 
REMARK       I    between atoms: N_13  and  C_14 
REMARK       I    between atoms: C_14  and  N_15 
REMARK    6  A    between atoms: N_15  and  C_16 
ROOT
HETATM    1  C   UNL     1       8.696  30.646  58.229  1.00  0.00     0.032 A 
HETATM    2  C   UNL     1       7.375  30.458  57.809  1.00  0.00     0.019 A 
HETATM    3  C   UNL     1       7.102  29.739  56.639  1.00  0.00     0.030 A 
HETATM    4  C   UNL     1       8.138  29.192  55.879  1.00  0.00     0.036 A 
HETATM    5  C   UNL     1       9.459  29.362  56.317  1.00  0.00     0.030 A 
HETATM    6  C   UNL     1       9.735  30.080  57.485  1.00  0.00     0.019 A 
ENDROOT
BRANCH   1   7
HETATM    7  C   UNL     1       9.039  31.421  59.455  1.00  0.00     0.251 C 
HETATM    8  N   UNL     1       9.280  30.686  60.598  1.00  0.00    -0.357 N 
HETATM    9  H   UNL     1       8.952  29.728  60.624  1.00  0.00     0.162 HD
HETATM   10  O   UNL     1       9.060  32.647  59.422  1.00  0.00    -0.268 OA
BRANCH   8  11
HETATM   11  C   UNL     1       9.444  31.348  61.881  1.00  0.00     0.127 C 
BRANCH  11  12
HETATM   12  C   UNL     1       8.226  31.177  62.792  1.00  0.00     0.058 C 
BRANCH  12  13
HETATM   13  C   UNL     1       7.507  32.469  63.109  1.00  0.00    -0.057 A 
HETATM   14  C   UNL     1       7.517  32.983  64.413  1.00  0.00     0.007 A 
HETATM   15  C   UNL     1       6.862  34.180  64.709  1.00  0.00     0.001 A 
HETATM   16  C   UNL     1       6.191  34.875  63.706  1.00  0.00     0.000 A 
HETATM   17  C   UNL     1       6.177  34.377  62.405  1.00  0.00     0.001 A 
HETATM   18  C   UNL     1       6.834  33.183  62.106  1.00  0.00     0.007 A 
ENDBRANCH  12  13
ENDBRANCH  11  12
ENDBRANCH   8  11
ENDBRANCH   1   7
BRANCH   4  19
HETATM   19  N   UNL     1       7.946  28.487  54.672  1.00  0.00    -0.309 N 
HETATM   20  C   UNL     1       6.919  27.609  54.359  1.00  0.00     0.325 C 
HETATM   21  N   UNL     1       6.984  27.231  53.027  1.00  0.00    -0.306 N 
HETATM   22  O   UNL     1       6.057  27.222  55.139  1.00  0.00    -0.247 OA
HETATM   23  H   UNL     1       7.673  27.657  52.427  1.00  0.00     0.171 HD
HETATM   24  H   UNL     1       8.665  28.602  53.975  1.00  0.00     0.170 HD
BRANCH  21  25
HETATM   25  C   UNL     1       6.084  26.376  52.420  1.00  0.00     0.072 A 
HETATM   26  C   UNL     1       5.752  25.026  52.672  1.00  0.00     0.169 A 
HETATM   27  N   UNL     1       4.806  24.572  51.842  1.00  0.00    -0.185 NA
HETATM   28  N   UNL     1       4.533  25.630  51.064  1.00  0.00    -0.287 N 
HETATM   29  H   UNL     1       3.825  25.524  50.346  1.00  0.00     0.188 HD
HETATM   30  C   UNL     1       5.276  26.735  51.367  1.00  0.00     0.140 A 
ENDBRANCH  21  25
ENDBRANCH   4  19
TORSDOF 6
ENDMDL
MODEL 6
REMARK VINA RESULT:      -8.6     12.898     16.192
REMARK  6 active torsions:
REMARK  status: ('A' for Active; 'I' for Inactive)
REMARK    1  A    between atoms: C_4  and  C_5 
REMARK    2  A    between atoms: C_5  and  C_6 
REMARK    3  A    between atoms: C_6  and  N_7 
REMARK       I    between atoms: N_7  and  C_8 
REMARK    4  A    between atoms: C_8  and  C_9 
REMARK    5  A    between atoms: C_12  and  N_13 
REMARK       I    between atoms: N_13  and  C_14 
REMARK       I    between atoms: C_14  and  N_15 
REMARK    6  A    between atoms: N_15  and  C_16 
ROOT
HETATM    1  C   UNL     1       5.646  26.992  51.969  1.00  0.00     0.032 A 
HETATM    2  C   UNL     1       5.226  28.301  51.714  1.00  0.00     0.019 A 
HETATM    3  C   UNL     1       4.519  28.600  50.542  1.00  0.00     0.030 A 
HETATM    4  C   UNL     1       4.215  27.599  49.617  1.00  0.00     0.036 A 
HETATM    5  C   UNL     1       4.617  26.284  49.888  1.00  0.00     0.030 A 
HETATM    6  C   UNL     1       5.323  25.982  51.058  1.00  0.00     0.019 A 
ENDROOT
BRANCH   1   7
HETATM    7  C   UNL     1       6.418  26.628  53.190  1.00  0.00     0.251 C 
HETATM    8  N   UNL     1       5.964  25.535  53.901  1.00  0.00    -0.357 N 
HETATM    9  H   UNL     1       5.015  25.221  53.733  1.00  0.00     0.162 HD
HETATM   10  O   UNL     1       7.378  27.308  53.536  1.00  0.00    -0.268 OA
BRANCH   8  11
HETATM   11  C   UNL     1       6.533  25.208  55.196  1.00  0.00     0.127 C 
BRANCH  11  12
HETATM   12  C   UNL     1       7.926  24.581  55.087  1.00  0.00     0.058 C 
BRANCH  12  13
HETATM   13  C   UNL     1       7.917  23.127  54.673  1.00  0.00    -0.057 A 
HETATM   14  C   UNL     1       8.092  22.773  53.327  1.00  0.00     0.007 A 
HETATM   15  C   UNL     1       8.094  21.431  52.942  1.00  0.00     0.001 A 
HETATM   16  C   UNL     1       7.922  20.430  53.895  1.00  0.00     0.000 A 
HETATM   17  C   UNL     1       7.752  20.769  55.236  1.00  0.00     0.001 A 
HETATM   18  C   UNL     1       7.754  22.110  55.624  1.00  0.00     0.007 A 
ENDBRANCH  12  13
ENDBRANCH  11  12
ENDBRANCH   8  11
ENDBRANCH   1   7
BRANCH   4  19
HETATM   19  N   UNL     1       3.540  27.827  48.399  1.00  0.00    -0.309 N 
HETATM   20  C   UNL     1       2.171  27.925  48.196  1.00  0.00     0.325 C 
HETATM   21  N   UNL     1       1.894  28.305  46.892  1.00  0.00    -0.306 N 
HETATM   22  O   UNL     1       1.314  27.721  49.047  1.00  0.00    -0.247 OA
HETATM   23  H   UNL     1       2.655  28.536  46.274  1.00  0.00     0.171 HD
HETATM   24  H   UNL     1       4.120  27.879  47.576  1.00  0.00     0.170 HD
BRANCH  21  25
HETATM   25  C   UNL     1       0.618  28.500  46.398  1.00  0.00     0.072 A 
HETATM   26  C   UNL     1      -0.181  29.661  46.289  1.00  0.00     0.169 A 
HETATM   27  N   UNL     1      -1.372  29.408  45.735  1.00  0.00    -0.185 NA
HETATM   28  N   UNL     1      -1.332  28.091  45.489  1.00  0.00    -0.287 N 
HETATM   29  H   UNL     1      -2.142  27.662  45.054  1.00  0.00     0.188 HD
HETATM   30  C   UNL     1      -0.163  27.499  45.872  1.00  0.00     0.140 A 
ENDBRANCH  21  25
ENDBRANCH   4  19
TORSDOF 6
ENDMDL
MODEL 7
REMARK VINA RESULT:      -8.4      2.389     10.949
REMARK  6 active torsions:
REMARK  status: ('A' for Active; 'I' for Inactive)
REMARK    1  A    between atoms: C_4  and  C_5 
REMARK    2  A    between atoms: C_5  and  C_6 
REMARK    3  A    between atoms: C_6  and  N_7 
REMARK       I    between atoms: N_7  and  C_8 
REMARK    4  A    between atoms: C_8  and  C_9 
REMARK    5  A    between atoms: C_12  and  N_13 
REMARK       I    between atoms: N_13  and  C_14 
REMARK       I    between atoms: C_14  and  N_15 
REMARK    6  A    between atoms: N_15  and  C_16 
ROOT
HETATM    1  C   UNL     1       6.729  32.654  61.387  1.00  0.00     0.032 A 
HETATM    2  C   UNL     1       6.041  33.783  61.844  1.00  0.00     0.019 A 
HETATM    3  C   UNL     1       6.259  34.266  63.140  1.00  0.00     0.030 A 
HETATM    4  C   UNL     1       7.170  33.637  63.992  1.00  0.00     0.036 A 
HETATM    5  C   UNL     1       7.875  32.521  63.522  1.00  0.00     0.030 A 
HETATM    6  C   UNL     1       7.660  32.036  62.228  1.00  0.00     0.019 A 
ENDROOT
BRANCH   1   7
HETATM    7  C   UNL     1       6.517  32.091  60.024  1.00  0.00     0.251 C 
HETATM    8  N   UNL     1       7.298  31.006  59.679  1.00  0.00    -0.357 N 
HETATM    9  H   UNL     1       8.134  30.831  60.226  1.00  0.00     0.162 HD
HETATM   10  O   UNL     1       5.709  32.611  59.262  1.00  0.00    -0.268 OA
BRANCH   8  11
HETATM   11  C   UNL     1       7.298  30.498  58.318  1.00  0.00     0.127 C 
BRANCH  11  12
HETATM   12  C   UNL     1       8.012  29.150  58.192  1.00  0.00     0.058 C 
BRANCH  12  13
HETATM   13  C   UNL     1       7.136  28.035  57.667  1.00  0.00    -0.057 A 
HETATM   14  C   UNL     1       7.610  26.716  57.639  1.00  0.00     0.007 A 
HETATM   15  C   UNL     1       6.801  25.682  57.163  1.00  0.00     0.001 A 
HETATM   16  C   UNL     1       5.513  25.955  56.711  1.00  0.00     0.000 A 
HETATM   17  C   UNL     1       5.029  27.261  56.737  1.00  0.00     0.001 A 
HETATM   18  C   UNL     1       5.833  28.295  57.217  1.00  0.00     0.007 A 
ENDBRANCH  12  13
ENDBRANCH  11  12
ENDBRANCH   8  11
ENDBRANCH   1   7
BRANCH   4  19
HETATM   19  N   UNL     1       7.417  34.041  65.321  1.00  0.00    -0.309 N 
HETATM   20  C   UNL     1       6.545  33.985  66.399  1.00  0.00     0.325 C 
HETATM   21  N   UNL     1       7.194  34.329  67.575  1.00  0.00    -0.306 N 
HETATM   22  O   UNL     1       5.364  33.664  66.337  1.00  0.00    -0.247 OA
HETATM   23  H   UNL     1       8.187  34.500  67.557  1.00  0.00     0.171 HD
HETATM   24  H   UNL     1       8.316  34.462  65.495  1.00  0.00     0.170 HD
BRANCH  21  25
HETATM   25  C   UNL     1       6.588  34.347  68.816  1.00  0.00     0.072 A 
HETATM   26  C   UNL     1       6.313  33.317  69.744  1.00  0.00     0.169 A 
HETATM   27  N   UNL     1       5.708  33.773  70.846  1.00  0.00    -0.185 NA
HETATM   28  N   UNL     1       5.599  35.091  70.623  1.00  0.00    -0.287 N 
HETATM   29  H   UNL     1       5.166  35.663  71.341  1.00  0.00     0.188 HD
HETATM   30  C   UNL     1       6.107  35.485  69.419  1.00  0.00     0.140 A 
ENDBRANCH  21  25
ENDBRANCH   4  19
TORSDOF 6
ENDMDL
MODEL 8
REMARK VINA RESULT:      -8.4      6.322     13.247
REMARK  6 active torsions:
REMARK  status: ('A' for Active; 'I' for Inactive)
REMARK    1  A    between atoms: C_4  and  C_5 
REMARK    2  A    between atoms: C_5  and  C_6 
REMARK    3  A    between atoms: C_6  and  N_7 
REMARK       I    between atoms: N_7  and  C_8 
REMARK    4  A    between atoms: C_8  and  C_9 
REMARK    5  A    between atoms: C_12  and  N_13 
REMARK       I    between atoms: N_13  and  C_14 
REMARK       I    between atoms: C_14  and  N_15 
REMARK    6  A    between atoms: N_15  and  C_16 
ROOT
HETATM    1  C   UNL     1       6.154  28.932  55.693  1.00  0.00     0.032 A 
HETATM    2  C   UNL     1       5.145  29.834  55.340  1.00  0.00     0.019 A 
HETATM    3  C   UNL     1       4.819  30.897  56.192  1.00  0.00     0.030 A 
HETATM    4  C   UNL     1       5.498  31.080  57.398  1.00  0.00     0.036 A 
HETATM    5  C   UNL     1       6.525  30.188  57.736  1.00  0.00     0.030 A 
HETATM    6  C   UNL     1       6.853  29.125  56.888  1.00  0.00     0.019 A 
ENDROOT
BRANCH   1   7
HETATM    7  C   UNL     1       6.523  27.774  54.832  1.00  0.00     0.251 C 
HETATM    8  N   UNL     1       6.396  26.522  55.397  1.00  0.00    -0.357 N 
HETATM    9  H   UNL     1       6.335  26.462  56.407  1.00  0.00     0.162 HD
HETATM   10  O   UNL     1       6.949  27.963  53.697  1.00  0.00    -0.268 OA
BRANCH   8  11
HETATM   11  C   UNL     1       6.898  25.345  54.709  1.00  0.00     0.127 C 
BRANCH  11  12
HETATM   12  C   UNL     1       7.046  24.138  55.637  1.00  0.00     0.058 C 
BRANCH  12  13
HETATM   13  C   UNL     1       7.439  22.860  54.930  1.00  0.00    -0.057 A 
HETATM   14  C   UNL     1       7.558  22.833  53.533  1.00  0.00     0.007 A 
HETATM   15  C   UNL     1       7.930  21.658  52.876  1.00  0.00     0.001 A 
HETATM   16  C   UNL     1       8.185  20.500  53.607  1.00  0.00     0.000 A 
HETATM   17  C   UNL     1       8.074  20.516  54.996  1.00  0.00     0.001 A 
HETATM   18  C   UNL     1       7.707  21.690  55.655  1.00  0.00     0.007 A 
ENDBRANCH  12  13
ENDBRANCH  11  12
ENDBRANCH   8  11
ENDBRANCH   1   7
BRANCH   4  19
HETATM   19  N   UNL     1       5.204  32.103  58.323  1.00  0.00    -0.309 N 
HETATM   20  C   UNL     1       4.119  32.179  59.185  1.00  0.00     0.325 C 
HETATM   21  N   UNL     1       4.251  33.255  60.049  1.00  0.00    -0.306 N 
HETATM   22  O   UNL     1       3.174  31.400  59.201  1.00  0.00    -0.247 OA
HETATM   23  H   UNL     1       5.098  33.801  60.030  1.00  0.00     0.171 HD
HETATM   24  H   UNL     1       5.832  32.892  58.324  1.00  0.00     0.170 HD
BRANCH  21  25
HETATM   25  C   UNL     1       3.335  33.576  61.032  1.00  0.00     0.072 A 
HETATM   26  C   UNL     1       2.194  34.410  61.019  1.00  0.00     0.169 A 
HETATM   27  N   UNL     1       1.571  34.438  62.202  1.00  0.00    -0.185 NA
HETATM   28  N   UNL     1       2.310  33.621  62.967  1.00  0.00    -0.287 N 
HETATM   29  H   UNL     1       2.020  33.476  63.929  1.00  0.00     0.188 HD
HETATM   30  C   UNL     1       3.381  33.082  62.314  1.00  0.00     0.140 A 
ENDBRANCH  21  25
ENDBRANCH   4  19
TORSDOF 6
ENDMDL
MODEL 9
REMARK VINA RESULT:      -8.2      3.553      6.498
REMARK  6 active torsions:
REMARK  status: ('A' for Active; 'I' for Inactive)
REMARK    1  A    between atoms: C_4  and  C_5 
REMARK    2  A    between atoms: C_5  and  C_6 
REMARK    3  A    between atoms: C_6  and  N_7 
REMARK       I    between atoms: N_7  and  C_8 
REMARK    4  A    between atoms: C_8  and  C_9 
REMARK    5  A    between atoms: C_12  and  N_13 
REMARK       I    between atoms: N_13  and  C_14 
REMARK       I    between atoms: C_14  and  N_15 
REMARK    6  A    between atoms: N_15  and  C_16 
ROOT
HETATM    1  C   UNL     1       7.829  30.981  59.122  1.00  0.00     0.032 A 
HETATM    2  C   UNL     1       6.603  30.659  58.532  1.00  0.00     0.019 A 
HETATM    3  C   UNL     1       6.516  29.607  57.612  1.00  0.00     0.030 A 
HETATM    4  C   UNL     1       7.645  28.857  57.277  1.00  0.00     0.036 A 
HETATM    5  C   UNL     1       8.867  29.166  57.889  1.00  0.00     0.030 A 
HETATM    6  C   UNL     1       8.957  30.217  58.808  1.00  0.00     0.019 A 
ENDROOT
BRANCH   1   7
HETATM    7  C   UNL     1       7.977  32.103  60.090  1.00  0.00     0.251 C 
HETATM    8  N   UNL     1       7.032  32.178  61.093  1.00  0.00    -0.357 N 
HETATM    9  H   UNL     1       6.166  31.667  60.967  1.00  0.00     0.162 HD
HETATM   10  O   UNL     1       8.881  32.920  59.950  1.00  0.00    -0.268 OA
BRANCH   8  11
HETATM   11  C   UNL     1       6.981  33.331  61.975  1.00  0.00     0.127 C 
BRANCH  11  12
HETATM   12  C   UNL     1       7.549  33.034  63.365  1.00  0.00     0.058 C 
BRANCH  12  13
HETATM   13  C   UNL     1       6.630  33.419  64.503  1.00  0.00    -0.057 A 
HETATM   14  C   UNL     1       7.159  33.791  65.746  1.00  0.00     0.007 A 
HETATM   15  C   UNL     1       6.315  34.155  66.797  1.00  0.00     0.001 A 
HETATM   16  C   UNL     1       4.934  34.151  66.616  1.00  0.00     0.000 A 
HETATM   17  C   UNL     1       4.395  33.787  65.383  1.00  0.00     0.001 A 
HETATM   18  C   UNL     1       5.238  33.427  64.331  1.00  0.00     0.007 A 
ENDBRANCH  12  13
ENDBRANCH  11  12
ENDBRANCH   8  11
ENDBRANCH   1   7
BRANCH   4  19
HETATM   19  N   UNL     1       7.645  27.807  56.334  1.00  0.00    -0.309 N 
HETATM   20  C   UNL     1       7.929  26.468  56.559  1.00  0.00     0.325 C 
HETATM   21  N   UNL     1       7.678  25.715  55.422  1.00  0.00    -0.306 N 
HETATM   22  O   UNL     1       8.334  25.999  57.616  1.00  0.00    -0.247 OA
HETATM   23  H   UNL     1       7.267  26.160  54.617  1.00  0.00     0.171 HD
HETATM   24  H   UNL     1       7.462  28.072  55.379  1.00  0.00     0.170 HD
BRANCH  21  25
HETATM   25  C   UNL     1       7.851  24.346  55.347  1.00  0.00     0.072 A 
HETATM   26  C   UNL     1       8.746  23.473  56.007  1.00  0.00     0.169 A 
HETATM   27  N   UNL     1       8.572  22.198  55.644  1.00  0.00    -0.185 NA
HETATM   28  N   UNL     1       7.568  22.255  54.757  1.00  0.00    -0.287 N 
HETATM   29  H   UNL     1       7.249  21.387  54.340  1.00  0.00     0.188 HD
HETATM   30  C   UNL     1       7.103  23.521  54.541  1.00  0.00     0.140 A 
ENDBRANCH  21  25
ENDBRANCH   4  19
TORSDOF 6
ENDMDL
MODEL 10
REMARK VINA RESULT:      -8.2      4.504      7.930
REMARK  6 active torsions:
REMARK  status: ('A' for Active; 'I' for Inactive)
REMARK    1  A    between atoms: C_4  and  C_5 
REMARK    2  A    between atoms: C_5  and  C_6 
REMARK    3  A    between atoms: C_6  and  N_7 
REMARK       I    between atoms: N_7  and  C_8 
REMARK    4  A    between atoms: C_8  and  C_9 
REMARK    5  A    between atoms: C_12  and  N_13 
REMARK       I    between atoms: N_13  and  C_14 
REMARK       I    between atoms: C_14  and  N_15 
REMARK    6  A    between atoms: N_15  and  C_16 
ROOT
HETATM    1  C   UNL     1       7.205  30.054  58.038  1.00  0.00     0.032 A 
HETATM    2  C   UNL     1       6.143  29.348  57.463  1.00  0.00     0.019 A 
HETATM    3  C   UNL     1       6.380  28.149  56.779  1.00  0.00     0.030 A 
HETATM    4  C   UNL     1       7.673  27.634  56.668  1.00  0.00     0.036 A 
HETATM    5  C   UNL     1       8.731  28.331  57.267  1.00  0.00     0.030 A 
HETATM    6  C   UNL     1       8.498  29.530  57.950  1.00  0.00     0.019 A 
ENDROOT
BRANCH   1   7
HETATM    7  C   UNL     1       7.007  31.343  58.757  1.00  0.00     0.251 C 
HETATM    8  N   UNL     1       5.747  31.573  59.272  1.00  0.00    -0.357 N 
HETATM    9  H   UNL     1       4.980  31.018  58.911  1.00  0.00     0.162 HD
HETATM   10  O   UNL     1       7.927  32.150  58.837  1.00  0.00    -0.268 OA
BRANCH   8  11
HETATM   11  C   UNL     1       5.402  32.868  59.830  1.00  0.00     0.127 C 
BRANCH  11  12
HETATM   12  C   UNL     1       4.829  32.766  61.246  1.00  0.00     0.058 C 
BRANCH  12  13
HETATM   13  C   UNL     1       5.852  32.967  62.341  1.00  0.00    -0.057 A 
HETATM   14  C   UNL     1       5.715  34.023  63.253  1.00  0.00     0.007 A 
HETATM   15  C   UNL     1       6.652  34.207  64.272  1.00  0.00     0.001 A 
HETATM   16  C   UNL     1       7.735  33.339  64.389  1.00  0.00     0.000 A 
HETATM   17  C   UNL     1       7.880  32.283  63.492  1.00  0.00     0.001 A 
HETATM   18  C   UNL     1       6.942  32.095  62.476  1.00  0.00     0.007 A 
ENDBRANCH  12  13
ENDBRANCH  11  12
ENDBRANCH   8  11
ENDBRANCH   1   7
BRANCH   4  19
HETATM   19  N   UNL     1       7.996  26.454  55.966  1.00  0.00    -0.309 N 
HETATM   20  C   UNL     1       7.875  25.145  56.410  1.00  0.00     0.325 C 
HETATM   21  N   UNL     1       8.147  24.251  55.385  1.00  0.00    -0.306 N 
HETATM   22  O   UNL     1       7.557  24.810  57.545  1.00  0.00    -0.247 OA
HETATM   23  H   UNL     1       8.319  24.604  54.457  1.00  0.00     0.171 HD
HETATM   24  H   UNL     1       8.406  26.581  55.054  1.00  0.00     0.170 HD
BRANCH  21  25
HETATM   25  C   UNL     1       8.090  22.877  55.521  1.00  0.00     0.072 A 
HETATM   26  C   UNL     1       8.466  22.020  56.580  1.00  0.00     0.169 A 
HETATM   27  N   UNL     1       8.232  20.734  56.301  1.00  0.00    -0.185 NA
HETATM   28  N   UNL     1       7.706  20.769  55.067  1.00  0.00    -0.287 N 
HETATM   29  H   UNL     1       7.437  19.891  54.638  1.00  0.00     0.188 HD
HETATM   30  C   UNL     1       7.603  22.030  54.554  1.00  0.00     0.140 A 
ENDBRANCH  21  25
ENDBRANCH   4  19
TORSDOF 6
ENDMDL
