MODEL 1
REMARK VINA RESULT:      -8.9      0.000      0.000
REMARK  3 active torsions:
REMARK  status: ('A' for Active; 'I' for Inactive)
REMARK    1  A    between atoms: C_4  and  N_5 
REMARK       I    between atoms: N_5  and  C_6 
REMARK    2  A    between atoms: C_6  and  C_7 
REMARK    3  A    between atoms: C_7  and  C_8 
ROOT
HETATM    1  C   UNL     1       6.634  26.991  56.102  1.00  0.00     0.286 C 
HETATM    2  N   UNL     1       7.757  27.231  55.092  1.00  0.00    -0.056 N 
HETATM    3  H   UNL     1       8.065  28.203  55.219  1.00  0.00     0.278 HD
HETATM    4  H   UNL     1       8.582  26.673  55.396  1.00  0.00     0.278 HD
HETATM    5  C   UNL     1       7.453  27.022  53.638  1.00  0.00     0.209 C 
HETATM    6  C   UNL     1       6.131  27.741  53.282  1.00  0.00     0.115 C 
HETATM    7  N   UNL     1       5.056  27.439  54.222  1.00  0.00    -0.353 N 
HETATM    8  C   UNL     1       5.240  27.374  55.580  1.00  0.00     0.249 C 
HETATM    9  O   UNL     1       4.285  27.521  56.336  1.00  0.00    -0.271 OA
HETATM   10  C   UNL     1       7.460  25.535  53.286  1.00  0.00     0.035 C 
HETATM   11  C   UNL     1       7.067  25.314  51.829  1.00  0.00     0.002 C 
HETATM   12  C   UNL     1       5.710  25.944  51.523  1.00  0.00     0.002 C 
HETATM   13  C   UNL     1       5.703  27.439  51.841  1.00  0.00     0.027 C 
HETATM   14  H   UNL     1       4.113  27.740  53.980  1.00  0.00     0.163 HD
ENDROOT
BRANCH   1  15
HETATM   15  C   UNL     1       6.567  25.547  56.625  1.00  0.00     0.146 C 
BRANCH  15  16
HETATM   16  C   UNL     1       7.751  25.168  57.469  1.00  0.00     0.224 C 
HETATM   17  N   UNL     1       8.367  23.963  57.364  1.00  0.00    -0.327 N 
HETATM   18  H   UNL     1       9.102  23.862  58.061  1.00  0.00     0.169 HD
HETATM   19  O   UNL     1       8.204  26.000  58.269  1.00  0.00    -0.273 OA
BRANCH  17  20
HETATM   20  C   UNL     1       8.217  22.850  56.510  1.00  0.00     0.035 A 
HETATM   21  C   UNL     1       8.114  22.891  55.118  1.00  0.00     0.036 A 
HETATM   22  C   UNL     1       7.988  21.711  54.363  1.00  0.00    -0.060 A 
HETATM   23  C   UNL     1       7.900  21.757  52.865  1.00  0.00     0.048 C 
HETATM   24  C   UNL     1       7.975  20.475  55.015  1.00  0.00     0.007 A 
HETATM   25  C   UNL     1       8.083  20.418  56.400  1.00  0.00     0.003 A 
HETATM   26  C   UNL     1       8.207  21.596  57.138  1.00  0.00     0.029 A 
ENDBRANCH  17  20
ENDBRANCH  15  16
ENDBRANCH   1  15
TORSDOF 3
ENDMDL
MODEL 2
REMARK VINA RESULT:      -8.6      2.725      6.280
REMARK  3 active torsions:
REMARK  status: ('A' for Active; 'I' for Inactive)
REMARK    1  A    between atoms: C_4  and  N_5 
REMARK       I    between atoms: N_5  and  C_6 
REMARK    2  A    between atoms: C_6  and  C_7 
REMARK    3  A    between atoms: C_7  and  C_8 
ROOT
HETATM    1  C   UNL     1       6.920  25.823  55.579  1.00  0.00     0.286 C 
HETATM    2  N   UNL     1       6.194  24.610  54.996  1.00  0.00    -0.056 N 
HETATM    3  H   UNL     1       5.386  24.429  55.604  1.00  0.00     0.278 HD
HETATM    4  H   UNL     1       5.759  24.903  54.095  1.00  0.00     0.278 HD
HETATM    5  C   UNL     1       6.965  23.331  54.847  1.00  0.00     0.209 C 
HETATM    6  C   UNL     1       7.719  23.031  56.164  1.00  0.00     0.115 C 
HETATM    7  N   UNL     1       8.460  24.186  56.662  1.00  0.00    -0.353 N 
HETATM    8  C   UNL     1       7.961  25.463  56.652  1.00  0.00     0.249 C 
HETATM    9  O   UNL     1       8.417  26.306  57.418  1.00  0.00    -0.271 OA
HETATM   10  C   UNL     1       7.869  23.378  53.616  1.00  0.00     0.035 C 
HETATM   11  C   UNL     1       8.718  22.114  53.511  1.00  0.00     0.002 C 
HETATM   12  C   UNL     1       9.533  21.891  54.782  1.00  0.00     0.002 C 
HETATM   13  C   UNL     1       8.634  21.810  56.016  1.00  0.00     0.027 C 
HETATM   14  H   UNL     1       9.110  24.037  57.434  1.00  0.00     0.163 HD
ENDROOT
BRANCH   1  15
HETATM   15  C   UNL     1       7.608  26.703  54.523  1.00  0.00     0.146 C 
BRANCH  15  16
HETATM   16  C   UNL     1       6.881  27.991  54.264  1.00  0.00     0.224 C 
HETATM   17  N   UNL     1       7.017  29.080  55.062  1.00  0.00    -0.327 N 
HETATM   18  H   UNL     1       6.397  29.833  54.770  1.00  0.00     0.169 HD
HETATM   19  O   UNL     1       6.152  28.074  53.264  1.00  0.00    -0.273 OA
BRANCH  17  20
HETATM   20  C   UNL     1       7.823  29.391  56.177  1.00  0.00     0.035 A 
HETATM   21  C   UNL     1       9.217  29.486  56.183  1.00  0.00     0.036 A 
HETATM   22  C   UNL     1       9.918  29.823  57.355  1.00  0.00    -0.060 A 
HETATM   23  C   UNL     1      11.415  29.947  57.351  1.00  0.00     0.048 C 
HETATM   24  C   UNL     1       9.209  30.077  58.531  1.00  0.00     0.007 A 
HETATM   25  C   UNL     1       7.822  29.992  58.540  1.00  0.00     0.003 A 
HETATM   26  C   UNL     1       7.137  29.656  57.371  1.00  0.00     0.029 A 
ENDBRANCH  17  20
ENDBRANCH  15  16
ENDBRANCH   1  15
TORSDOF 3
ENDMDL
MODEL 3
REMARK VINA RESULT:      -8.5      2.099      3.627
REMARK  3 active torsions:
REMARK  status: ('A' for Active; 'I' for Inactive)
REMARK    1  A    between atoms: C_4  and  N_5 
REMARK       I    between atoms: N_5  and  C_6 
REMARK    2  A    between atoms: C_6  and  C_7 
REMARK    3  A    between atoms: C_7  and  C_8 
ROOT
HETATM    1  C   UNL     1       6.536  26.092  55.857  1.00  0.00     0.286 C 
HETATM    2  N   UNL     1       7.189  27.464  55.687  1.00  0.00    -0.056 N 
HETATM    3  H   UNL     1       7.890  27.552  56.433  1.00  0.00     0.278 HD
HETATM    4  H   UNL     1       7.762  27.437  54.818  1.00  0.00     0.278 HD
HETATM    5  C   UNL     1       6.305  28.676  55.730  1.00  0.00     0.209 C 
HETATM    6  C   UNL     1       5.365  28.581  56.954  1.00  0.00     0.115 C 
HETATM    7  N   UNL     1       4.700  27.285  57.054  1.00  0.00    -0.353 N 
HETATM    8  C   UNL     1       5.337  26.093  56.819  1.00  0.00     0.249 C 
HETATM    9  O   UNL     1       4.886  25.054  57.291  1.00  0.00    -0.271 OA
HETATM   10  C   UNL     1       5.571  28.864  54.403  1.00  0.00     0.035 C 
HETATM   11  C   UNL     1       4.606  30.044  54.471  1.00  0.00     0.002 C 
HETATM   12  C   UNL     1       3.621  29.882  55.626  1.00  0.00     0.002 C 
HETATM   13  C   UNL     1       4.344  29.726  56.962  1.00  0.00     0.027 C 
HETATM   14  H   UNL     1       3.947  27.188  57.734  1.00  0.00     0.163 HD
ENDROOT
BRANCH   1  15
HETATM   15  C   UNL     1       6.087  25.449  54.536  1.00  0.00     0.146 C 
BRANCH  15  16
HETATM   16  C   UNL     1       7.162  25.443  53.486  1.00  0.00     0.224 C 
HETATM   17  N   UNL     1       7.982  24.380  53.287  1.00  0.00    -0.327 N 
HETATM   18  H   UNL     1       8.688  24.585  52.584  1.00  0.00     0.169 HD
HETATM   19  O   UNL     1       7.284  26.435  52.753  1.00  0.00    -0.273 OA
BRANCH  17  20
HETATM   20  C   UNL     1       8.056  23.077  53.824  1.00  0.00     0.035 A 
HETATM   21  C   UNL     1       8.193  22.752  55.175  1.00  0.00     0.036 A 
HETATM   22  C   UNL     1       8.237  21.411  55.600  1.00  0.00    -0.060 A 
HETATM   23  C   UNL     1       8.361  21.066  57.056  1.00  0.00     0.048 C 
HETATM   24  C   UNL     1       8.132  20.387  54.656  1.00  0.00     0.007 A 
HETATM   25  C   UNL     1       7.990  20.695  53.308  1.00  0.00     0.003 A 
HETATM   26  C   UNL     1       7.948  22.029  52.898  1.00  0.00     0.029 A 
ENDBRANCH  17  20
ENDBRANCH  15  16
ENDBRANCH   1  15
TORSDOF 3
ENDMDL
MODEL 4
REMARK VINA RESULT:      -8.4      3.214      6.221
REMARK  3 active torsions:
REMARK  status: ('A' for Active; 'I' for Inactive)
REMARK    1  A    between atoms: C_4  and  N_5 
REMARK       I    between atoms: N_5  and  C_6 
REMARK    2  A    between atoms: C_6  and  C_7 
REMARK    3  A    between atoms: C_7  and  C_8 
ROOT
HETATM    1  C   UNL     1       6.761  25.523  56.743  1.00  0.00     0.286 C 
HETATM    2  N   UNL     1       5.635  25.210  55.757  1.00  0.00    -0.056 N 
HETATM    3  H   UNL     1       5.067  24.467  56.183  1.00  0.00     0.278 HD
HETATM    4  H   UNL     1       4.991  26.029  55.741  1.00  0.00     0.278 HD
HETATM    5  C   UNL     1       6.011  24.775  54.371  1.00  0.00     0.209 C 
HETATM    6  C   UNL     1       7.089  23.670  54.456  1.00  0.00     0.115 C 
HETATM    7  N   UNL     1       8.188  24.024  55.350  1.00  0.00    -0.353 N 
HETATM    8  C   UNL     1       8.004  24.637  56.563  1.00  0.00     0.249 C 
HETATM    9  O   UNL     1       8.867  24.550  57.431  1.00  0.00    -0.271 OA
HETATM   10  C   UNL     1       6.423  25.973  53.516  1.00  0.00     0.035 C 
HETATM   11  C   UNL     1       6.890  25.525  52.133  1.00  0.00     0.002 C 
HETATM   12  C   UNL     1       8.024  24.509  52.238  1.00  0.00     0.002 C 
HETATM   13  C   UNL     1       7.611  23.292  53.064  1.00  0.00     0.027 C 
HETATM   14  H   UNL     1       9.016  23.428  55.346  1.00  0.00     0.163 HD
ENDROOT
BRANCH   1  15
HETATM   15  C   UNL     1       7.215  26.991  56.722  1.00  0.00     0.146 C 
BRANCH  15  16
HETATM   16  C   UNL     1       6.164  27.942  57.220  1.00  0.00     0.224 C 
HETATM   17  N   UNL     1       6.471  29.118  57.824  1.00  0.00    -0.327 N 
HETATM   18  H   UNL     1       5.634  29.594  58.154  1.00  0.00     0.169 HD
HETATM   19  O   UNL     1       4.971  27.656  57.045  1.00  0.00    -0.273 OA
BRANCH  17  20
HETATM   20  C   UNL     1       7.672  29.814  58.076  1.00  0.00     0.035 A 
HETATM   21  C   UNL     1       8.929  29.499  57.555  1.00  0.00     0.036 A 
HETATM   22  C   UNL     1      10.060  30.279  57.860  1.00  0.00    -0.060 A 
HETATM   23  C   UNL     1      11.405  29.950  57.280  1.00  0.00     0.048 C 
HETATM   24  C   UNL     1       9.922  31.392  58.692  1.00  0.00     0.007 A 
HETATM   25  C   UNL     1       8.677  31.722  59.214  1.00  0.00     0.003 A 
HETATM   26  C   UNL     1       7.563  30.940  58.904  1.00  0.00     0.029 A 
ENDBRANCH  17  20
ENDBRANCH  15  16
ENDBRANCH   1  15
TORSDOF 3
ENDMDL
MODEL 5
REMARK VINA RESULT:      -8.3      1.409      2.169
REMARK  3 active torsions:
REMARK  status: ('A' for Active; 'I' for Inactive)
REMARK    1  A    between atoms: C_4  and  N_5 
REMARK       I    between atoms: N_5  and  C_6 
REMARK    2  A    between atoms: C_6  and  C_7 
REMARK    3  A    between atoms: C_7  and  C_8 
ROOT
HETATM    1  C   UNL     1       6.682  27.270  57.042  1.00  0.00     0.286 C 
HETATM    2  N   UNL     1       6.580  28.642  56.376  1.00  0.00    -0.056 N 
HETATM    3  H   UNL     1       6.041  29.241  57.014  1.00  0.00     0.278 HD
HETATM    4  H   UNL     1       7.530  29.071  56.385  1.00  0.00     0.278 HD
HETATM    5  C   UNL     1       5.951  28.721  55.016  1.00  0.00     0.209 C 
HETATM    6  C   UNL     1       4.622  27.931  55.021  1.00  0.00     0.115 C 
HETATM    7  N   UNL     1       4.762  26.598  55.598  1.00  0.00    -0.353 N 
HETATM    8  C   UNL     1       5.501  26.339  56.725  1.00  0.00     0.249 C 
HETATM    9  O   UNL     1       5.273  25.334  57.390  1.00  0.00    -0.271 OA
HETATM   10  C   UNL     1       6.931  28.271  53.934  1.00  0.00     0.035 C 
HETATM   11  C   UNL     1       6.267  28.267  52.559  1.00  0.00     0.002 C 
HETATM   12  C   UNL     1       5.011  27.399  52.558  1.00  0.00     0.002 C 
HETATM   13  C   UNL     1       4.010  27.861  53.616  1.00  0.00     0.027 C 
HETATM   14  H   UNL     1       3.980  25.951  55.499  1.00  0.00     0.163 HD
ENDROOT
BRANCH   1  15
HETATM   15  C   UNL     1       7.983  26.517  56.720  1.00  0.00     0.146 C 
BRANCH  15  16
HETATM   16  C   UNL     1       8.116  25.221  57.467  1.00  0.00     0.224 C 
HETATM   17  N   UNL     1       8.041  24.013  56.853  1.00  0.00    -0.327 N 
HETATM   18  H   UNL     1       8.085  23.252  57.528  1.00  0.00     0.169 HD
HETATM   19  O   UNL     1       8.334  25.257  58.687  1.00  0.00    -0.273 OA
BRANCH  17  20
HETATM   20  C   UNL     1       7.931  23.594  55.511  1.00  0.00     0.035 A 
HETATM   21  C   UNL     1       7.831  24.429  54.395  1.00  0.00     0.036 A 
HETATM   22  C   UNL     1       7.745  23.898  53.095  1.00  0.00    -0.060 A 
HETATM   23  C   UNL     1       7.660  24.799  51.897  1.00  0.00     0.048 C 
HETATM   24  C   UNL     1       7.771  22.513  52.915  1.00  0.00     0.007 A 
HETATM   25  C   UNL     1       7.876  21.670  54.015  1.00  0.00     0.003 A 
HETATM   26  C   UNL     1       7.960  22.208  55.300  1.00  0.00     0.029 A 
ENDBRANCH  17  20
ENDBRANCH  15  16
ENDBRANCH   1  15
TORSDOF 3
ENDMDL
MODEL 6
REMARK VINA RESULT:      -8.3      2.828      5.145
REMARK  3 active torsions:
REMARK  status: ('A' for Active; 'I' for Inactive)
REMARK    1  A    between atoms: C_4  and  N_5 
REMARK       I    between atoms: N_5  and  C_6 
REMARK    2  A    between atoms: C_6  and  C_7 
REMARK    3  A    between atoms: C_7  and  C_8 
ROOT
HETATM    1  C   UNL     1       6.030  28.363  56.707  1.00  0.00     0.286 C 
HETATM    2  N   UNL     1       7.214  27.582  57.275  1.00  0.00    -0.056 N 
HETATM    3  H   UNL     1       6.866  27.074  58.098  1.00  0.00     0.278 HD
HETATM    4  H   UNL     1       7.446  26.822  56.601  1.00  0.00     0.278 HD
HETATM    5  C   UNL     1       8.437  28.352  57.682  1.00  0.00     0.209 C 
HETATM    6  C   UNL     1       8.015  29.561  58.549  1.00  0.00     0.115 C 
HETATM    7  N   UNL     1       6.929  30.331  57.949  1.00  0.00    -0.353 N 
HETATM    8  C   UNL     1       5.846  29.753  57.337  1.00  0.00     0.249 C 
HETATM    9  O   UNL     1       4.801  30.385  57.217  1.00  0.00    -0.271 OA
HETATM   10  C   UNL     1       9.275  28.730  56.462  1.00  0.00     0.035 C 
HETATM   11  C   UNL     1      10.473  29.587  56.864  1.00  0.00     0.002 C 
HETATM   12  C   UNL     1      10.027  30.829  57.631  1.00  0.00     0.002 C 
HETATM   13  C   UNL     1       9.215  30.460  58.871  1.00  0.00     0.027 C 
HETATM   14  H   UNL     1       6.694  31.230  58.369  1.00  0.00     0.163 HD
ENDROOT
BRANCH   1  15
HETATM   15  C   UNL     1       6.072  28.533  55.180  1.00  0.00     0.146 C 
BRANCH  15  16
HETATM   16  C   UNL     1       4.876  27.945  54.487  1.00  0.00     0.224 C 
HETATM   17  N   UNL     1       4.930  26.772  53.806  1.00  0.00    -0.327 N 
HETATM   18  H   UNL     1       4.045  26.569  53.347  1.00  0.00     0.169 HD
HETATM   19  O   UNL     1       3.790  28.538  54.565  1.00  0.00    -0.273 OA
BRANCH  17  20
HETATM   20  C   UNL     1       5.924  25.789  53.612  1.00  0.00     0.035 A 
HETATM   21  C   UNL     1       6.229  24.745  54.487  1.00  0.00     0.036 A 
HETATM   22  C   UNL     1       7.232  23.807  54.180  1.00  0.00    -0.060 A 
HETATM   23  C   UNL     1       7.541  22.672  55.114  1.00  0.00     0.048 C 
HETATM   24  C   UNL     1       7.928  23.916  52.974  1.00  0.00     0.007 A 
HETATM   25  C   UNL     1       7.632  24.947  52.090  1.00  0.00     0.003 A 
HETATM   26  C   UNL     1       6.636  25.872  52.406  1.00  0.00     0.029 A 
ENDBRANCH  17  20
ENDBRANCH  15  16
ENDBRANCH   1  15
TORSDOF 3
ENDMDL
MODEL 7
REMARK VINA RESULT:      -8.1      2.514      4.262
REMARK  3 active torsions:
REMARK  status: ('A' for Active; 'I' for Inactive)
REMARK    1  A    between atoms: C_4  and  N_5 
REMARK       I    between atoms: N_5  and  C_6 
REMARK    2  A    between atoms: C_6  and  C_7 
REMARK    3  A    between atoms: C_7  and  C_8 
ROOT
HETATM    1  C   UNL     1       5.085  27.283  54.155  1.00  0.00     0.286 C 
HETATM    2  N   UNL     1       5.062  26.831  55.614  1.00  0.00    -0.056 N 
HETATM    3  H   UNL     1       4.078  26.842  55.912  1.00  0.00     0.278 HD
HETATM    4  H   UNL     1       5.311  25.819  55.637  1.00  0.00     0.278 HD
HETATM    5  C   UNL     1       5.861  27.619  56.610  1.00  0.00     0.209 C 
HETATM    6  C   UNL     1       5.571  29.126  56.421  1.00  0.00     0.115 C 
HETATM    7  N   UNL     1       5.669  29.547  55.027  1.00  0.00    -0.353 N 
HETATM    8  C   UNL     1       5.176  28.808  53.981  1.00  0.00     0.249 C 
HETATM    9  O   UNL     1       4.916  29.354  52.914  1.00  0.00    -0.271 OA
HETATM   10  C   UNL     1       7.344  27.262  56.526  1.00  0.00     0.035 C 
HETATM   11  C   UNL     1       8.171  28.124  57.476  1.00  0.00     0.002 C 
HETATM   12  C   UNL     1       7.948  29.610  57.206  1.00  0.00     0.002 C 
HETATM   13  C   UNL     1       6.471  29.984  57.320  1.00  0.00     0.027 C 
HETATM   14  H   UNL     1       5.650  30.547  54.829  1.00  0.00     0.163 HD
ENDROOT
BRANCH   1  15
HETATM   15  C   UNL     1       6.207  26.641  53.322  1.00  0.00     0.146 C 
BRANCH  15  16
HETATM   16  C   UNL     1       5.744  25.459  52.519  1.00  0.00     0.224 C 
HETATM   17  N   UNL     1       6.278  24.221  52.670  1.00  0.00    -0.327 N 
HETATM   18  H   UNL     1       5.888  23.566  51.995  1.00  0.00     0.169 HD
HETATM   19  O   UNL     1       4.818  25.614  51.710  1.00  0.00    -0.273 OA
BRANCH  17  20
HETATM   20  C   UNL     1       7.226  23.655  53.548  1.00  0.00     0.035 A 
HETATM   21  C   UNL     1       7.444  24.032  54.875  1.00  0.00     0.036 A 
HETATM   22  C   UNL     1       8.409  23.382  55.667  1.00  0.00    -0.060 A 
HETATM   23  C   UNL     1       8.624  23.774  57.100  1.00  0.00     0.048 C 
HETATM   24  C   UNL     1       9.155  22.335  55.120  1.00  0.00     0.007 A 
HETATM   25  C   UNL     1       8.945  21.945  53.802  1.00  0.00     0.003 A 
HETATM   26  C   UNL     1       7.986  22.598  53.026  1.00  0.00     0.029 A 
ENDBRANCH  17  20
ENDBRANCH  15  16
ENDBRANCH   1  15
TORSDOF 3
ENDMDL
MODEL 8
REMARK VINA RESULT:      -8.1      2.505      4.612
REMARK  3 active torsions:
REMARK  status: ('A' for Active; 'I' for Inactive)
REMARK    1  A    between atoms: C_4  and  N_5 
REMARK       I    between atoms: N_5  and  C_6 
REMARK    2  A    between atoms: C_6  and  C_7 
REMARK    3  A    between atoms: C_7  and  C_8 
ROOT
HETATM    1  C   UNL     1       6.908  27.939  55.938  1.00  0.00     0.286 C 
HETATM    2  N   UNL     1       6.412  29.170  55.179  1.00  0.00    -0.056 N 
HETATM    3  H   UNL     1       7.247  29.662  54.837  1.00  0.00     0.278 HD
HETATM    4  H   UNL     1       5.950  28.839  54.306  1.00  0.00     0.278 HD
HETATM    5  C   UNL     1       5.557  30.156  55.918  1.00  0.00     0.209 C 
HETATM    6  C   UNL     1       6.215  30.487  57.278  1.00  0.00     0.115 C 
HETATM    7  N   UNL     1       6.616  29.291  58.014  1.00  0.00    -0.353 N 
HETATM    8  C   UNL     1       7.211  28.207  57.421  1.00  0.00     0.249 C 
HETATM    9  O   UNL     1       7.880  27.430  58.095  1.00  0.00    -0.271 OA
HETATM   10  C   UNL     1       4.119  29.653  56.036  1.00  0.00     0.035 C 
HETATM   11  C   UNL     1       3.267  30.613  56.862  1.00  0.00     0.002 C 
HETATM   12  C   UNL     1       3.881  30.847  58.239  1.00  0.00     0.002 C 
HETATM   13  C   UNL     1       5.309  31.382  58.133  1.00  0.00     0.027 C 
HETATM   14  H   UNL     1       6.912  29.406  58.983  1.00  0.00     0.163 HD
ENDROOT
BRANCH   1  15
HETATM   15  C   UNL     1       5.959  26.733  55.855  1.00  0.00     0.146 C 
BRANCH  15  16
HETATM   16  C   UNL     1       5.499  26.437  54.456  1.00  0.00     0.224 C 
HETATM   17  N   UNL     1       5.960  25.378  53.744  1.00  0.00    -0.327 N 
HETATM   18  H   UNL     1       5.589  25.379  52.797  1.00  0.00     0.169 HD
HETATM   19  O   UNL     1       4.642  27.171  53.943  1.00  0.00    -0.273 OA
BRANCH  17  20
HETATM   20  C   UNL     1       6.815  24.293  54.033  1.00  0.00     0.035 A 
HETATM   21  C   UNL     1       7.124  23.805  55.304  1.00  0.00     0.036 A 
HETATM   22  C   UNL     1       7.977  22.700  55.472  1.00  0.00    -0.060 A 
HETATM   23  C   UNL     1       8.289  22.164  56.840  1.00  0.00     0.048 C 
HETATM   24  C   UNL     1       8.517  22.071  54.347  1.00  0.00     0.007 A 
HETATM   25  C   UNL     1       8.214  22.542  53.075  1.00  0.00     0.003 A 
HETATM   26  C   UNL     1       7.367  23.640  52.921  1.00  0.00     0.029 A 
ENDBRANCH  17  20
ENDBRANCH  15  16
ENDBRANCH   1  15
TORSDOF 3
ENDMDL
MODEL 9
REMARK VINA RESULT:      -7.8      2.402      3.910
REMARK  3 active torsions:
REMARK  status: ('A' for Active; 'I' for Inactive)
REMARK    1  A    between atoms: C_4  and  N_5 
REMARK       I    between atoms: N_5  and  C_6 
REMARK    2  A    between atoms: C_6  and  C_7 
REMARK    3  A    between atoms: C_7  and  C_8 
ROOT
HETATM    1  C   UNL     1       4.917  26.672  52.667  1.00  0.00     0.286 C 
HETATM    2  N   UNL     1       3.759  27.627  52.377  1.00  0.00    -0.056 N 
HETATM    3  H   UNL     1       2.952  27.044  52.123  1.00  0.00     0.278 HD
HETATM    4  H   UNL     1       3.471  28.060  53.280  1.00  0.00     0.278 HD
HETATM    5  C   UNL     1       3.947  28.659  51.304  1.00  0.00     0.209 C 
HETATM    6  C   UNL     1       4.528  27.983  50.040  1.00  0.00     0.115 C 
HETATM    7  N   UNL     1       5.677  27.131  50.336  1.00  0.00    -0.353 N 
HETATM    8  C   UNL     1       5.734  26.295  51.422  1.00  0.00     0.249 C 
HETATM    9  O   UNL     1       6.498  25.334  51.416  1.00  0.00    -0.271 OA
HETATM   10  C   UNL     1       4.783  29.831  51.815  1.00  0.00     0.035 C 
HETATM   11  C   UNL     1       5.050  30.841  50.701  1.00  0.00     0.002 C 
HETATM   12  C   UNL     1       5.716  30.173  49.501  1.00  0.00     0.002 C 
HETATM   13  C   UNL     1       4.873  29.018  48.963  1.00  0.00     0.027 C 
HETATM   14  H   UNL     1       6.218  26.773  49.550  1.00  0.00     0.163 HD
ENDROOT
BRANCH   1  15
HETATM   15  C   UNL     1       5.891  27.184  53.740  1.00  0.00     0.146 C 
BRANCH  15  16
HETATM   16  C   UNL     1       5.439  26.885  55.141  1.00  0.00     0.224 C 
HETATM   17  N   UNL     1       5.880  25.806  55.836  1.00  0.00    -0.327 N 
HETATM   18  H   UNL     1       5.413  25.730  56.737  1.00  0.00     0.169 HD
HETATM   19  O   UNL     1       4.657  27.671  55.695  1.00  0.00    -0.273 OA
BRANCH  17  20
HETATM   20  C   UNL     1       6.833  24.796  55.588  1.00  0.00     0.035 A 
HETATM   21  C   UNL     1       6.836  23.916  54.504  1.00  0.00     0.036 A 
HETATM   22  C   UNL     1       7.853  22.957  54.348  1.00  0.00    -0.060 A 
HETATM   23  C   UNL     1       7.865  22.027  53.168  1.00  0.00     0.048 C 
HETATM   24  C   UNL     1       8.884  22.889  55.288  1.00  0.00     0.007 A 
HETATM   25  C   UNL     1       8.898  23.761  56.370  1.00  0.00     0.003 A 
HETATM   26  C   UNL     1       7.883  24.708  56.515  1.00  0.00     0.029 A 
ENDBRANCH  17  20
ENDBRANCH  15  16
ENDBRANCH   1  15
TORSDOF 3
ENDMDL
MODEL 10
REMARK VINA RESULT:      -7.8      9.480     11.363
REMARK  3 active torsions:
REMARK  status: ('A' for Active; 'I' for Inactive)
REMARK    1  A    between atoms: C_4  and  N_5 
REMARK       I    between atoms: N_5  and  C_6 
REMARK    2  A    between atoms: C_6  and  C_7 
REMARK    3  A    between atoms: C_7  and  C_8 
ROOT
HETATM    1  C   UNL     1       5.663  32.662  63.702  1.00  0.00     0.286 C 
HETATM    2  N   UNL     1       5.720  31.441  62.785  1.00  0.00    -0.056 N 
HETATM    3  H   UNL     1       5.674  30.613  63.393  1.00  0.00     0.278 HD
HETATM    4  H   UNL     1       4.825  31.401  62.253  1.00  0.00     0.278 HD
HETATM    5  C   UNL     1       6.909  31.292  61.882  1.00  0.00     0.209 C 
HETATM    6  C   UNL     1       8.203  31.520  62.696  1.00  0.00     0.115 C 
HETATM    7  N   UNL     1       8.149  32.731  63.510  1.00  0.00    -0.353 N 
HETATM    8  C   UNL     1       7.039  33.113  64.218  1.00  0.00     0.249 C 
HETATM    9  O   UNL     1       7.153  33.874  65.174  1.00  0.00    -0.271 OA
HETATM   10  C   UNL     1       6.782  32.200  60.659  1.00  0.00     0.035 C 
HETATM   11  C   UNL     1       8.028  32.116  59.782  1.00  0.00     0.002 C 
HETATM   12  C   UNL     1       9.287  32.444  60.582  1.00  0.00     0.002 C 
HETATM   13  C   UNL     1       9.440  31.520  61.789  1.00  0.00     0.027 C 
HETATM   14  H   UNL     1       9.012  33.044  63.955  1.00  0.00     0.163 HD
ENDROOT
BRANCH   1  15
HETATM   15  C   UNL     1       4.967  33.880  63.073  1.00  0.00     0.146 C 
BRANCH  15  16
HETATM   16  C   UNL     1       3.475  33.732  62.992  1.00  0.00     0.224 C 
HETATM   17  N   UNL     1       2.830  33.469  61.827  1.00  0.00    -0.327 N 
HETATM   18  H   UNL     1       1.820  33.472  61.954  1.00  0.00     0.169 HD
HETATM   19  O   UNL     1       2.809  33.821  64.033  1.00  0.00    -0.273 OA
BRANCH  17  20
HETATM   20  C   UNL     1       3.249  33.187  60.509  1.00  0.00     0.035 A 
HETATM   21  C   UNL     1       3.701  34.120  59.573  1.00  0.00     0.036 A 
HETATM   22  C   UNL     1       4.114  33.721  58.289  1.00  0.00    -0.060 A 
HETATM   23  C   UNL     1       4.621  34.725  57.293  1.00  0.00     0.048 C 
HETATM   24  C   UNL     1       4.081  32.367  57.946  1.00  0.00     0.007 A 
HETATM   25  C   UNL     1       3.639  31.426  58.869  1.00  0.00     0.003 A 
HETATM   26  C   UNL     1       3.231  31.835  60.140  1.00  0.00     0.029 A 
ENDBRANCH  17  20
ENDBRANCH  15  16
ENDBRANCH   1  15
TORSDOF 3
ENDMDL
