MODEL 1
REMARK VINA RESULT:     -11.7      0.000      0.000
REMARK  8 active torsions:
REMARK  status: ('A' for Active; 'I' for Inactive)
REMARK    1  A    between atoms: C_4  and  C_5 
REMARK    2  A    between atoms: C_7  and  C_8 
REMARK    3  A    between atoms: C_9  and  C_10 
REMARK       I    between atoms: C_10  and  N_11 
REMARK    4  A    between atoms: N_11  and  C_12 
REMARK    5  A    between atoms: C_12  and  N_13 
REMARK    6  A    between atoms: N_13  and  C_14 
REMARK    7  A    between atoms: C_17  and  N_18 
REMARK       I    between atoms: N_21  and  C_22 
REMARK    8  A    between atoms: C_22  and  C_23 
ROOT
HETATM    1  N   UNL     1       9.597  30.220  59.043  1.00  0.00    -0.333 N 
HETATM    2  H   UNL     1      10.413  29.681  59.309  1.00  0.00     0.168 HD
ENDROOT
BRANCH   1   3
HETATM    3  C   UNL     1       9.110  29.931  57.791  1.00  0.00     0.179 C 
HETATM    4  S   UNL     1      10.007  29.709  56.394  1.00  0.00    -0.040 SA
BRANCH   3   5
HETATM    5  N   UNL     1       7.729  29.943  57.664  1.00  0.00    -0.300 N 
HETATM    6  C   UNL     1       6.768  29.028  57.269  1.00  0.00     0.247 C 
HETATM    7  O   UNL     1       5.587  29.207  57.555  1.00  0.00    -0.268 OA
HETATM    8  H   UNL     1       7.313  30.826  57.934  1.00  0.00     0.171 HD
BRANCH   6   9
HETATM    9  C   UNL     1       7.208  27.893  56.427  1.00  0.00     0.077 C 
HETATM   10  C   UNL     1       6.530  27.585  55.312  1.00  0.00     0.042 C 
BRANCH  10  11
HETATM   11  C   UNL     1       6.998  26.546  54.464  1.00  0.00     0.076 A 
HETATM   12  O   UNL     1       7.097  25.231  54.858  1.00  0.00    -0.310 OA
HETATM   13  C   UNL     1       7.585  24.488  53.824  1.00  0.00     0.086 A 
HETATM   14  C   UNL     1       7.821  25.314  52.748  1.00  0.00     0.041 A 
HETATM   15  C   UNL     1       7.434  26.618  53.149  1.00  0.00     0.040 A 
BRANCH  13  16
HETATM   16  C   UNL     1       7.740  23.058  54.078  1.00  0.00    -0.002 A 
HETATM   17  C   UNL     1       7.625  22.545  55.378  1.00  0.00     0.014 A 
HETATM   18  C   UNL     1       7.793  21.179  55.629  1.00  0.00     0.001 A 
HETATM   19  C   UNL     1       8.085  20.308  54.582  1.00  0.00     0.000 A 
HETATM   20  C   UNL     1       8.203  20.800  53.285  1.00  0.00     0.001 A 
HETATM   21  C   UNL     1       8.026  22.163  53.035  1.00  0.00     0.014 A 
ENDBRANCH  13  16
ENDBRANCH  10  11
ENDBRANCH   6   9
ENDBRANCH   3   5
ENDBRANCH   1   3
BRANCH   1  22
HETATM   22  C   UNL     1       8.952  30.904  60.094  1.00  0.00     0.034 A 
HETATM   23  C   UNL     1       8.178  32.024  59.783  1.00  0.00     0.031 A 
HETATM   24  C   UNL     1       7.490  32.716  60.791  1.00  0.00     0.026 A 
HETATM   25  C   UNL     1       7.522  32.282  62.120  1.00  0.00     0.010 A 
HETATM   26  C   UNL     1       8.270  31.131  62.406  1.00  0.00     0.026 A 
HETATM   27  C   UNL     1       8.983  30.452  61.411  1.00  0.00     0.031 A 
BRANCH  25  28
HETATM   28  N   UNL     1       6.859  32.927  63.171  1.00  0.00    -0.280 NA
HETATM   29  C   UNL     1       7.659  32.985  64.416  1.00  0.00     0.115 C 
HETATM   30  C   UNL     1       7.028  33.977  65.411  1.00  0.00     0.141 C 
HETATM   31  N   UNL     1       5.594  33.723  65.637  1.00  0.00    -0.344 N 
HETATM   32  C   UNL     1       4.911  34.240  66.748  1.00  0.00     0.277 C 
HETATM   33  C   UNL     1       4.816  33.572  64.400  1.00  0.00     0.141 C 
HETATM   34  O   UNL     1       3.732  34.586  66.650  1.00  0.00    -0.265 OA
HETATM   35  C   UNL     1       5.450  32.564  63.424  1.00  0.00     0.115 C 
BRANCH  32  36
HETATM   36  C   UNL     1       5.607  34.339  68.021  1.00  0.00     0.142 A 
HETATM   37  O   UNL     1       5.652  33.274  68.884  1.00  0.00    -0.317 OA
HETATM   38  C   UNL     1       6.306  33.685  70.001  1.00  0.00     0.143 A 
HETATM   39  C   UNL     1       6.671  35.005  69.890  1.00  0.00     0.027 A 
HETATM   40  C   UNL     1       6.207  35.432  68.624  1.00  0.00     0.045 A 
ENDBRANCH  32  36
ENDBRANCH  25  28
ENDBRANCH   1  22
TORSDOF 8
ENDMDL
MODEL 2
REMARK VINA RESULT:     -11.2      5.451      8.882
REMARK  8 active torsions:
REMARK  status: ('A' for Active; 'I' for Inactive)
REMARK    1  A    between atoms: C_4  and  C_5 
REMARK    2  A    between atoms: C_7  and  C_8 
REMARK    3  A    between atoms: C_9  and  C_10 
REMARK       I    between atoms: C_10  and  N_11 
REMARK    4  A    between atoms: N_11  and  C_12 
REMARK    5  A    between atoms: C_12  and  N_13 
REMARK    6  A    between atoms: N_13  and  C_14 
REMARK    7  A    between atoms: C_17  and  N_18 
REMARK       I    between atoms: N_21  and  C_22 
REMARK    8  A    between atoms: C_22  and  C_23 
ROOT
HETATM    1  N   UNL     1       2.637  29.534  49.443  1.00  0.00    -0.333 N 
HETATM    2  H   UNL     1       2.439  30.479  49.134  1.00  0.00     0.168 HD
ENDROOT
BRANCH   1   3
HETATM    3  C   UNL     1       2.527  28.583  48.457  1.00  0.00     0.179 C 
HETATM    4  S   UNL     1       1.147  27.734  48.035  1.00  0.00    -0.040 SA
BRANCH   3   5
HETATM    5  N   UNL     1       3.713  28.216  47.839  1.00  0.00    -0.300 N 
HETATM    6  C   UNL     1       4.594  27.155  47.949  1.00  0.00     0.247 C 
HETATM    7  O   UNL     1       5.403  26.925  47.053  1.00  0.00    -0.268 OA
HETATM    8  H   UNL     1       4.008  28.872  47.125  1.00  0.00     0.171 HD
BRANCH   6   9
HETATM    9  C   UNL     1       4.579  26.380  49.210  1.00  0.00     0.077 C 
HETATM   10  C   UNL     1       5.633  26.428  50.038  1.00  0.00     0.042 C 
BRANCH  10  11
HETATM   11  C   UNL     1       5.585  25.746  51.283  1.00  0.00     0.076 A 
HETATM   12  O   UNL     1       6.647  25.043  51.806  1.00  0.00    -0.310 OA
HETATM   13  C   UNL     1       6.281  24.501  53.002  1.00  0.00     0.086 A 
HETATM   14  C   UNL     1       4.971  24.835  53.266  1.00  0.00     0.041 A 
HETATM   15  C   UNL     1       4.535  25.638  52.182  1.00  0.00     0.040 A 
BRANCH  13  16
HETATM   16  C   UNL     1       7.307  23.728  53.697  1.00  0.00    -0.002 A 
HETATM   17  C   UNL     1       7.702  24.071  54.999  1.00  0.00     0.014 A 
HETATM   18  C   UNL     1       8.699  23.347  55.660  1.00  0.00     0.001 A 
HETATM   19  C   UNL     1       9.319  22.272  55.027  1.00  0.00     0.000 A 
HETATM   20  C   UNL     1       8.940  21.918  53.735  1.00  0.00     0.001 A 
HETATM   21  C   UNL     1       7.937  22.637  53.079  1.00  0.00     0.014 A 
ENDBRANCH  13  16
ENDBRANCH  10  11
ENDBRANCH   6   9
ENDBRANCH   3   5
ENDBRANCH   1   3
BRANCH   1  22
HETATM   22  C   UNL     1       3.277  29.425  50.695  1.00  0.00     0.034 A 
HETATM   23  C   UNL     1       2.547  28.917  51.772  1.00  0.00     0.031 A 
HETATM   24  C   UNL     1       3.150  28.759  53.028  1.00  0.00     0.026 A 
HETATM   25  C   UNL     1       4.502  29.058  53.226  1.00  0.00     0.010 A 
HETATM   26  C   UNL     1       5.229  29.527  52.123  1.00  0.00     0.026 A 
HETATM   27  C   UNL     1       4.626  29.716  50.873  1.00  0.00     0.031 A 
BRANCH  25  28
HETATM   28  N   UNL     1       5.163  28.923  54.453  1.00  0.00    -0.280 NA
HETATM   29  C   UNL     1       5.439  30.220  55.113  1.00  0.00     0.115 C 
HETATM   30  C   UNL     1       5.856  29.995  56.579  1.00  0.00     0.141 C 
HETATM   31  N   UNL     1       6.946  29.015  56.718  1.00  0.00    -0.344 N 
HETATM   32  C   UNL     1       7.726  28.925  57.881  1.00  0.00     0.277 C 
HETATM   33  C   UNL     1       6.715  27.762  55.985  1.00  0.00     0.141 C 
HETATM   34  O   UNL     1       8.142  27.832  58.271  1.00  0.00    -0.265 OA
HETATM   35  C   UNL     1       6.316  28.003  54.518  1.00  0.00     0.115 C 
BRANCH  32  36
HETATM   36  C   UNL     1       8.055  30.143  58.605  1.00  0.00     0.142 A 
HETATM   37  O   UNL     1       7.118  30.776  59.380  1.00  0.00    -0.317 OA
HETATM   38  C   UNL     1       7.693  31.905  59.870  1.00  0.00     0.143 A 
HETATM   39  C   UNL     1       8.982  32.029  59.411  1.00  0.00     0.027 A 
HETATM   40  C   UNL     1       9.211  30.905  58.584  1.00  0.00     0.045 A 
ENDBRANCH  32  36
ENDBRANCH  25  28
ENDBRANCH   1  22
TORSDOF 8
ENDMDL
MODEL 3
REMARK VINA RESULT:     -11.1      3.376     13.952
REMARK  8 active torsions:
REMARK  status: ('A' for Active; 'I' for Inactive)
REMARK    1  A    between atoms: C_4  and  C_5 
REMARK    2  A    between atoms: C_7  and  C_8 
REMARK    3  A    between atoms: C_9  and  C_10 
REMARK       I    between atoms: C_10  and  N_11 
REMARK    4  A    between atoms: N_11  and  C_12 
REMARK    5  A    between atoms: C_12  and  N_13 
REMARK    6  A    between atoms: N_13  and  C_14 
REMARK    7  A    between atoms: C_17  and  N_18 
REMARK       I    between atoms: N_21  and  C_22 
REMARK    8  A    between atoms: C_22  and  C_23 
ROOT
HETATM    1  N   UNL     1       7.274  31.695  59.824  1.00  0.00    -0.333 N 
HETATM    2  H   UNL     1       6.686  32.505  59.660  1.00  0.00     0.168 HD
ENDROOT
BRANCH   1   3
HETATM    3  C   UNL     1       7.719  31.573  61.119  1.00  0.00     0.179 C 
HETATM    4  S   UNL     1       9.275  31.844  61.673  1.00  0.00    -0.040 SA
BRANCH   3   5
HETATM    5  N   UNL     1       6.802  31.060  62.024  1.00  0.00    -0.300 N 
HETATM    6  C   UNL     1       5.783  31.585  62.799  1.00  0.00     0.247 C 
HETATM    7  O   UNL     1       4.922  30.849  63.274  1.00  0.00    -0.268 OA
HETATM    8  H   UNL     1       6.883  30.057  62.146  1.00  0.00     0.171 HD
BRANCH   6   9
HETATM    9  C   UNL     1       5.827  33.034  63.097  1.00  0.00     0.077 C 
HETATM   10  C   UNL     1       4.794  33.621  63.720  1.00  0.00     0.042 C 
BRANCH  10  11
HETATM   11  C   UNL     1       4.871  34.995  64.075  1.00  0.00     0.076 A 
HETATM   12  O   UNL     1       5.588  35.925  63.359  1.00  0.00    -0.310 OA
HETATM   13  C   UNL     1       5.468  37.144  63.959  1.00  0.00     0.086 A 
HETATM   14  C   UNL     1       4.680  37.017  65.081  1.00  0.00     0.041 A 
HETATM   15  C   UNL     1       4.288  35.656  65.146  1.00  0.00     0.040 A 
BRANCH  13  16
HETATM   16  C   UNL     1       6.166  38.250  63.310  1.00  0.00    -0.002 A 
HETATM   17  C   UNL     1       6.477  38.198  61.943  1.00  0.00     0.014 A 
HETATM   18  C   UNL     1       7.164  39.247  61.323  1.00  0.00     0.001 A 
HETATM   19  C   UNL     1       7.555  40.361  62.063  1.00  0.00     0.000 A 
HETATM   20  C   UNL     1       7.255  40.429  63.420  1.00  0.00     0.001 A 
HETATM   21  C   UNL     1       6.560  39.385  64.037  1.00  0.00     0.014 A 
ENDBRANCH  13  16
ENDBRANCH  10  11
ENDBRANCH   6   9
ENDBRANCH   3   5
ENDBRANCH   1   3
BRANCH   1  22
HETATM   22  C   UNL     1       7.258  30.716  58.810  1.00  0.00     0.034 A 
HETATM   23  C   UNL     1       8.312  29.802  58.751  1.00  0.00     0.031 A 
HETATM   24  C   UNL     1       8.322  28.789  57.780  1.00  0.00     0.026 A 
HETATM   25  C   UNL     1       7.262  28.638  56.880  1.00  0.00     0.010 A 
HETATM   26  C   UNL     1       6.193  29.539  56.982  1.00  0.00     0.026 A 
HETATM   27  C   UNL     1       6.190  30.570  57.928  1.00  0.00     0.031 A 
BRANCH  25  28
HETATM   28  N   UNL     1       7.212  27.649  55.889  1.00  0.00    -0.280 NA
HETATM   29  C   UNL     1       7.544  26.298  56.396  1.00  0.00     0.115 C 
HETATM   30  C   UNL     1       7.153  25.228  55.360  1.00  0.00     0.141 C 
HETATM   31  N   UNL     1       7.695  25.508  54.019  1.00  0.00    -0.344 N 
HETATM   32  C   UNL     1       7.787  24.518  53.029  1.00  0.00     0.277 C 
HETATM   33  C   UNL     1       7.447  26.880  53.554  1.00  0.00     0.141 C 
HETATM   34  O   UNL     1       7.617  24.805  51.842  1.00  0.00    -0.265 OA
HETATM   35  C   UNL     1       7.858  27.938  54.594  1.00  0.00     0.115 C 
BRANCH  32  36
HETATM   36  C   UNL     1       8.110  23.155  53.422  1.00  0.00     0.142 A 
HETATM   37  O   UNL     1       8.998  22.906  54.436  1.00  0.00    -0.317 OA
HETATM   38  C   UNL     1       9.144  21.559  54.526  1.00  0.00     0.143 A 
HETATM   39  C   UNL     1       8.379  20.926  53.576  1.00  0.00     0.027 A 
HETATM   40  C   UNL     1       7.727  21.952  52.854  1.00  0.00     0.045 A 
ENDBRANCH  32  36
ENDBRANCH  25  28
ENDBRANCH   1  22
TORSDOF 8
ENDMDL
MODEL 4
REMARK VINA RESULT:     -11.1      5.938     12.240
REMARK  8 active torsions:
REMARK  status: ('A' for Active; 'I' for Inactive)
REMARK    1  A    between atoms: C_4  and  C_5 
REMARK    2  A    between atoms: C_7  and  C_8 
REMARK    3  A    between atoms: C_9  and  C_10 
REMARK       I    between atoms: C_10  and  N_11 
REMARK    4  A    between atoms: N_11  and  C_12 
REMARK    5  A    between atoms: C_12  and  N_13 
REMARK    6  A    between atoms: N_13  and  C_14 
REMARK    7  A    between atoms: C_17  and  N_18 
REMARK       I    between atoms: N_21  and  C_22 
REMARK    8  A    between atoms: C_22  and  C_23 
ROOT
HETATM    1  N   UNL     1       4.512  29.757  57.255  1.00  0.00    -0.333 N 
HETATM    2  H   UNL     1       4.188  29.000  57.846  1.00  0.00     0.168 HD
ENDROOT
BRANCH   1   3
HETATM    3  C   UNL     1       5.239  30.719  57.914  1.00  0.00     0.179 C 
HETATM    4  S   UNL     1       5.002  32.375  57.847  1.00  0.00    -0.040 SA
BRANCH   3   5
HETATM    5  N   UNL     1       6.350  30.263  58.608  1.00  0.00    -0.300 N 
HETATM    6  C   UNL     1       7.501  29.568  58.279  1.00  0.00     0.247 C 
HETATM    7  O   UNL     1       8.467  29.574  59.037  1.00  0.00    -0.268 OA
HETATM    8  H   UNL     1       6.328  30.501  59.593  1.00  0.00     0.171 HD
BRANCH   6   9
HETATM    9  C   UNL     1       7.481  28.760  57.039  1.00  0.00     0.077 C 
HETATM   10  C   UNL     1       7.762  27.450  57.089  1.00  0.00     0.042 C 
BRANCH  10  11
HETATM   11  C   UNL     1       7.667  26.661  55.911  1.00  0.00     0.076 A 
HETATM   12  O   UNL     1       7.790  25.290  55.904  1.00  0.00    -0.310 OA
HETATM   13  C   UNL     1       7.660  24.835  54.625  1.00  0.00     0.086 A 
HETATM   14  C   UNL     1       7.463  25.908  53.783  1.00  0.00     0.041 A 
HETATM   15  C   UNL     1       7.453  27.065  54.602  1.00  0.00     0.040 A 
BRANCH  13  16
HETATM   16  C   UNL     1       7.753  23.389  54.445  1.00  0.00    -0.002 A 
HETATM   17  C   UNL     1       7.911  22.836  53.166  1.00  0.00     0.014 A 
HETATM   18  C   UNL     1       7.980  21.450  52.987  1.00  0.00     0.001 A 
HETATM   19  C   UNL     1       7.887  20.598  54.085  1.00  0.00     0.000 A 
HETATM   20  C   UNL     1       7.730  21.130  55.362  1.00  0.00     0.001 A 
HETATM   21  C   UNL     1       7.670  22.515  55.540  1.00  0.00     0.014 A 
ENDBRANCH  13  16
ENDBRANCH  10  11
ENDBRANCH   6   9
ENDBRANCH   3   5
ENDBRANCH   1   3
BRANCH   1  22
HETATM   22  C   UNL     1       4.433  29.521  55.867  1.00  0.00     0.034 A 
HETATM   23  C   UNL     1       4.211  28.214  55.427  1.00  0.00     0.031 A 
HETATM   24  C   UNL     1       4.091  27.935  54.057  1.00  0.00     0.026 A 
HETATM   25  C   UNL     1       4.144  28.956  53.102  1.00  0.00     0.010 A 
HETATM   26  C   UNL     1       4.325  30.267  53.567  1.00  0.00     0.026 A 
HETATM   27  C   UNL     1       4.475  30.549  54.929  1.00  0.00     0.031 A 
BRANCH  25  28
HETATM   28  N   UNL     1       4.031  28.745  51.722  1.00  0.00    -0.280 NA
HETATM   29  C   UNL     1       2.700  29.105  51.184  1.00  0.00     0.115 C 
HETATM   30  C   UNL     1       2.744  29.167  49.646  1.00  0.00     0.141 C 
HETATM   31  N   UNL     1       3.320  27.953  49.043  1.00  0.00    -0.344 N 
HETATM   32  C   UNL     1       3.127  27.627  47.692  1.00  0.00     0.277 C 
HETATM   33  C   UNL     1       4.597  27.541  49.641  1.00  0.00     0.141 C 
HETATM   34  O   UNL     1       4.019  27.067  47.051  1.00  0.00    -0.265 OA
HETATM   35  C   UNL     1       4.532  27.468  51.178  1.00  0.00     0.115 C 
BRANCH  32  36
HETATM   36  C   UNL     1       1.851  27.938  47.066  1.00  0.00     0.142 A 
HETATM   37  O   UNL     1       1.590  29.195  46.586  1.00  0.00    -0.317 OA
HETATM   38  C   UNL     1       0.313  29.197  46.126  1.00  0.00     0.143 A 
HETATM   39  C   UNL     1      -0.271  27.967  46.315  1.00  0.00     0.027 A 
HETATM   40  C   UNL     1       0.712  27.161  46.936  1.00  0.00     0.045 A 
ENDBRANCH  32  36
ENDBRANCH  25  28
ENDBRANCH   1  22
TORSDOF 8
ENDMDL
MODEL 5
REMARK VINA RESULT:     -11.0      2.220     13.977
REMARK  8 active torsions:
REMARK  status: ('A' for Active; 'I' for Inactive)
REMARK    1  A    between atoms: C_4  and  C_5 
REMARK    2  A    between atoms: C_7  and  C_8 
REMARK    3  A    between atoms: C_9  and  C_10 
REMARK       I    between atoms: C_10  and  N_11 
REMARK    4  A    between atoms: N_11  and  C_12 
REMARK    5  A    between atoms: C_12  and  N_13 
REMARK    6  A    between atoms: N_13  and  C_14 
REMARK    7  A    between atoms: C_17  and  N_18 
REMARK       I    between atoms: N_21  and  C_22 
REMARK    8  A    between atoms: C_22  and  C_23 
ROOT
HETATM    1  N   UNL     1       7.475  32.237  60.286  1.00  0.00    -0.333 N 
HETATM    2  H   UNL     1       7.537  33.205  59.992  1.00  0.00     0.168 HD
ENDROOT
BRANCH   1   3
HETATM    3  C   UNL     1       7.135  32.067  61.607  1.00  0.00     0.179 C 
HETATM    4  S   UNL     1       8.175  32.078  62.919  1.00  0.00    -0.040 SA
BRANCH   3   5
HETATM    5  N   UNL     1       5.809  31.739  61.850  1.00  0.00    -0.300 N 
HETATM    6  C   UNL     1       4.787  32.271  62.617  1.00  0.00     0.247 C 
HETATM    7  O   UNL     1       3.620  31.957  62.398  1.00  0.00    -0.268 OA
HETATM    8  H   UNL     1       5.503  30.920  61.338  1.00  0.00     0.171 HD
BRANCH   6   9
HETATM    9  C   UNL     1       5.165  33.148  63.747  1.00  0.00     0.077 C 
HETATM   10  C   UNL     1       4.233  33.547  64.625  1.00  0.00     0.042 C 
BRANCH  10  11
HETATM   11  C   UNL     1       4.610  34.325  65.753  1.00  0.00     0.076 A 
HETATM   12  O   UNL     1       5.399  33.848  66.775  1.00  0.00    -0.310 OA
HETATM   13  C   UNL     1       5.571  34.830  67.705  1.00  0.00     0.086 A 
HETATM   14  C   UNL     1       4.885  35.955  67.304  1.00  0.00     0.041 A 
HETATM   15  C   UNL     1       4.288  35.639  66.057  1.00  0.00     0.040 A 
BRANCH  13  16
HETATM   16  C   UNL     1       6.401  34.486  68.856  1.00  0.00    -0.002 A 
HETATM   17  C   UNL     1       7.660  35.080  69.034  1.00  0.00     0.014 A 
HETATM   18  C   UNL     1       8.467  34.737  70.125  1.00  0.00     0.001 A 
HETATM   19  C   UNL     1       8.028  33.792  71.049  1.00  0.00     0.000 A 
HETATM   20  C   UNL     1       6.782  33.193  70.887  1.00  0.00     0.001 A 
HETATM   21  C   UNL     1       5.973  33.542  69.803  1.00  0.00     0.014 A 
ENDBRANCH  13  16
ENDBRANCH  10  11
ENDBRANCH   6   9
ENDBRANCH   3   5
ENDBRANCH   1   3
BRANCH   1  22
HETATM   22  C   UNL     1       7.434  31.287  59.245  1.00  0.00     0.034 A 
HETATM   23  C   UNL     1       8.392  30.271  59.234  1.00  0.00     0.031 A 
HETATM   24  C   UNL     1       8.371  29.284  58.237  1.00  0.00     0.026 A 
HETATM   25  C   UNL     1       7.371  29.262  57.260  1.00  0.00     0.010 A 
HETATM   26  C   UNL     1       6.393  30.265  57.313  1.00  0.00     0.026 A 
HETATM   27  C   UNL     1       6.424  31.271  58.286  1.00  0.00     0.031 A 
BRANCH  25  28
HETATM   28  N   UNL     1       7.293  28.306  56.240  1.00  0.00    -0.280 NA
HETATM   29  C   UNL     1       7.487  26.920  56.724  1.00  0.00     0.115 C 
HETATM   30  C   UNL     1       7.068  25.911  55.638  1.00  0.00     0.141 C 
HETATM   31  N   UNL     1       7.701  26.179  54.335  1.00  0.00    -0.344 N 
HETATM   32  C   UNL     1       7.766  25.210  53.323  1.00  0.00     0.277 C 
HETATM   33  C   UNL     1       7.590  27.578  53.898  1.00  0.00     0.141 C 
HETATM   34  O   UNL     1       7.684  25.538  52.138  1.00  0.00    -0.265 OA
HETATM   35  C   UNL     1       8.029  28.573  54.988  1.00  0.00     0.115 C 
BRANCH  32  36
HETATM   36  C   UNL     1       7.956  23.816  53.693  1.00  0.00     0.142 A 
HETATM   37  O   UNL     1       8.789  23.467  54.724  1.00  0.00    -0.317 OA
HETATM   38  C   UNL     1       8.812  22.111  54.786  1.00  0.00     0.143 A 
HETATM   39  C   UNL     1       8.023  21.568  53.801  1.00  0.00     0.027 A 
HETATM   40  C   UNL     1       7.485  22.663  53.086  1.00  0.00     0.045 A 
ENDBRANCH  32  36
ENDBRANCH  25  28
ENDBRANCH   1  22
TORSDOF 8
ENDMDL
MODEL 6
REMARK VINA RESULT:     -10.8      1.503      2.042
REMARK  8 active torsions:
REMARK  status: ('A' for Active; 'I' for Inactive)
REMARK    1  A    between atoms: C_4  and  C_5 
REMARK    2  A    between atoms: C_7  and  C_8 
REMARK    3  A    between atoms: C_9  and  C_10 
REMARK       I    between atoms: C_10  and  N_11 
REMARK    4  A    between atoms: N_11  and  C_12 
REMARK    5  A    between atoms: C_12  and  N_13 
REMARK    6  A    between atoms: N_13  and  C_14 
REMARK    7  A    between atoms: C_17  and  N_18 
REMARK       I    between atoms: N_21  and  C_22 
REMARK    8  A    between atoms: C_22  and  C_23 
ROOT
HETATM    1  N   UNL     1       7.345  31.848  58.721  1.00  0.00    -0.333 N 
HETATM    2  H   UNL     1       7.887  32.467  58.129  1.00  0.00     0.168 HD
ENDROOT
BRANCH   1   3
HETATM    3  C   UNL     1       7.251  30.559  58.256  1.00  0.00     0.179 C 
HETATM    4  S   UNL     1       8.369  29.331  58.473  1.00  0.00    -0.040 SA
BRANCH   3   5
HETATM    5  N   UNL     1       6.172  30.296  57.426  1.00  0.00    -0.300 N 
HETATM    6  C   UNL     1       5.452  29.168  57.073  1.00  0.00     0.247 C 
HETATM    7  O   UNL     1       4.342  29.276  56.558  1.00  0.00    -0.268 OA
HETATM    8  H   UNL     1       5.808  31.126  56.972  1.00  0.00     0.171 HD
BRANCH   6   9
HETATM    9  C   UNL     1       6.105  27.853  57.258  1.00  0.00     0.077 C 
HETATM   10  C   UNL     1       6.670  27.233  56.212  1.00  0.00     0.042 C 
BRANCH  10  11
HETATM   11  C   UNL     1       7.365  26.008  56.406  1.00  0.00     0.076 A 
HETATM   12  O   UNL     1       7.357  24.978  55.494  1.00  0.00    -0.310 OA
HETATM   13  C   UNL     1       8.106  23.946  55.976  1.00  0.00     0.086 A 
HETATM   14  C   UNL     1       8.601  24.289  57.215  1.00  0.00     0.041 A 
HETATM   15  C   UNL     1       8.142  25.604  57.481  1.00  0.00     0.040 A 
BRANCH  13  16
HETATM   16  C   UNL     1       8.210  22.771  55.115  1.00  0.00    -0.002 A 
HETATM   17  C   UNL     1       7.768  22.817  53.785  1.00  0.00     0.014 A 
HETATM   18  C   UNL     1       7.846  21.687  52.963  1.00  0.00     0.001 A 
HETATM   19  C   UNL     1       8.364  20.494  53.463  1.00  0.00     0.000 A 
HETATM   20  C   UNL     1       8.808  20.431  54.780  1.00  0.00     0.001 A 
HETATM   21  C   UNL     1       8.737  21.563  55.598  1.00  0.00     0.014 A 
ENDBRANCH  13  16
ENDBRANCH  10  11
ENDBRANCH   6   9
ENDBRANCH   3   5
ENDBRANCH   1   3
BRANCH   1  22
HETATM   22  C   UNL     1       7.077  32.331  60.019  1.00  0.00     0.034 A 
HETATM   23  C   UNL     1       5.778  32.747  60.318  1.00  0.00     0.031 A 
HETATM   24  C   UNL     1       5.455  33.203  61.605  1.00  0.00     0.026 A 
HETATM   25  C   UNL     1       6.405  33.209  62.631  1.00  0.00     0.010 A 
HETATM   26  C   UNL     1       7.693  32.747  62.323  1.00  0.00     0.026 A 
HETATM   27  C   UNL     1       8.030  32.319  61.034  1.00  0.00     0.031 A 
BRANCH  25  28
HETATM   28  N   UNL     1       6.148  33.651  63.935  1.00  0.00    -0.280 NA
HETATM   29  C   UNL     1       7.299  33.473  64.849  1.00  0.00     0.115 C 
HETATM   30  C   UNL     1       7.076  34.266  66.150  1.00  0.00     0.141 C 
HETATM   31  N   UNL     1       5.772  33.980  66.775  1.00  0.00    -0.344 N 
HETATM   32  C   UNL     1       5.506  34.285  68.118  1.00  0.00     0.277 C 
HETATM   33  C   UNL     1       4.638  34.064  65.845  1.00  0.00     0.141 C 
HETATM   34  O   UNL     1       4.379  34.648  68.464  1.00  0.00    -0.265 OA
HETATM   35  C   UNL     1       4.869  33.254  64.557  1.00  0.00     0.115 C 
BRANCH  32  36
HETATM   36  C   UNL     1       6.571  34.143  69.098  1.00  0.00     0.142 A 
HETATM   37  O   UNL     1       6.525  33.157  70.050  1.00  0.00    -0.317 OA
HETATM   38  C   UNL     1       7.609  33.317  70.852  1.00  0.00     0.143 A 
HETATM   39  C   UNL     1       8.351  34.402  70.451  1.00  0.00     0.027 A 
HETATM   40  C   UNL     1       7.675  34.945  69.334  1.00  0.00     0.045 A 
ENDBRANCH  32  36
ENDBRANCH  25  28
ENDBRANCH   1  22
TORSDOF 8
ENDMDL
MODEL 7
REMARK VINA RESULT:     -10.7      3.480     10.708
REMARK  8 active torsions:
REMARK  status: ('A' for Active; 'I' for Inactive)
REMARK    1  A    between atoms: C_4  and  C_5 
REMARK    2  A    between atoms: C_7  and  C_8 
REMARK    3  A    between atoms: C_9  and  C_10 
REMARK       I    between atoms: C_10  and  N_11 
REMARK    4  A    between atoms: N_11  and  C_12 
REMARK    5  A    between atoms: C_12  and  N_13 
REMARK    6  A    between atoms: N_13  and  C_14 
REMARK    7  A    between atoms: C_17  and  N_18 
REMARK       I    between atoms: N_21  and  C_22 
REMARK    8  A    between atoms: C_22  and  C_23 
ROOT
HETATM    1  N   UNL     1       4.505  33.911  60.674  1.00  0.00    -0.333 N 
HETATM    2  H   UNL     1       5.172  34.661  60.530  1.00  0.00     0.168 HD
ENDROOT
BRANCH   1   3
HETATM    3  C   UNL     1       3.522  34.196  61.590  1.00  0.00     0.179 C 
HETATM    4  S   UNL     1       2.247  35.263  61.392  1.00  0.00    -0.040 SA
BRANCH   3   5
HETATM    5  N   UNL     1       3.681  33.621  62.842  1.00  0.00    -0.300 N 
HETATM    6  C   UNL     1       4.760  33.271  63.636  1.00  0.00     0.247 C 
HETATM    7  O   UNL     1       4.606  33.067  64.838  1.00  0.00    -0.268 OA
HETATM    8  H   UNL     1       2.801  33.414  63.299  1.00  0.00     0.171 HD
BRANCH   6   9
HETATM    9  C   UNL     1       6.065  33.070  62.967  1.00  0.00     0.077 C 
HETATM   10  C   UNL     1       6.467  31.832  62.644  1.00  0.00     0.042 C 
BRANCH  10  11
HETATM   11  C   UNL     1       7.684  31.648  61.933  1.00  0.00     0.076 A 
HETATM   12  O   UNL     1       7.753  31.084  60.680  1.00  0.00    -0.310 OA
HETATM   13  C   UNL     1       9.055  31.041  60.278  1.00  0.00     0.086 A 
HETATM   14  C   UNL     1       9.851  31.566  61.273  1.00  0.00     0.041 A 
HETATM   15  C   UNL     1       8.978  31.965  62.317  1.00  0.00     0.040 A 
BRANCH  13  16
HETATM   16  C   UNL     1       9.301  30.478  58.954  1.00  0.00    -0.002 A 
HETATM   17  C   UNL     1       8.490  29.448  58.452  1.00  0.00     0.014 A 
HETATM   18  C   UNL     1       8.735  28.891  57.193  1.00  0.00     0.001 A 
HETATM   19  C   UNL     1       9.797  29.353  56.419  1.00  0.00     0.000 A 
HETATM   20  C   UNL     1      10.611  30.374  56.900  1.00  0.00     0.001 A 
HETATM   21  C   UNL     1      10.360  30.936  58.155  1.00  0.00     0.014 A 
ENDBRANCH  13  16
ENDBRANCH  10  11
ENDBRANCH   6   9
ENDBRANCH   3   5
ENDBRANCH   1   3
BRANCH   1  22
HETATM   22  C   UNL     1       4.528  32.884  59.707  1.00  0.00     0.034 A 
HETATM   23  C   UNL     1       3.450  31.998  59.653  1.00  0.00     0.031 A 
HETATM   24  C   UNL     1       3.411  30.982  58.687  1.00  0.00     0.026 A 
HETATM   25  C   UNL     1       4.421  30.857  57.726  1.00  0.00     0.010 A 
HETATM   26  C   UNL     1       5.474  31.782  57.770  1.00  0.00     0.026 A 
HETATM   27  C   UNL     1       5.534  32.780  58.750  1.00  0.00     0.031 A 
BRANCH  25  28
HETATM   28  N   UNL     1       4.442  29.866  56.737  1.00  0.00    -0.280 NA
HETATM   29  C   UNL     1       5.270  28.694  57.103  1.00  0.00     0.115 C 
HETATM   30  C   UNL     1       4.990  27.522  56.144  1.00  0.00     0.141 C 
HETATM   31  N   UNL     1       5.100  27.907  54.726  1.00  0.00    -0.344 N 
HETATM   32  C   UNL     1       5.254  26.957  53.705  1.00  0.00     0.277 C 
HETATM   33  C   UNL     1       4.354  29.125  54.383  1.00  0.00     0.141 C 
HETATM   34  O   UNL     1       4.739  27.140  52.600  1.00  0.00    -0.265 OA
HETATM   35  C   UNL     1       4.657  30.292  55.340  1.00  0.00     0.115 C 
BRANCH  32  36
HETATM   36  C   UNL     1       6.050  25.767  53.962  1.00  0.00     0.142 A 
HETATM   37  O   UNL     1       7.314  25.865  54.485  1.00  0.00    -0.317 OA
HETATM   38  C   UNL     1       7.824  24.608  54.549  1.00  0.00     0.143 A 
HETATM   39  C   UNL     1       6.922  23.695  54.059  1.00  0.00     0.027 A 
HETATM   40  C   UNL     1       5.787  24.441  53.665  1.00  0.00     0.045 A 
ENDBRANCH  32  36
ENDBRANCH  25  28
ENDBRANCH   1  22
TORSDOF 8
ENDMDL
MODEL 8
REMARK VINA RESULT:     -10.7      4.391      7.073
REMARK  8 active torsions:
REMARK  status: ('A' for Active; 'I' for Inactive)
REMARK    1  A    between atoms: C_4  and  C_5 
REMARK    2  A    between atoms: C_7  and  C_8 
REMARK    3  A    between atoms: C_9  and  C_10 
REMARK       I    between atoms: C_10  and  N_11 
REMARK    4  A    between atoms: N_11  and  C_12 
REMARK    5  A    between atoms: C_12  and  N_13 
REMARK    6  A    between atoms: N_13  and  C_14 
REMARK    7  A    between atoms: C_17  and  N_18 
REMARK       I    between atoms: N_21  and  C_22 
REMARK    8  A    between atoms: C_22  and  C_23 
ROOT
HETATM    1  N   UNL     1       3.014  28.501  51.429  1.00  0.00    -0.333 N 
HETATM    2  H   UNL     1       2.105  28.054  51.461  1.00  0.00     0.168 HD
ENDROOT
BRANCH   1   3
HETATM    3  C   UNL     1       3.502  28.701  50.160  1.00  0.00     0.179 C 
HETATM    4  S   UNL     1       3.992  30.156  49.493  1.00  0.00    -0.040 SA
BRANCH   3   5
HETATM    5  N   UNL     1       3.470  27.596  49.323  1.00  0.00    -0.300 N 
HETATM    6  C   UNL     1       3.954  26.300  49.381  1.00  0.00     0.247 C 
HETATM    7  O   UNL     1       3.507  25.437  48.631  1.00  0.00    -0.268 OA
HETATM    8  H   UNL     1       2.963  27.765  48.462  1.00  0.00     0.171 HD
BRANCH   6   9
HETATM    9  C   UNL     1       5.075  26.030  50.309  1.00  0.00     0.077 C 
HETATM   10  C   UNL     1       4.833  25.484  51.509  1.00  0.00     0.042 C 
BRANCH  10  11
HETATM   11  C   UNL     1       5.916  25.153  52.367  1.00  0.00     0.076 A 
HETATM   12  O   UNL     1       6.204  23.867  52.766  1.00  0.00    -0.310 OA
HETATM   13  C   UNL     1       7.292  23.885  53.588  1.00  0.00     0.086 A 
HETATM   14  C   UNL     1       7.718  25.186  53.743  1.00  0.00     0.041 A 
HETATM   15  C   UNL     1       6.854  25.989  52.956  1.00  0.00     0.040 A 
BRANCH  13  16
HETATM   16  C   UNL     1       7.737  22.589  54.092  1.00  0.00    -0.002 A 
HETATM   17  C   UNL     1       7.801  22.341  55.471  1.00  0.00     0.014 A 
HETATM   18  C   UNL     1       8.247  21.108  55.959  1.00  0.00     0.001 A 
HETATM   19  C   UNL     1       8.641  20.108  55.073  1.00  0.00     0.000 A 
HETATM   20  C   UNL     1       8.584  20.337  53.702  1.00  0.00     0.001 A 
HETATM   21  C   UNL     1       8.130  21.566  53.216  1.00  0.00     0.014 A 
ENDBRANCH  13  16
ENDBRANCH  10  11
ENDBRANCH   6   9
ENDBRANCH   3   5
ENDBRANCH   1   3
BRANCH   1  22
HETATM   22  C   UNL     1       3.439  29.100  52.633  1.00  0.00     0.034 A 
HETATM   23  C   UNL     1       3.267  30.476  52.788  1.00  0.00     0.031 A 
HETATM   24  C   UNL     1       3.644  31.111  53.981  1.00  0.00     0.026 A 
HETATM   25  C   UNL     1       4.156  30.382  55.059  1.00  0.00     0.010 A 
HETATM   26  C   UNL     1       4.282  28.995  54.900  1.00  0.00     0.026 A 
HETATM   27  C   UNL     1       3.936  28.358  53.702  1.00  0.00     0.031 A 
BRANCH  25  28
HETATM   28  N   UNL     1       4.551  30.954  56.275  1.00  0.00    -0.280 NA
HETATM   29  C   UNL     1       5.974  30.705  56.602  1.00  0.00     0.115 C 
HETATM   30  C   UNL     1       6.425  31.620  57.756  1.00  0.00     0.141 C 
HETATM   31  N   UNL     1       5.527  31.552  58.922  1.00  0.00    -0.344 N 
HETATM   32  C   UNL     1       5.921  31.992  60.194  1.00  0.00     0.277 C 
HETATM   33  C   UNL     1       4.105  31.705  58.585  1.00  0.00     0.141 C 
HETATM   34  O   UNL     1       5.105  32.522  60.952  1.00  0.00    -0.265 OA
HETATM   35  C   UNL     1       3.665  30.772  57.442  1.00  0.00     0.115 C 
BRANCH  32  36
HETATM   36  C   UNL     1       7.300  31.795  60.614  1.00  0.00     0.142 A 
HETATM   37  O   UNL     1       7.949  30.613  60.365  1.00  0.00    -0.317 OA
HETATM   38  C   UNL     1       9.182  30.702  60.926  1.00  0.00     0.143 A 
HETATM   39  C   UNL     1       9.342  31.914  61.553  1.00  0.00     0.027 A 
HETATM   40  C   UNL     1       8.125  32.612  61.368  1.00  0.00     0.045 A 
ENDBRANCH  32  36
ENDBRANCH  25  28
ENDBRANCH   1  22
TORSDOF 8
ENDMDL
MODEL 9
REMARK VINA RESULT:     -10.6      4.328      6.966
REMARK  8 active torsions:
REMARK  status: ('A' for Active; 'I' for Inactive)
REMARK    1  A    between atoms: C_4  and  C_5 
REMARK    2  A    between atoms: C_7  and  C_8 
REMARK    3  A    between atoms: C_9  and  C_10 
REMARK       I    between atoms: C_10  and  N_11 
REMARK    4  A    between atoms: N_11  and  C_12 
REMARK    5  A    between atoms: C_12  and  N_13 
REMARK    6  A    between atoms: N_13  and  C_14 
REMARK    7  A    between atoms: C_17  and  N_18 
REMARK       I    between atoms: N_21  and  C_22 
REMARK    8  A    between atoms: C_22  and  C_23 
ROOT
HETATM    1  N   UNL     1       2.927  28.696  51.457  1.00  0.00    -0.333 N 
HETATM    2  H   UNL     1       1.993  28.316  51.350  1.00  0.00     0.168 HD
ENDROOT
BRANCH   1   3
HETATM    3  C   UNL     1       3.554  28.997  50.271  1.00  0.00     0.179 C 
HETATM    4  S   UNL     1       4.117  30.498  49.788  1.00  0.00    -0.040 SA
BRANCH   3   5
HETATM    5  N   UNL     1       3.615  27.967  49.345  1.00  0.00    -0.300 N 
HETATM    6  C   UNL     1       4.151  26.690  49.324  1.00  0.00     0.247 C 
HETATM    7  O   UNL     1       3.782  25.877  48.481  1.00  0.00    -0.268 OA
HETATM    8  H   UNL     1       3.149  28.188  48.473  1.00  0.00     0.171 HD
BRANCH   6   9
HETATM    9  C   UNL     1       5.230  26.385  50.290  1.00  0.00     0.077 C 
HETATM   10  C   UNL     1       5.000  25.540  51.306  1.00  0.00     0.042 C 
BRANCH  10  11
HETATM   11  C   UNL     1       6.058  25.187  52.186  1.00  0.00     0.076 A 
HETATM   12  O   UNL     1       6.250  23.914  52.672  1.00  0.00    -0.310 OA
HETATM   13  C   UNL     1       7.338  23.906  53.493  1.00  0.00     0.086 A 
HETATM   14  C   UNL     1       7.861  25.179  53.560  1.00  0.00     0.041 A 
HETATM   15  C   UNL     1       7.057  25.989  52.718  1.00  0.00     0.040 A 
BRANCH  13  16
HETATM   16  C   UNL     1       7.687  22.618  54.084  1.00  0.00    -0.002 A 
HETATM   17  C   UNL     1       7.572  22.411  55.467  1.00  0.00     0.014 A 
HETATM   18  C   UNL     1       7.925  21.185  56.041  1.00  0.00     0.001 A 
HETATM   19  C   UNL     1       8.403  20.150  55.240  1.00  0.00     0.000 A 
HETATM   20  C   UNL     1       8.523  20.338  53.866  1.00  0.00     0.001 A 
HETATM   21  C   UNL     1       8.162  21.560  53.293  1.00  0.00     0.014 A 
ENDBRANCH  13  16
ENDBRANCH  10  11
ENDBRANCH   6   9
ENDBRANCH   3   5
ENDBRANCH   1   3
BRANCH   1  22
HETATM   22  C   UNL     1       3.262  29.128  52.757  1.00  0.00     0.034 A 
HETATM   23  C   UNL     1       3.806  28.199  53.646  1.00  0.00     0.031 A 
HETATM   24  C   UNL     1       4.186  28.590  54.938  1.00  0.00     0.026 A 
HETATM   25  C   UNL     1       4.076  29.920  55.356  1.00  0.00     0.010 A 
HETATM   26  C   UNL     1       3.567  30.847  54.434  1.00  0.00     0.026 A 
HETATM   27  C   UNL     1       3.158  30.459  53.153  1.00  0.00     0.031 A 
BRANCH  25  28
HETATM   28  N   UNL     1       4.437  30.374  56.630  1.00  0.00    -0.280 NA
HETATM   29  C   UNL     1       3.320  31.022  57.356  1.00  0.00     0.115 C 
HETATM   30  C   UNL     1       3.679  31.195  58.844  1.00  0.00     0.141 C 
HETATM   31  N   UNL     1       4.980  31.857  59.043  1.00  0.00    -0.344 N 
HETATM   32  C   UNL     1       5.339  32.444  60.266  1.00  0.00     0.277 C 
HETATM   33  C   UNL     1       6.070  31.273  58.250  1.00  0.00     0.141 C 
HETATM   34  O   UNL     1       6.510  32.414  60.652  1.00  0.00    -0.265 OA
HETATM   35  C   UNL     1       5.703  31.122  56.762  1.00  0.00     0.115 C 
BRANCH  32  36
HETATM   36  C   UNL     1       4.315  33.107  61.057  1.00  0.00     0.142 A 
HETATM   37  O   UNL     1       3.647  34.201  60.571  1.00  0.00    -0.317 OA
HETATM   38  C   UNL     1       2.812  34.635  61.550  1.00  0.00     0.143 A 
HETATM   39  C   UNL     1       2.938  33.854  62.673  1.00  0.00     0.027 A 
HETATM   40  C   UNL     1       3.917  32.882  62.364  1.00  0.00     0.045 A 
ENDBRANCH  32  36
ENDBRANCH  25  28
ENDBRANCH   1  22
TORSDOF 8
ENDMDL
MODEL 10
REMARK VINA RESULT:     -10.4      5.076     11.333
REMARK  8 active torsions:
REMARK  status: ('A' for Active; 'I' for Inactive)
REMARK    1  A    between atoms: C_4  and  C_5 
REMARK    2  A    between atoms: C_7  and  C_8 
REMARK    3  A    between atoms: C_9  and  C_10 
REMARK       I    between atoms: C_10  and  N_11 
REMARK    4  A    between atoms: N_11  and  C_12 
REMARK    5  A    between atoms: C_12  and  N_13 
REMARK    6  A    between atoms: N_13  and  C_14 
REMARK    7  A    between atoms: C_17  and  N_18 
REMARK       I    between atoms: N_21  and  C_22 
REMARK    8  A    between atoms: C_22  and  C_23 
ROOT
HETATM    1  N   UNL     1       2.661  31.784  54.584  1.00  0.00    -0.333 N 
HETATM    2  H   UNL     1       1.679  31.589  54.428  1.00  0.00     0.168 HD
ENDROOT
BRANCH   1   3
HETATM    3  C   UNL     1       2.944  33.108  54.822  1.00  0.00     0.179 C 
HETATM    4  S   UNL     1       4.004  34.076  53.960  1.00  0.00    -0.040 SA
BRANCH   3   5
HETATM    5  N   UNL     1       2.374  33.649  55.964  1.00  0.00    -0.300 N 
HETATM    6  C   UNL     1       2.852  34.117  57.177  1.00  0.00     0.247 C 
HETATM    7  O   UNL     1       2.150  34.836  57.884  1.00  0.00    -0.268 OA
HETATM    8  H   UNL     1       1.367  33.738  55.903  1.00  0.00     0.171 HD
BRANCH   6   9
HETATM    9  C   UNL     1       4.186  33.650  57.614  1.00  0.00     0.077 C 
HETATM   10  C   UNL     1       4.341  33.114  58.834  1.00  0.00     0.042 C 
BRANCH  10  11
HETATM   11  C   UNL     1       5.605  32.595  59.222  1.00  0.00     0.076 A 
HETATM   12  O   UNL     1       6.422  31.876  58.380  1.00  0.00    -0.310 OA
HETATM   13  C   UNL     1       7.553  31.515  59.052  1.00  0.00     0.086 A 
HETATM   14  C   UNL     1       7.478  31.987  60.344  1.00  0.00     0.041 A 
HETATM   15  C   UNL     1       6.249  32.685  60.448  1.00  0.00     0.040 A 
BRANCH  13  16
HETATM   16  C   UNL     1       8.536  30.751  58.290  1.00  0.00    -0.002 A 
HETATM   17  C   UNL     1       8.178  29.548  57.663  1.00  0.00     0.014 A 
HETATM   18  C   UNL     1       9.122  28.802  56.949  1.00  0.00     0.001 A 
HETATM   19  C   UNL     1      10.439  29.246  56.858  1.00  0.00     0.000 A 
HETATM   20  C   UNL     1      10.812  30.437  57.474  1.00  0.00     0.001 A 
HETATM   21  C   UNL     1       9.866  31.186  58.179  1.00  0.00     0.014 A 
ENDBRANCH  13  16
ENDBRANCH  10  11
ENDBRANCH   6   9
ENDBRANCH   3   5
ENDBRANCH   1   3
BRANCH   1  22
HETATM   22  C   UNL     1       3.472  30.658  54.838  1.00  0.00     0.034 A 
HETATM   23  C   UNL     1       4.017  29.973  53.750  1.00  0.00     0.031 A 
HETATM   24  C   UNL     1       4.857  28.868  53.953  1.00  0.00     0.026 A 
HETATM   25  C   UNL     1       5.208  28.452  55.242  1.00  0.00     0.010 A 
HETATM   26  C   UNL     1       4.685  29.179  56.321  1.00  0.00     0.026 A 
HETATM   27  C   UNL     1       3.823  30.264  56.126  1.00  0.00     0.031 A 
BRANCH  25  28
HETATM   28  N   UNL     1       6.040  27.359  55.512  1.00  0.00    -0.280 NA
HETATM   29  C   UNL     1       6.271  26.496  54.331  1.00  0.00     0.115 C 
HETATM   30  C   UNL     1       7.435  25.523  54.599  1.00  0.00     0.141 C 
HETATM   31  N   UNL     1       7.274  24.776  55.858  1.00  0.00    -0.344 N 
HETATM   32  C   UNL     1       7.990  23.599  56.124  1.00  0.00     0.277 C 
HETATM   33  C   UNL     1       6.951  25.623  57.014  1.00  0.00     0.141 C 
HETATM   34  O   UNL     1       8.359  23.338  57.271  1.00  0.00    -0.265 OA
HETATM   35  C   UNL     1       5.776  26.577  56.736  1.00  0.00     0.115 C 
BRANCH  32  36
HETATM   36  C   UNL     1       8.270  22.681  55.030  1.00  0.00     0.142 A 
HETATM   37  O   UNL     1       7.310  22.381  54.099  1.00  0.00    -0.317 OA
HETATM   38  C   UNL     1       7.839  21.459  53.254  1.00  0.00     0.143 A 
HETATM   39  C   UNL     1       9.121  21.138  53.630  1.00  0.00     0.027 A 
HETATM   40  C   UNL     1       9.394  21.911  54.782  1.00  0.00     0.045 A 
ENDBRANCH  32  36
ENDBRANCH  25  28
ENDBRANCH   1  22
TORSDOF 8
ENDMDL
