MODEL 1
REMARK VINA RESULT:      -9.5      0.000      0.000
REMARK  6 active torsions:
REMARK  status: ('A' for Active; 'I' for Inactive)
REMARK    1  A    between atoms: C_7  and  S_8 
REMARK    2  A    between atoms: S_8  and  C_9 
REMARK    3  A    between atoms: C_9  and  C_10 
REMARK    4  A    between atoms: C_18  and  C_19 
REMARK    5  A    between atoms: C_26  and  C_27 
REMARK    6  A    between atoms: C_27  and  O_28 
ROOT
HETATM    1  C   UNL     1      11.275  30.242  57.389  1.00  0.00     0.070 C 
HETATM    2  C   UNL     1       9.829  29.818  57.443  1.00  0.00     0.037 C 
HETATM    3  N   UNL     1       9.458  28.829  56.535  1.00  0.00    -0.192 N 
HETATM    4  C   UNL     1       8.297  28.152  56.627  1.00  0.00     0.726 A 
HETATM    5  N   UNL     1       7.339  28.577  57.505  1.00  0.00    -0.082 N 
HETATM    6  N   UNL     1       6.294  27.725  57.542  1.00  0.00    -0.128 NA
HETATM    7  C   UNL     1       6.678  26.819  56.631  1.00  0.00     0.226 A 
HETATM    8  N   UNL     1       7.894  27.060  56.039  1.00  0.00    -0.035 NA
HETATM    9  C   UNL     1       7.489  29.753  58.370  1.00  0.00     0.203 C 
HETATM   10  C   UNL     1       8.921  30.281  58.339  1.00  0.00     0.070 C 
HETATM   11  H   UNL     1      10.190  28.435  55.948  1.00  0.00     0.184 HD
ENDROOT
BRANCH   7  12
HETATM   12  S   UNL     1       5.762  25.388  56.253  1.00  0.00    -0.083 SA
BRANCH  12  13
HETATM   13  C   UNL     1       6.962  24.080  56.627  1.00  0.00     0.123 C 
BRANCH  13  14
HETATM   14  C   UNL     1       7.309  23.297  55.380  1.00  0.00    -0.027 A 
HETATM   15  C   UNL     1       7.917  22.031  55.417  1.00  0.00     0.041 A 
HETATM   16 CL   UNL     1       8.294  21.235  56.905  1.00  0.00    -0.084 Cl
HETATM   17  C   UNL     1       8.250  21.367  54.231  1.00  0.00     0.024 A 
HETATM   18  C   UNL     1       7.989  21.957  52.996  1.00  0.00     0.002 A 
HETATM   19  C   UNL     1       7.394  23.214  52.941  1.00  0.00     0.001 A 
HETATM   20  C   UNL     1       7.057  23.878  54.122  1.00  0.00     0.009 A 
ENDBRANCH  13  14
ENDBRANCH  12  13
ENDBRANCH   7  12
BRANCH   9  21
HETATM   21  C   UNL     1       6.477  30.830  57.977  1.00  0.00    -0.026 A 
HETATM   22  C   UNL     1       6.048  31.766  58.934  1.00  0.00     0.033 A 
HETATM   23  C   UNL     1       5.146  32.771  58.584  1.00  0.00     0.034 A 
HETATM   24 CL   UNL     1       4.634  33.911  59.768  1.00  0.00    -0.084 Cl
HETATM   25  C   UNL     1       4.660  32.864  57.282  1.00  0.00     0.024 A 
HETATM   26  C   UNL     1       5.081  31.947  56.320  1.00  0.00     0.002 A 
HETATM   27  C   UNL     1       5.986  30.940  56.663  1.00  0.00     0.010 A 
ENDBRANCH   9  21
BRANCH  10  28
HETATM   28  C   UNL     1       9.204  31.264  59.407  1.00  0.00     0.293 C 
HETATM   29  O   UNL     1       9.425  32.443  59.173  1.00  0.00    -0.259 OA
BRANCH  28  30
HETATM   30  O   UNL     1       9.246  30.675  60.625  1.00  0.00    -0.323 OA
HETATM   31  C   UNL     1       8.658  31.454  61.668  1.00  0.00     0.213 C 
ENDBRANCH  28  30
ENDBRANCH  10  28
TORSDOF 6
ENDMDL
MODEL 2
REMARK VINA RESULT:      -9.2      1.792      2.240
REMARK  6 active torsions:
REMARK  status: ('A' for Active; 'I' for Inactive)
REMARK    1  A    between atoms: C_7  and  S_8 
REMARK    2  A    between atoms: S_8  and  C_9 
REMARK    3  A    between atoms: C_9  and  C_10 
REMARK    4  A    between atoms: C_18  and  C_19 
REMARK    5  A    between atoms: C_26  and  C_27 
REMARK    6  A    between atoms: C_27  and  O_28 
ROOT
HETATM    1  C   UNL     1      10.477  30.462  57.053  1.00  0.00     0.070 C 
HETATM    2  C   UNL     1       9.149  29.780  56.833  1.00  0.00     0.037 C 
HETATM    3  N   UNL     1       9.057  28.997  55.685  1.00  0.00    -0.192 N 
HETATM    4  C   UNL     1       8.057  28.117  55.480  1.00  0.00     0.726 A 
HETATM    5  N   UNL     1       6.972  28.128  56.310  1.00  0.00    -0.082 N 
HETATM    6  N   UNL     1       6.124  27.118  56.024  1.00  0.00    -0.128 NA
HETATM    7  C   UNL     1       6.753  26.552  54.984  1.00  0.00     0.226 A 
HETATM    8  N   UNL     1       7.933  27.150  54.613  1.00  0.00    -0.035 NA
HETATM    9  C   UNL     1       6.812  29.061  57.432  1.00  0.00     0.203 C 
HETATM   10  C   UNL     1       8.102  29.833  57.696  1.00  0.00     0.070 C 
HETATM   11  H   UNL     1       9.896  28.901  55.117  1.00  0.00     0.184 HD
ENDROOT
BRANCH   7  12
HETATM   12  S   UNL     1       6.183  25.116  54.182  1.00  0.00    -0.083 SA
BRANCH  12  13
HETATM   13  C   UNL     1       7.718  24.464  53.471  1.00  0.00     0.123 C 
BRANCH  13  14
HETATM   14  C   UNL     1       7.954  23.038  53.916  1.00  0.00    -0.027 A 
HETATM   15  C   UNL     1       8.478  22.708  55.177  1.00  0.00     0.041 A 
HETATM   16 CL   UNL     1       8.871  23.911  56.354  1.00  0.00    -0.084 Cl
HETATM   17  C   UNL     1       8.711  21.372  55.523  1.00  0.00     0.024 A 
HETATM   18  C   UNL     1       8.433  20.350  54.616  1.00  0.00     0.002 A 
HETATM   19  C   UNL     1       7.920  20.661  53.360  1.00  0.00     0.001 A 
HETATM   20  C   UNL     1       7.683  21.992  53.013  1.00  0.00     0.009 A 
ENDBRANCH  13  14
ENDBRANCH  12  13
ENDBRANCH   7  12
BRANCH   9  21
HETATM   21  C   UNL     1       5.630  29.997  57.176  1.00  0.00    -0.026 A 
HETATM   22  C   UNL     1       5.653  30.862  56.069  1.00  0.00     0.033 A 
HETATM   23  C   UNL     1       4.571  31.703  55.807  1.00  0.00     0.034 A 
HETATM   24 CL   UNL     1       4.614  32.754  54.445  1.00  0.00    -0.084 Cl
HETATM   25  C   UNL     1       3.451  31.695  56.636  1.00  0.00     0.024 A 
HETATM   26  C   UNL     1       3.410  30.837  57.734  1.00  0.00     0.002 A 
HETATM   27  C   UNL     1       4.490  29.991  58.001  1.00  0.00     0.010 A 
ENDBRANCH   9  21
BRANCH  10  28
HETATM   28  C   UNL     1       8.097  30.555  58.985  1.00  0.00     0.293 C 
HETATM   29  O   UNL     1       8.395  30.015  60.042  1.00  0.00    -0.259 OA
BRANCH  28  30
HETATM   30  O   UNL     1       7.668  31.830  58.839  1.00  0.00    -0.323 OA
HETATM   31  C   UNL     1       6.794  32.273  59.879  1.00  0.00     0.213 C 
ENDBRANCH  28  30
ENDBRANCH  10  28
TORSDOF 6
ENDMDL
MODEL 3
REMARK VINA RESULT:      -9.1      4.735      6.959
REMARK  6 active torsions:
REMARK  status: ('A' for Active; 'I' for Inactive)
REMARK    1  A    between atoms: C_7  and  S_8 
REMARK    2  A    between atoms: S_8  and  C_9 
REMARK    3  A    between atoms: C_9  and  C_10 
REMARK    4  A    between atoms: C_18  and  C_19 
REMARK    5  A    between atoms: C_26  and  C_27 
REMARK    6  A    between atoms: C_27  and  O_28 
ROOT
HETATM    1  C   UNL     1       6.694  30.447  57.936  1.00  0.00     0.070 C 
HETATM    2  C   UNL     1       6.409  29.665  56.678  1.00  0.00     0.037 C 
HETATM    3  N   UNL     1       5.147  29.860  56.121  1.00  0.00    -0.192 N 
HETATM    4  C   UNL     1       4.830  29.460  54.874  1.00  0.00     0.726 A 
HETATM    5  N   UNL     1       5.689  28.646  54.191  1.00  0.00    -0.082 N 
HETATM    6  N   UNL     1       5.265  28.434  52.928  1.00  0.00    -0.128 NA
HETATM    7  C   UNL     1       4.121  29.132  52.928  1.00  0.00     0.226 A 
HETATM    8  N   UNL     1       3.815  29.760  54.111  1.00  0.00    -0.035 NA
HETATM    9  C   UNL     1       6.960  28.158  54.738  1.00  0.00     0.203 C 
HETATM   10  C   UNL     1       7.306  28.865  56.046  1.00  0.00     0.070 C 
HETATM   11  H   UNL     1       4.540  30.544  56.568  1.00  0.00     0.184 HD
ENDROOT
BRANCH   7  12
HETATM   12  S   UNL     1       3.104  29.312  51.527  1.00  0.00    -0.083 SA
BRANCH  12  13
HETATM   13  C   UNL     1       4.290  29.045  50.182  1.00  0.00     0.123 C 
BRANCH  13  14
HETATM   14  C   UNL     1       3.761  28.031  49.192  1.00  0.00    -0.027 A 
HETATM   15  C   UNL     1       4.096  26.668  49.240  1.00  0.00     0.041 A 
HETATM   16 CL   UNL     1       5.124  26.017  50.467  1.00  0.00    -0.084 Cl
HETATM   17  C   UNL     1       3.606  25.780  48.275  1.00  0.00     0.024 A 
HETATM   18  C   UNL     1       2.785  26.240  47.247  1.00  0.00     0.002 A 
HETATM   19  C   UNL     1       2.449  27.589  47.180  1.00  0.00     0.001 A 
HETATM   20  C   UNL     1       2.933  28.477  48.143  1.00  0.00     0.009 A 
ENDBRANCH  13  14
ENDBRANCH  12  13
ENDBRANCH   7  12
BRANCH   9  21
HETATM   21  C   UNL     1       6.914  26.639  54.908  1.00  0.00    -0.026 A 
HETATM   22  C   UNL     1       7.490  25.811  53.929  1.00  0.00     0.033 A 
HETATM   23  C   UNL     1       7.479  24.424  54.083  1.00  0.00     0.034 A 
HETATM   24 CL   UNL     1       8.191  23.424  52.876  1.00  0.00    -0.084 Cl
HETATM   25  C   UNL     1       6.904  23.841  55.210  1.00  0.00     0.024 A 
HETATM   26  C   UNL     1       6.337  24.650  56.193  1.00  0.00     0.002 A 
HETATM   27  C   UNL     1       6.344  26.039  56.046  1.00  0.00     0.010 A 
ENDBRANCH   9  21
BRANCH  10  28
HETATM   28  C   UNL     1       8.700  28.640  56.482  1.00  0.00     0.293 C 
HETATM   29  O   UNL     1       8.993  27.843  57.362  1.00  0.00    -0.259 OA
BRANCH  28  30
HETATM   30  O   UNL     1       9.561  29.461  55.836  1.00  0.00    -0.323 OA
HETATM   31  C   UNL     1      10.590  29.996  56.670  1.00  0.00     0.213 C 
ENDBRANCH  28  30
ENDBRANCH  10  28
TORSDOF 6
ENDMDL
MODEL 4
REMARK VINA RESULT:      -8.9      2.236      2.704
REMARK  6 active torsions:
REMARK  status: ('A' for Active; 'I' for Inactive)
REMARK    1  A    between atoms: C_7  and  S_8 
REMARK    2  A    between atoms: S_8  and  C_9 
REMARK    3  A    between atoms: C_9  and  C_10 
REMARK    4  A    between atoms: C_18  and  C_19 
REMARK    5  A    between atoms: C_26  and  C_27 
REMARK    6  A    between atoms: C_27  and  O_28 
ROOT
HETATM    1  C   UNL     1       9.991  31.074  57.969  1.00  0.00     0.070 C 
HETATM    2  C   UNL     1       8.840  30.129  57.734  1.00  0.00     0.037 C 
HETATM    3  N   UNL     1       9.156  28.951  57.060  1.00  0.00    -0.192 N 
HETATM    4  C   UNL     1       8.322  27.894  57.007  1.00  0.00     0.726 A 
HETATM    5  N   UNL     1       7.033  28.033  57.440  1.00  0.00    -0.082 N 
HETATM    6  N   UNL     1       6.377  26.854  57.415  1.00  0.00    -0.128 NA
HETATM    7  C   UNL     1       7.330  26.048  56.925  1.00  0.00     0.226 A 
HETATM    8  N   UNL     1       8.530  26.657  56.648  1.00  0.00    -0.035 NA
HETATM    9  C   UNL     1       6.478  29.287  57.963  1.00  0.00     0.203 C 
HETATM   10  C   UNL     1       7.575  30.325  58.187  1.00  0.00     0.070 C 
HETATM   11  H   UNL     1      10.134  28.795  56.827  1.00  0.00     0.184 HD
ENDROOT
BRANCH   7  12
HETATM   12  S   UNL     1       7.122  24.334  56.709  1.00  0.00    -0.083 SA
BRANCH  12  13
HETATM   13  C   UNL     1       8.697  23.872  55.938  1.00  0.00     0.123 C 
BRANCH  13  14
HETATM   14  C   UNL     1       8.516  22.691  55.011  1.00  0.00    -0.027 A 
HETATM   15  C   UNL     1       8.182  22.828  53.653  1.00  0.00     0.041 A 
HETATM   16 CL   UNL     1       7.983  24.375  52.908  1.00  0.00    -0.084 Cl
HETATM   17  C   UNL     1       7.990  21.699  52.849  1.00  0.00     0.024 A 
HETATM   18  C   UNL     1       8.119  20.420  53.389  1.00  0.00     0.002 A 
HETATM   19  C   UNL     1       8.442  20.266  54.734  1.00  0.00     0.001 A 
HETATM   20  C   UNL     1       8.638  21.390  55.538  1.00  0.00     0.009 A 
ENDBRANCH  13  14
ENDBRANCH  12  13
ENDBRANCH   7  12
BRANCH   9  21
HETATM   21  C   UNL     1       5.383  29.808  57.032  1.00  0.00    -0.026 A 
HETATM   22  C   UNL     1       5.538  29.692  55.640  1.00  0.00     0.033 A 
HETATM   23  C   UNL     1       4.535  30.139  54.778  1.00  0.00     0.034 A 
HETATM   24 CL   UNL     1       4.740  29.987  53.076  1.00  0.00    -0.084 Cl
HETATM   25  C   UNL     1       3.366  30.701  55.284  1.00  0.00     0.024 A 
HETATM   26  C   UNL     1       3.194  30.815  56.663  1.00  0.00     0.002 A 
HETATM   27  C   UNL     1       4.193  30.369  57.531  1.00  0.00     0.010 A 
ENDBRANCH   9  21
BRANCH  10  28
HETATM   28  C   UNL     1       7.127  31.485  58.985  1.00  0.00     0.293 C 
HETATM   29  O   UNL     1       6.709  32.513  58.473  1.00  0.00    -0.259 OA
BRANCH  28  30
HETATM   30  O   UNL     1       7.305  31.274  60.310  1.00  0.00    -0.323 OA
HETATM   31  C   UNL     1       6.631  32.217  61.145  1.00  0.00     0.213 C 
ENDBRANCH  28  30
ENDBRANCH  10  28
TORSDOF 6
ENDMDL
MODEL 5
REMARK VINA RESULT:      -8.8      1.891      3.741
REMARK  6 active torsions:
REMARK  status: ('A' for Active; 'I' for Inactive)
REMARK    1  A    between atoms: C_7  and  S_8 
REMARK    2  A    between atoms: S_8  and  C_9 
REMARK    3  A    between atoms: C_9  and  C_10 
REMARK    4  A    between atoms: C_18  and  C_19 
REMARK    5  A    between atoms: C_26  and  C_27 
REMARK    6  A    between atoms: C_27  and  O_28 
ROOT
HETATM    1  C   UNL     1       3.085  30.563  57.150  1.00  0.00     0.070 C 
HETATM    2  C   UNL     1       4.518  30.129  57.333  1.00  0.00     0.037 C 
HETATM    3  N   UNL     1       4.708  28.771  57.582  1.00  0.00    -0.192 N 
HETATM    4  C   UNL     1       5.915  28.177  57.501  1.00  0.00     0.726 A 
HETATM    5  N   UNL     1       7.037  28.948  57.382  1.00  0.00    -0.082 N 
HETATM    6  N   UNL     1       8.138  28.189  57.207  1.00  0.00    -0.128 NA
HETATM    7  C   UNL     1       7.605  26.959  57.261  1.00  0.00     0.226 A 
HETATM    8  N   UNL     1       6.246  26.916  57.457  1.00  0.00    -0.035 NA
HETATM    9  C   UNL     1       7.019  30.415  57.344  1.00  0.00     0.203 C 
HETATM   10  C   UNL     1       5.594  30.946  57.207  1.00  0.00     0.070 C 
HETATM   11  H   UNL     1       3.884  28.174  57.568  1.00  0.00     0.184 HD
ENDROOT
BRANCH   7  12
HETATM   12  S   UNL     1       8.527  25.501  57.031  1.00  0.00    -0.083 SA
BRANCH  12  13
HETATM   13  C   UNL     1       7.214  24.283  56.746  1.00  0.00     0.123 C 
BRANCH  13  14
HETATM   14  C   UNL     1       7.433  23.552  55.441  1.00  0.00    -0.027 A 
HETATM   15  C   UNL     1       7.920  22.236  55.373  1.00  0.00     0.041 A 
HETATM   16 CL   UNL     1       8.280  21.316  56.791  1.00  0.00    -0.084 Cl
HETATM   17  C   UNL     1       8.139  21.620  54.136  1.00  0.00     0.024 A 
HETATM   18  C   UNL     1       7.884  22.310  52.951  1.00  0.00     0.002 A 
HETATM   19  C   UNL     1       7.410  23.617  52.999  1.00  0.00     0.001 A 
HETATM   20  C   UNL     1       7.186  24.233  54.232  1.00  0.00     0.009 A 
ENDBRANCH  13  14
ENDBRANCH  12  13
ENDBRANCH   7  12
BRANCH   9  21
HETATM   21  C   UNL     1       7.722  30.983  58.577  1.00  0.00    -0.026 A 
HETATM   22  C   UNL     1       7.031  31.065  59.798  1.00  0.00     0.033 A 
HETATM   23  C   UNL     1       7.667  31.557  60.939  1.00  0.00     0.034 A 
HETATM   24 CL   UNL     1       6.807  31.647  62.427  1.00  0.00    -0.084 Cl
HETATM   25  C   UNL     1       8.997  31.969  60.885  1.00  0.00     0.024 A 
HETATM   26  C   UNL     1       9.698  31.886  59.683  1.00  0.00     0.002 A 
HETATM   27  C   UNL     1       9.068  31.394  58.538  1.00  0.00     0.010 A 
ENDBRANCH   9  21
BRANCH  10  28
HETATM   28  C   UNL     1       5.537  32.382  56.863  1.00  0.00     0.293 C 
HETATM   29  O   UNL     1       5.639  33.264  57.704  1.00  0.00    -0.259 OA
BRANCH  28  30
HETATM   30  O   UNL     1       5.297  32.567  55.544  1.00  0.00    -0.323 OA
HETATM   31  C   UNL     1       4.303  33.556  55.267  1.00  0.00     0.213 C 
ENDBRANCH  28  30
ENDBRANCH  10  28
TORSDOF 6
ENDMDL
MODEL 6
REMARK VINA RESULT:      -8.7      2.202      4.119
REMARK  6 active torsions:
REMARK  status: ('A' for Active; 'I' for Inactive)
REMARK    1  A    between atoms: C_7  and  S_8 
REMARK    2  A    between atoms: S_8  and  C_9 
REMARK    3  A    between atoms: C_9  and  C_10 
REMARK    4  A    between atoms: C_18  and  C_19 
REMARK    5  A    between atoms: C_26  and  C_27 
REMARK    6  A    between atoms: C_27  and  O_28 
ROOT
HETATM    1  C   UNL     1       3.149  30.163  57.677  1.00  0.00     0.070 C 
HETATM    2  C   UNL     1       4.378  29.550  57.053  1.00  0.00     0.037 C 
HETATM    3  N   UNL     1       4.382  28.159  56.973  1.00  0.00    -0.192 N 
HETATM    4  C   UNL     1       5.260  27.474  56.214  1.00  0.00     0.726 A 
HETATM    5  N   UNL     1       6.325  28.129  55.663  1.00  0.00    -0.082 N 
HETATM    6  N   UNL     1       7.035  27.317  54.853  1.00  0.00    -0.128 NA
HETATM    7  C   UNL     1       6.352  26.171  54.987  1.00  0.00     0.226 A 
HETATM    8  N   UNL     1       5.267  26.228  55.828  1.00  0.00    -0.035 NA
HETATM    9  C   UNL     1       6.591  29.560  55.852  1.00  0.00     0.203 C 
HETATM   10  C   UNL     1       5.411  30.256  56.525  1.00  0.00     0.070 C 
HETATM   11  H   UNL     1       3.546  27.671  57.288  1.00  0.00     0.184 HD
ENDROOT
BRANCH   7  12
HETATM   12  S   UNL     1       6.739  24.713  54.119  1.00  0.00    -0.083 SA
BRANCH  12  13
HETATM   13  C   UNL     1       7.206  23.598  55.471  1.00  0.00     0.123 C 
BRANCH  13  14
HETATM   14  C   UNL     1       7.725  22.285  54.930  1.00  0.00    -0.027 A 
HETATM   15  C   UNL     1       8.248  21.273  55.751  1.00  0.00     0.041 A 
HETATM   16 CL   UNL     1       8.312  21.426  57.472  1.00  0.00    -0.084 Cl
HETATM   17  C   UNL     1       8.750  20.091  55.193  1.00  0.00     0.024 A 
HETATM   18  C   UNL     1       8.745  19.907  53.811  1.00  0.00     0.002 A 
HETATM   19  C   UNL     1       8.237  20.903  52.982  1.00  0.00     0.001 A 
HETATM   20  C   UNL     1       7.733  22.081  53.536  1.00  0.00     0.009 A 
ENDBRANCH  13  14
ENDBRANCH  12  13
ENDBRANCH   7  12
BRANCH   9  21
HETATM   21  C   UNL     1       7.890  29.757  56.635  1.00  0.00    -0.026 A 
HETATM   22  C   UNL     1       7.839  30.012  58.016  1.00  0.00     0.033 A 
HETATM   23  C   UNL     1       9.016  30.168  58.749  1.00  0.00     0.034 A 
HETATM   24 CL   UNL     1       8.936  30.476  60.440  1.00  0.00    -0.084 Cl
HETATM   25  C   UNL     1      10.257  30.067  58.125  1.00  0.00     0.024 A 
HETATM   26  C   UNL     1      10.324  29.807  56.757  1.00  0.00     0.002 A 
HETATM   27  C   UNL     1       9.149  29.649  56.017  1.00  0.00     0.010 A 
ENDBRANCH   9  21
BRANCH  10  28
HETATM   28  C   UNL     1       5.492  31.730  56.468  1.00  0.00     0.293 C 
HETATM   29  O   UNL     1       5.802  32.409  57.437  1.00  0.00    -0.259 OA
BRANCH  28  30
HETATM   30  O   UNL     1       5.123  32.201  55.254  1.00  0.00    -0.323 OA
HETATM   31  C   UNL     1       3.853  32.857  55.247  1.00  0.00     0.213 C 
ENDBRANCH  28  30
ENDBRANCH  10  28
TORSDOF 6
ENDMDL
MODEL 7
REMARK VINA RESULT:      -8.5      3.321      4.450
REMARK  6 active torsions:
REMARK  status: ('A' for Active; 'I' for Inactive)
REMARK    1  A    between atoms: C_7  and  S_8 
REMARK    2  A    between atoms: S_8  and  C_9 
REMARK    3  A    between atoms: C_9  and  C_10 
REMARK    4  A    between atoms: C_18  and  C_19 
REMARK    5  A    between atoms: C_26  and  C_27 
REMARK    6  A    between atoms: C_27  and  O_28 
ROOT
HETATM    1  C   UNL     1       6.935  31.183  58.366  1.00  0.00     0.070 C 
HETATM    2  C   UNL     1       6.774  29.880  57.623  1.00  0.00     0.037 C 
HETATM    3  N   UNL     1       7.862  29.013  57.686  1.00  0.00    -0.192 N 
HETATM    4  C   UNL     1       7.786  27.719  57.316  1.00  0.00     0.726 A 
HETATM    5  N   UNL     1       6.677  27.273  56.655  1.00  0.00    -0.082 N 
HETATM    6  N   UNL     1       6.724  25.939  56.459  1.00  0.00    -0.128 NA
HETATM    7  C   UNL     1       7.914  25.649  57.006  1.00  0.00     0.226 A 
HETATM    8  N   UNL     1       8.599  26.720  57.526  1.00  0.00    -0.035 NA
HETATM    9  C   UNL     1       5.537  28.129  56.303  1.00  0.00     0.203 C 
HETATM   10  C   UNL     1       5.643  29.494  56.978  1.00  0.00     0.070 C 
HETATM   11  H   UNL     1       8.651  29.295  58.263  1.00  0.00     0.184 HD
ENDROOT
BRANCH   7  12
HETATM   12  S   UNL     1       8.546  24.032  57.130  1.00  0.00    -0.083 SA
BRANCH  12  13
HETATM   13  C   UNL     1       7.182  23.056  56.441  1.00  0.00     0.123 C 
BRANCH  13  14
HETATM   14  C   UNL     1       7.653  22.230  55.265  1.00  0.00    -0.027 A 
HETATM   15  C   UNL     1       7.576  22.679  53.936  1.00  0.00     0.041 A 
HETATM   16 CL   UNL     1       6.963  24.243  53.528  1.00  0.00    -0.084 Cl
HETATM   17  C   UNL     1       7.992  21.858  52.882  1.00  0.00     0.024 A 
HETATM   18  C   UNL     1       8.482  20.577  53.137  1.00  0.00     0.002 A 
HETATM   19  C   UNL     1       8.558  20.114  54.447  1.00  0.00     0.001 A 
HETATM   20  C   UNL     1       8.147  20.933  55.501  1.00  0.00     0.009 A 
ENDBRANCH  13  14
ENDBRANCH  12  13
ENDBRANCH   7  12
BRANCH   9  21
HETATM   21  C   UNL     1       5.419  28.253  54.784  1.00  0.00    -0.026 A 
HETATM   22  C   UNL     1       4.161  28.484  54.200  1.00  0.00     0.033 A 
HETATM   23  C   UNL     1       4.041  28.626  52.817  1.00  0.00     0.034 A 
HETATM   24 CL   UNL     1       2.495  28.913  52.117  1.00  0.00    -0.084 Cl
HETATM   25  C   UNL     1       5.164  28.546  51.997  1.00  0.00     0.024 A 
HETATM   26  C   UNL     1       6.419  28.325  52.562  1.00  0.00     0.002 A 
HETATM   27  C   UNL     1       6.547  28.182  53.946  1.00  0.00     0.010 A 
ENDBRANCH   9  21
BRANCH  10  28
HETATM   28  C   UNL     1       4.393  30.279  56.908  1.00  0.00     0.293 C 
HETATM   29  O   UNL     1       3.365  29.929  57.469  1.00  0.00    -0.259 OA
BRANCH  28  30
HETATM   30  O   UNL     1       4.532  31.362  56.108  1.00  0.00    -0.323 OA
HETATM   31  C   UNL     1       3.865  32.531  56.591  1.00  0.00     0.213 C 
ENDBRANCH  28  30
ENDBRANCH  10  28
TORSDOF 6
ENDMDL
MODEL 8
REMARK VINA RESULT:      -8.5      5.721      7.392
REMARK  6 active torsions:
REMARK  status: ('A' for Active; 'I' for Inactive)
REMARK    1  A    between atoms: C_7  and  S_8 
REMARK    2  A    between atoms: S_8  and  C_9 
REMARK    3  A    between atoms: C_9  and  C_10 
REMARK    4  A    between atoms: C_18  and  C_19 
REMARK    5  A    between atoms: C_26  and  C_27 
REMARK    6  A    between atoms: C_27  and  O_28 
ROOT
HETATM    1  C   UNL     1       8.169  23.672  52.859  1.00  0.00     0.070 C 
HETATM    2  C   UNL     1       7.346  24.861  53.288  1.00  0.00     0.037 C 
HETATM    3  N   UNL     1       6.912  25.695  52.260  1.00  0.00    -0.192 N 
HETATM    4  C   UNL     1       5.959  26.631  52.433  1.00  0.00     0.726 A 
HETATM    5  N   UNL     1       5.539  26.937  53.697  1.00  0.00    -0.082 N 
HETATM    6  N   UNL     1       4.512  27.812  53.675  1.00  0.00    -0.128 NA
HETATM    7  C   UNL     1       4.384  28.014  52.356  1.00  0.00     0.226 A 
HETATM    8  N   UNL     1       5.266  27.318  51.566  1.00  0.00    -0.035 NA
HETATM    9  C   UNL     1       6.075  26.308  54.909  1.00  0.00     0.203 C 
HETATM   10  C   UNL     1       6.964  25.116  54.565  1.00  0.00     0.070 C 
HETATM   11  H   UNL     1       7.134  25.416  51.307  1.00  0.00     0.184 HD
ENDROOT
BRANCH   7  12
HETATM   12  S   UNL     1       3.151  29.022  51.653  1.00  0.00    -0.083 SA
BRANCH  12  13
HETATM   13  C   UNL     1       3.794  29.264  49.975  1.00  0.00     0.123 C 
BRANCH  13  14
HETATM   14  C   UNL     1       3.074  28.372  48.989  1.00  0.00    -0.027 A 
HETATM   15  C   UNL     1       3.732  27.684  47.957  1.00  0.00     0.041 A 
HETATM   16 CL   UNL     1       5.446  27.768  47.743  1.00  0.00    -0.084 Cl
HETATM   17  C   UNL     1       3.010  26.901  47.049  1.00  0.00     0.024 A 
HETATM   18  C   UNL     1       1.623  26.801  47.153  1.00  0.00     0.002 A 
HETATM   19  C   UNL     1       0.954  27.482  48.165  1.00  0.00     0.001 A 
HETATM   20  C   UNL     1       1.672  28.261  49.074  1.00  0.00     0.009 A 
ENDBRANCH  13  14
ENDBRANCH  12  13
ENDBRANCH   7  12
BRANCH   9  21
HETATM   21  C   UNL     1       6.814  27.342  55.759  1.00  0.00    -0.026 A 
HETATM   22  C   UNL     1       7.977  27.952  55.260  1.00  0.00     0.033 A 
HETATM   23  C   UNL     1       8.647  28.917  56.013  1.00  0.00     0.034 A 
HETATM   24 CL   UNL     1      10.069  29.657  55.385  1.00  0.00    -0.084 Cl
HETATM   25  C   UNL     1       8.171  29.294  57.266  1.00  0.00     0.024 A 
HETATM   26  C   UNL     1       7.014  28.704  57.771  1.00  0.00     0.002 A 
HETATM   27  C   UNL     1       6.337  27.738  57.023  1.00  0.00     0.010 A 
ENDBRANCH   9  21
BRANCH  10  28
HETATM   28  C   UNL     1       7.283  24.268  55.734  1.00  0.00     0.293 C 
HETATM   29  O   UNL     1       6.445  23.573  56.289  1.00  0.00    -0.259 OA
BRANCH  28  30
HETATM   30  O   UNL     1       8.570  24.422  56.122  1.00  0.00    -0.323 OA
HETATM   31  C   UNL     1       8.728  24.708  57.513  1.00  0.00     0.213 C 
ENDBRANCH  28  30
ENDBRANCH  10  28
TORSDOF 6
ENDMDL
MODEL 9
REMARK VINA RESULT:      -8.4      2.929      3.840
REMARK  6 active torsions:
REMARK  status: ('A' for Active; 'I' for Inactive)
REMARK    1  A    between atoms: C_7  and  S_8 
REMARK    2  A    between atoms: S_8  and  C_9 
REMARK    3  A    between atoms: C_9  and  C_10 
REMARK    4  A    between atoms: C_18  and  C_19 
REMARK    5  A    between atoms: C_26  and  C_27 
REMARK    6  A    between atoms: C_27  and  O_28 
ROOT
HETATM    1  C   UNL     1       7.727  31.693  58.937  1.00  0.00     0.070 C 
HETATM    2  C   UNL     1       7.148  30.510  58.202  1.00  0.00     0.037 C 
HETATM    3  N   UNL     1       8.035  29.466  57.948  1.00  0.00    -0.192 N 
HETATM    4  C   UNL     1       7.631  28.244  57.552  1.00  0.00     0.726 A 
HETATM    5  N   UNL     1       6.331  28.056  57.174  1.00  0.00    -0.082 N 
HETATM    6  N   UNL     1       6.078  26.757  56.912  1.00  0.00    -0.128 NA
HETATM    7  C   UNL     1       7.287  26.220  57.126  1.00  0.00     0.226 A 
HETATM    8  N   UNL     1       8.267  27.106  57.503  1.00  0.00    -0.035 NA
HETATM    9  C   UNL     1       5.323  29.123  57.161  1.00  0.00     0.203 C 
HETATM   10  C   UNL     1       5.844  30.383  57.848  1.00  0.00     0.070 C 
HETATM   11  H   UNL     1       8.979  29.556  58.318  1.00  0.00     0.184 HD
ENDROOT
BRANCH   7  12
HETATM   12  S   UNL     1       7.614  24.514  57.014  1.00  0.00    -0.083 SA
BRANCH  12  13
HETATM   13  C   UNL     1       6.803  24.091  55.448  1.00  0.00     0.123 C 
BRANCH  13  14
HETATM   14  C   UNL     1       7.420  22.851  54.840  1.00  0.00    -0.027 A 
HETATM   15  C   UNL     1       7.803  22.771  53.492  1.00  0.00     0.041 A 
HETATM   16 CL   UNL     1       7.636  24.106  52.407  1.00  0.00    -0.084 Cl
HETATM   17  C   UNL     1       8.336  21.585  52.973  1.00  0.00     0.024 A 
HETATM   18  C   UNL     1       8.484  20.463  53.787  1.00  0.00     0.002 A 
HETATM   19  C   UNL     1       8.101  20.523  55.124  1.00  0.00     0.001 A 
HETATM   20  C   UNL     1       7.574  21.706  55.646  1.00  0.00     0.009 A 
ENDBRANCH  13  14
ENDBRANCH  12  13
ENDBRANCH   7  12
BRANCH   9  21
HETATM   21  C   UNL     1       4.867  29.402  55.729  1.00  0.00    -0.026 A 
HETATM   22  C   UNL     1       5.540  28.798  54.653  1.00  0.00     0.033 A 
HETATM   23  C   UNL     1       5.119  29.022  53.342  1.00  0.00     0.034 A 
HETATM   24 CL   UNL     1       5.953  28.273  52.036  1.00  0.00    -0.084 Cl
HETATM   25  C   UNL     1       4.024  29.842  53.080  1.00  0.00     0.024 A 
HETATM   26  C   UNL     1       3.341  30.442  54.137  1.00  0.00     0.002 A 
HETATM   27  C   UNL     1       3.756  30.221  55.452  1.00  0.00     0.010 A 
ENDBRANCH   9  21
BRANCH  10  28
HETATM   28  C   UNL     1       4.785  31.374  58.132  1.00  0.00     0.293 C 
HETATM   29  O   UNL     1       4.850  32.533  57.750  1.00  0.00    -0.259 OA
BRANCH  28  30
HETATM   30  O   UNL     1       3.806  30.846  58.904  1.00  0.00    -0.323 OA
HETATM   31  C   UNL     1       3.312  31.737  59.906  1.00  0.00     0.213 C 
ENDBRANCH  28  30
ENDBRANCH  10  28
TORSDOF 6
ENDMDL
MODEL 10
REMARK VINA RESULT:      -8.4      2.357      3.169
REMARK  6 active torsions:
REMARK  status: ('A' for Active; 'I' for Inactive)
REMARK    1  A    between atoms: C_7  and  S_8 
REMARK    2  A    between atoms: S_8  and  C_9 
REMARK    3  A    between atoms: C_9  and  C_10 
REMARK    4  A    between atoms: C_18  and  C_19 
REMARK    5  A    between atoms: C_26  and  C_27 
REMARK    6  A    between atoms: C_27  and  O_28 
ROOT
HETATM    1  C   UNL     1       8.331  31.563  58.817  1.00  0.00     0.070 C 
HETATM    2  C   UNL     1       7.385  30.590  58.158  1.00  0.00     0.037 C 
HETATM    3  N   UNL     1       7.967  29.423  57.667  1.00  0.00    -0.192 N 
HETATM    4  C   UNL     1       7.246  28.346  57.301  1.00  0.00     0.726 A 
HETATM    5  N   UNL     1       5.887  28.451  57.197  1.00  0.00    -0.082 N 
HETATM    6  N   UNL     1       5.321  27.257  56.925  1.00  0.00    -0.128 NA
HETATM    7  C   UNL     1       6.409  26.477  56.850  1.00  0.00     0.226 A 
HETATM    8  N   UNL     1       7.607  27.116  57.058  1.00  0.00    -0.035 NA
HETATM    9  C   UNL     1       5.142  29.689  57.455  1.00  0.00     0.203 C 
HETATM   10  C   UNL     1       6.040  30.753  58.082  1.00  0.00     0.070 C 
HETATM   11  H   UNL     1       8.963  29.292  57.834  1.00  0.00     0.184 HD
ENDROOT
BRANCH   7  12
HETATM   12  S   UNL     1       6.343  24.759  56.580  1.00  0.00    -0.083 SA
BRANCH  12  13
HETATM   13  C   UNL     1       7.942  24.456  55.779  1.00  0.00     0.123 C 
BRANCH  13  14
HETATM   14  C   UNL     1       7.943  23.120  55.069  1.00  0.00    -0.027 A 
HETATM   15  C   UNL     1       7.965  22.998  53.670  1.00  0.00     0.041 A 
HETATM   16 CL   UNL     1       8.029  24.376  52.628  1.00  0.00    -0.084 Cl
HETATM   17  C   UNL     1       7.927  21.737  53.065  1.00  0.00     0.024 A 
HETATM   18  C   UNL     1       7.859  20.583  53.845  1.00  0.00     0.002 A 
HETATM   19  C   UNL     1       7.829  20.686  55.232  1.00  0.00     0.001 A 
HETATM   20  C   UNL     1       7.870  21.943  55.839  1.00  0.00     0.009 A 
ENDBRANCH  13  14
ENDBRANCH  12  13
ENDBRANCH   7  12
BRANCH   9  21
HETATM   21  C   UNL     1       4.483  30.187  56.168  1.00  0.00    -0.026 A 
HETATM   22  C   UNL     1       3.347  31.012  56.240  1.00  0.00     0.033 A 
HETATM   23  C   UNL     1       2.751  31.496  55.075  1.00  0.00     0.034 A 
HETATM   24 CL   UNL     1       1.363  32.508  55.182  1.00  0.00    -0.084 Cl
HETATM   25  C   UNL     1       3.274  31.174  53.826  1.00  0.00     0.024 A 
HETATM   26  C   UNL     1       4.405  30.363  53.738  1.00  0.00     0.002 A 
HETATM   27  C   UNL     1       5.008  29.876  54.900  1.00  0.00     0.010 A 
ENDBRANCH   9  21
BRANCH  10  28
HETATM   28  C   UNL     1       5.288  31.898  58.636  1.00  0.00     0.293 C 
HETATM   29  O   UNL     1       5.523  33.055  58.316  1.00  0.00    -0.259 OA
BRANCH  28  30
HETATM   30  O   UNL     1       4.385  31.498  59.561  1.00  0.00    -0.323 OA
HETATM   31  C   UNL     1       3.430  32.502  59.913  1.00  0.00     0.213 C 
ENDBRANCH  28  30
ENDBRANCH  10  28
TORSDOF 6
ENDMDL
