MODEL 1
REMARK VINA RESULT:      -9.3      0.000      0.000
REMARK  6 active torsions:
REMARK  status: ('A' for Active; 'I' for Inactive)
REMARK    1  A    between atoms: O_2  and  C_3 
REMARK    2  A    between atoms: C_6  and  C_7 
REMARK    3  A    between atoms: C_12  and  C_13 
REMARK       I    between atoms: C_13  and  N_14 
REMARK    4  A    between atoms: N_14  and  C_15 
REMARK    5  A    between atoms: C_17  and  O_18 
REMARK    6  A    between atoms: C_24  and  C_25 
ROOT
HETATM    1  C   UNL     1       5.168  26.376  54.558  1.00  0.00     0.118 C 
HETATM    2  N   UNL     1       5.014  26.906  55.908  1.00  0.00    -0.366 N 
HETATM    3  C   UNL     1       5.511  28.098  56.295  1.00  0.00     0.123 A 
HETATM    4  N   UNL     1       6.301  28.848  55.472  1.00  0.00    -0.240 N 
HETATM    5  N   UNL     1       6.648  30.045  55.982  1.00  0.00    -0.165 NA
HETATM    6  C   UNL     1       6.114  30.020  57.227  1.00  0.00     0.148 A 
HETATM    7  C   UNL     1       5.396  28.813  57.457  1.00  0.00     0.089 A 
HETATM    8  C   UNL     1       6.687  28.439  54.136  1.00  0.00     0.221 C 
HETATM    9  C   UNL     1       5.647  27.458  53.571  1.00  0.00     0.066 C 
HETATM   10  H   UNL     1       4.463  26.330  56.544  1.00  0.00     0.161 HD
ENDROOT
BRANCH   6  11
HETATM   11  C   UNL     1       6.276  31.140  58.173  1.00  0.00     0.276 C 
HETATM   12  N   UNL     1       6.823  30.724  59.372  1.00  0.00    -0.322 N 
HETATM   13  H   UNL     1       7.016  29.726  59.402  1.00  0.00     0.169 HD
HETATM   14  O   UNL     1       5.948  32.282  57.874  1.00  0.00    -0.266 OA
BRANCH  12  15
HETATM   15  C   UNL     1       7.129  31.494  60.508  1.00  0.00     0.037 A 
HETATM   16  C   UNL     1       6.345  32.560  60.957  1.00  0.00     0.066 A 
HETATM   17  C   UNL     1       6.728  33.269  62.096  1.00  0.00     0.067 A 
HETATM   18  C   UNL     1       7.880  32.937  62.796  1.00  0.00     0.036 A 
HETATM   19  C   UNL     1       8.666  31.875  62.354  1.00  0.00     0.005 A 
HETATM   20  C   UNL     1       8.291  31.158  61.214  1.00  0.00     0.029 A 
BRANCH  17  21
HETATM   21  O   UNL     1       5.983  34.314  62.561  1.00  0.00    -0.361 OA
HETATM   22  H   UNL     1       5.207  33.955  63.023  1.00  0.00     0.217 HD
ENDBRANCH  17  21
ENDBRANCH  12  15
ENDBRANCH   6  11
BRANCH   8  23
HETATM   23  C   UNL     1       8.103  27.913  54.147  1.00  0.00     0.409 C 
HETATM   24  F   UNL     1       9.045  28.867  54.044  1.00  0.00    -0.169 F 
HETATM   25  F   UNL     1       8.339  27.234  55.300  1.00  0.00    -0.169 F 
HETATM   26  F   UNL     1       8.312  27.031  53.141  1.00  0.00    -0.169 F 
ENDBRANCH   8  23
BRANCH   1  27
HETATM   27  C   UNL     1       5.973  25.089  54.524  1.00  0.00    -0.035 A 
HETATM   28  C   UNL     1       6.451  24.547  55.730  1.00  0.00     0.012 A 
HETATM   29  C   UNL     1       7.214  23.372  55.750  1.00  0.00     0.037 A 
HETATM   30  C   UNL     1       7.513  22.712  54.562  1.00  0.00     0.068 A 
HETATM   31  C   UNL     1       7.050  23.242  53.358  1.00  0.00     0.037 A 
HETATM   32  C   UNL     1       6.293  24.418  53.337  1.00  0.00     0.012 A 
BRANCH  30  33
HETATM   33  O   UNL     1       8.241  21.562  54.440  1.00  0.00    -0.356 OA
HETATM   34  C   UNL     1       7.919  20.708  53.350  1.00  0.00     0.210 C 
ENDBRANCH  30  33
ENDBRANCH   1  27
TORSDOF 6
ENDMDL
MODEL 2
REMARK VINA RESULT:      -9.3      5.635      9.109
REMARK  6 active torsions:
REMARK  status: ('A' for Active; 'I' for Inactive)
REMARK    1  A    between atoms: O_2  and  C_3 
REMARK    2  A    between atoms: C_6  and  C_7 
REMARK    3  A    between atoms: C_12  and  C_13 
REMARK       I    between atoms: C_13  and  N_14 
REMARK    4  A    between atoms: N_14  and  C_15 
REMARK    5  A    between atoms: C_17  and  O_18 
REMARK    6  A    between atoms: C_24  and  C_25 
ROOT
HETATM    1  C   UNL     1       7.989  25.518  52.763  1.00  0.00     0.118 C 
HETATM    2  N   UNL     1       7.082  25.524  51.621  1.00  0.00    -0.366 N 
HETATM    3  C   UNL     1       6.036  26.368  51.512  1.00  0.00     0.123 A 
HETATM    4  N   UNL     1       5.682  27.207  52.529  1.00  0.00    -0.240 N 
HETATM    5  N   UNL     1       4.666  28.038  52.229  1.00  0.00    -0.165 NA
HETATM    6  C   UNL     1       4.305  27.652  50.983  1.00  0.00     0.148 A 
HETATM    7  C   UNL     1       5.141  26.605  50.504  1.00  0.00     0.089 A 
HETATM    8  C   UNL     1       6.372  27.262  53.803  1.00  0.00     0.221 C 
HETATM    9  C   UNL     1       7.821  26.779  53.633  1.00  0.00     0.066 C 
HETATM   10  H   UNL     1       7.312  24.868  50.876  1.00  0.00     0.161 HD
ENDROOT
BRANCH   6  11
HETATM   11  C   UNL     1       3.187  28.284  50.258  1.00  0.00     0.276 C 
HETATM   12  N   UNL     1       3.050  27.777  48.980  1.00  0.00    -0.322 N 
HETATM   13  H   UNL     1       3.739  27.064  48.754  1.00  0.00     0.169 HD
HETATM   14  O   UNL     1       2.495  29.150  50.781  1.00  0.00    -0.266 OA
BRANCH  12  15
HETATM   15  C   UNL     1       2.106  28.124  47.998  1.00  0.00     0.037 A 
HETATM   16  C   UNL     1       2.182  29.285  47.224  1.00  0.00     0.066 A 
HETATM   17  C   UNL     1       1.197  29.547  46.271  1.00  0.00     0.067 A 
HETATM   18  C   UNL     1       0.135  28.674  46.076  1.00  0.00     0.036 A 
HETATM   19  C   UNL     1       0.054  27.515  46.843  1.00  0.00     0.005 A 
HETATM   20  C   UNL     1       1.036  27.242  47.800  1.00  0.00     0.029 A 
BRANCH  17  21
HETATM   21  O   UNL     1       1.243  30.672  45.499  1.00  0.00    -0.361 OA
HETATM   22  H   UNL     1       1.150  30.407  44.568  1.00  0.00     0.217 HD
ENDBRANCH  17  21
ENDBRANCH  12  15
ENDBRANCH   6  11
BRANCH   8  23
HETATM   23  C   UNL     1       5.581  26.513  54.850  1.00  0.00     0.409 C 
HETATM   24  F   UNL     1       5.044  25.360  54.414  1.00  0.00    -0.169 F 
HETATM   25  F   UNL     1       6.376  26.214  55.909  1.00  0.00    -0.169 F 
HETATM   26  F   UNL     1       4.568  27.267  55.340  1.00  0.00    -0.169 F 
ENDBRANCH   8  23
BRANCH   1  27
HETATM   27  C   UNL     1       7.951  24.210  53.532  1.00  0.00    -0.035 A 
HETATM   28  C   UNL     1       7.652  23.020  52.846  1.00  0.00     0.012 A 
HETATM   29  C   UNL     1       7.586  21.790  53.514  1.00  0.00     0.037 A 
HETATM   30  C   UNL     1       7.820  21.724  54.885  1.00  0.00     0.068 A 
HETATM   31  C   UNL     1       8.112  22.899  55.578  1.00  0.00     0.037 A 
HETATM   32  C   UNL     1       8.173  24.128  54.913  1.00  0.00     0.012 A 
BRANCH  30  33
HETATM   33  O   UNL     1       7.791  20.596  55.655  1.00  0.00    -0.356 OA
HETATM   34  C   UNL     1       8.940  20.326  56.448  1.00  0.00     0.210 C 
ENDBRANCH  30  33
ENDBRANCH   1  27
TORSDOF 6
ENDMDL
MODEL 3
REMARK VINA RESULT:      -9.2      1.975      2.187
REMARK  6 active torsions:
REMARK  status: ('A' for Active; 'I' for Inactive)
REMARK    1  A    between atoms: O_2  and  C_3 
REMARK    2  A    between atoms: C_6  and  C_7 
REMARK    3  A    between atoms: C_12  and  C_13 
REMARK       I    between atoms: C_13  and  N_14 
REMARK    4  A    between atoms: N_14  and  C_15 
REMARK    5  A    between atoms: C_17  and  O_18 
REMARK    6  A    between atoms: C_24  and  C_25 
ROOT
HETATM    1  C   UNL     1       5.169  26.076  54.288  1.00  0.00     0.118 C 
HETATM    2  N   UNL     1       4.896  26.547  55.640  1.00  0.00    -0.366 N 
HETATM    3  C   UNL     1       5.287  27.755  56.095  1.00  0.00     0.123 A 
HETATM    4  N   UNL     1       6.076  28.582  55.349  1.00  0.00    -0.240 N 
HETATM    5  N   UNL     1       6.310  29.780  55.916  1.00  0.00    -0.165 NA
HETATM    6  C   UNL     1       5.701  29.678  57.122  1.00  0.00     0.148 A 
HETATM    7  C   UNL     1       5.052  28.420  57.268  1.00  0.00     0.089 A 
HETATM    8  C   UNL     1       6.571  28.246  54.029  1.00  0.00     0.221 C 
HETATM    9  C   UNL     1       5.637  27.220  53.367  1.00  0.00     0.066 C 
HETATM   10  H   UNL     1       4.345  25.916  56.221  1.00  0.00     0.161 HD
ENDROOT
BRANCH   6  11
HETATM   11  C   UNL     1       5.730  30.772  58.110  1.00  0.00     0.276 C 
HETATM   12  N   UNL     1       4.459  31.220  58.419  1.00  0.00    -0.322 N 
HETATM   13  H   UNL     1       3.726  30.727  57.914  1.00  0.00     0.169 HD
HETATM   14  O   UNL     1       6.786  31.192  58.569  1.00  0.00    -0.266 OA
BRANCH  12  15
HETATM   15  C   UNL     1       4.083  32.237  59.313  1.00  0.00     0.037 A 
HETATM   16  C   UNL     1       3.608  31.999  60.605  1.00  0.00     0.066 A 
HETATM   17  C   UNL     1       3.258  33.074  61.423  1.00  0.00     0.067 A 
HETATM   18  C   UNL     1       3.370  34.384  60.976  1.00  0.00     0.036 A 
HETATM   19  C   UNL     1       3.843  34.628  59.689  1.00  0.00     0.005 A 
HETATM   20  C   UNL     1       4.198  33.559  58.861  1.00  0.00     0.029 A 
BRANCH  17  21
HETATM   21  O   UNL     1       2.791  32.875  62.690  1.00  0.00    -0.361 OA
HETATM   22  H   UNL     1       2.701  33.742  63.122  1.00  0.00     0.217 HD
ENDBRANCH  17  21
ENDBRANCH  12  15
ENDBRANCH   6  11
BRANCH   8  23
HETATM   23  C   UNL     1       8.016  27.812  54.116  1.00  0.00     0.409 C 
HETATM   24  F   UNL     1       8.899  28.825  54.073  1.00  0.00    -0.169 F 
HETATM   25  F   UNL     1       8.231  27.137  55.275  1.00  0.00    -0.169 F 
HETATM   26  F   UNL     1       8.337  26.955  53.117  1.00  0.00    -0.169 F 
ENDBRANCH   8  23
BRANCH   1  27
HETATM   27  C   UNL     1       6.058  24.845  54.267  1.00  0.00    -0.035 A 
HETATM   28  C   UNL     1       6.526  24.316  55.483  1.00  0.00     0.012 A 
HETATM   29  C   UNL     1       7.363  23.194  55.516  1.00  0.00     0.037 A 
HETATM   30  C   UNL     1       7.749  22.574  54.331  1.00  0.00     0.068 A 
HETATM   31  C   UNL     1       7.298  23.092  53.118  1.00  0.00     0.037 A 
HETATM   32  C   UNL     1       6.466  24.216  53.084  1.00  0.00     0.012 A 
BRANCH  30  33
HETATM   33  O   UNL     1       8.556  21.476  54.221  1.00  0.00    -0.356 OA
HETATM   34  C   UNL     1       8.362  20.645  53.084  1.00  0.00     0.210 C 
ENDBRANCH  30  33
ENDBRANCH   1  27
TORSDOF 6
ENDMDL
MODEL 4
REMARK VINA RESULT:      -8.9      5.394      9.737
REMARK  6 active torsions:
REMARK  status: ('A' for Active; 'I' for Inactive)
REMARK    1  A    between atoms: O_2  and  C_3 
REMARK    2  A    between atoms: C_6  and  C_7 
REMARK    3  A    between atoms: C_12  and  C_13 
REMARK       I    between atoms: C_13  and  N_14 
REMARK    4  A    between atoms: N_14  and  C_15 
REMARK    5  A    between atoms: C_17  and  O_18 
REMARK    6  A    between atoms: C_24  and  C_25 
ROOT
HETATM    1  C   UNL     1       5.323  26.807  55.137  1.00  0.00     0.118 C 
HETATM    2  N   UNL     1       4.676  27.687  54.171  1.00  0.00    -0.366 N 
HETATM    3  C   UNL     1       4.592  27.404  52.855  1.00  0.00     0.123 A 
HETATM    4  N   UNL     1       5.214  26.317  52.313  1.00  0.00    -0.240 N 
HETATM    5  N   UNL     1       4.964  26.136  51.002  1.00  0.00    -0.165 NA
HETATM    6  C   UNL     1       4.206  27.210  50.678  1.00  0.00     0.148 A 
HETATM    7  C   UNL     1       3.955  28.027  51.815  1.00  0.00     0.089 A 
HETATM    8  C   UNL     1       6.021  25.388  53.079  1.00  0.00     0.221 C 
HETATM    9  C   UNL     1       5.581  25.405  54.551  1.00  0.00     0.066 C 
HETATM   10  H   UNL     1       4.247  28.525  54.561  1.00  0.00     0.161 HD
ENDROOT
BRANCH   6  11
HETATM   11  C   UNL     1       3.719  27.441  49.305  1.00  0.00     0.276 C 
HETATM   12  N   UNL     1       2.399  27.849  49.290  1.00  0.00    -0.322 N 
HETATM   13  H   UNL     1       1.988  27.916  50.218  1.00  0.00     0.169 HD
HETATM   14  O   UNL     1       4.446  27.275  48.333  1.00  0.00    -0.266 OA
BRANCH  12  15
HETATM   15  C   UNL     1       1.594  28.165  48.182  1.00  0.00     0.037 A 
HETATM   16  C   UNL     1       1.201  27.235  47.216  1.00  0.00     0.066 A 
HETATM   17  C   UNL     1       0.401  27.642  46.148  1.00  0.00     0.067 A 
HETATM   18  C   UNL     1      -0.015  28.961  46.024  1.00  0.00     0.036 A 
HETATM   19  C   UNL     1       0.372  29.893  46.983  1.00  0.00     0.005 A 
HETATM   20  C   UNL     1       1.173  29.496  48.057  1.00  0.00     0.029 A 
BRANCH  17  21
HETATM   21  O   UNL     1      -0.000  26.757  45.189  1.00  0.00    -0.361 OA
HETATM   22  H   UNL     1       0.653  26.771  44.469  1.00  0.00     0.217 HD
ENDBRANCH  17  21
ENDBRANCH  12  15
ENDBRANCH   6  11
BRANCH   8  23
HETATM   23  C   UNL     1       7.488  25.678  52.860  1.00  0.00     0.409 C 
HETATM   24  F   UNL     1       8.299  25.149  53.793  1.00  0.00    -0.169 F 
HETATM   25  F   UNL     1       7.885  25.191  51.656  1.00  0.00    -0.169 F 
HETATM   26  F   UNL     1       7.729  27.010  52.826  1.00  0.00    -0.169 F 
ENDBRANCH   8  23
BRANCH   1  27
HETATM   27  C   UNL     1       6.531  27.449  55.794  1.00  0.00    -0.035 A 
HETATM   28  C   UNL     1       7.342  26.676  56.643  1.00  0.00     0.012 A 
HETATM   29  C   UNL     1       8.457  27.227  57.288  1.00  0.00     0.037 A 
HETATM   30  C   UNL     1       8.786  28.566  57.095  1.00  0.00     0.068 A 
HETATM   31  C   UNL     1       7.986  29.346  56.261  1.00  0.00     0.037 A 
HETATM   32  C   UNL     1       6.870  28.798  55.621  1.00  0.00     0.012 A 
BRANCH  30  33
HETATM   33  O   UNL     1       9.843  29.226  57.658  1.00  0.00    -0.356 OA
HETATM   34  C   UNL     1      10.934  29.542  56.803  1.00  0.00     0.210 C 
ENDBRANCH  30  33
ENDBRANCH   1  27
TORSDOF 6
ENDMDL
MODEL 5
REMARK VINA RESULT:      -8.8      7.061     10.222
REMARK  6 active torsions:
REMARK  status: ('A' for Active; 'I' for Inactive)
REMARK    1  A    between atoms: O_2  and  C_3 
REMARK    2  A    between atoms: C_6  and  C_7 
REMARK    3  A    between atoms: C_12  and  C_13 
REMARK       I    between atoms: C_13  and  N_14 
REMARK    4  A    between atoms: N_14  and  C_15 
REMARK    5  A    between atoms: C_17  and  O_18 
REMARK    6  A    between atoms: C_24  and  C_25 
ROOT
HETATM    1  C   UNL     1       4.448  29.257  48.506  1.00  0.00     0.118 C 
HETATM    2  N   UNL     1       4.591  29.028  49.939  1.00  0.00    -0.366 N 
HETATM    3  C   UNL     1       4.848  27.817  50.473  1.00  0.00     0.123 A 
HETATM    4  N   UNL     1       4.877  26.688  49.707  1.00  0.00    -0.240 N 
HETATM    5  N   UNL     1       5.226  25.574  50.380  1.00  0.00    -0.165 NA
HETATM    6  C   UNL     1       5.347  26.008  51.658  1.00  0.00     0.148 A 
HETATM    7  C   UNL     1       5.115  27.409  51.752  1.00  0.00     0.089 A 
HETATM    8  C   UNL     1       4.627  26.677  48.280  1.00  0.00     0.221 C 
HETATM    9  C   UNL     1       4.952  28.056  47.682  1.00  0.00     0.066 C 
HETATM   10  H   UNL     1       4.526  29.861  50.524  1.00  0.00     0.161 HD
ENDROOT
BRANCH   6  11
HETATM   11  C   UNL     1       5.694  25.098  52.765  1.00  0.00     0.276 C 
HETATM   12  N   UNL     1       6.875  24.423  52.525  1.00  0.00    -0.322 N 
HETATM   13  H   UNL     1       7.300  24.660  51.633  1.00  0.00     0.169 HD
HETATM   14  O   UNL     1       4.980  24.997  53.757  1.00  0.00    -0.266 OA
BRANCH  12  15
HETATM   15  C   UNL     1       7.526  23.482  53.342  1.00  0.00     0.037 A 
HETATM   16  C   UNL     1       7.729  22.148  52.981  1.00  0.00     0.066 A 
HETATM   17  C   UNL     1       8.386  21.284  53.858  1.00  0.00     0.067 A 
HETATM   18  C   UNL     1       8.844  21.726  55.092  1.00  0.00     0.036 A 
HETATM   19  C   UNL     1       8.646  23.055  55.459  1.00  0.00     0.005 A 
HETATM   20  C   UNL     1       7.990  23.928  54.587  1.00  0.00     0.029 A 
BRANCH  17  21
HETATM   21  O   UNL     1       8.600  19.976  53.534  1.00  0.00    -0.361 OA
HETATM   22  H   UNL     1       8.272  19.827  52.630  1.00  0.00     0.217 HD
ENDBRANCH  17  21
ENDBRANCH  12  15
ENDBRANCH   6  11
BRANCH   8  23
HETATM   23  C   UNL     1       3.222  26.192  48.007  1.00  0.00     0.409 C 
HETATM   24  F   UNL     1       2.281  26.771  48.773  1.00  0.00    -0.169 F 
HETATM   25  F   UNL     1       2.891  26.428  46.711  1.00  0.00    -0.169 F 
HETATM   26  F   UNL     1       3.117  24.853  48.184  1.00  0.00    -0.169 F 
ENDBRANCH   8  23
BRANCH   1  27
HETATM   27  C   UNL     1       3.060  29.744  48.129  1.00  0.00    -0.035 A 
HETATM   28  C   UNL     1       2.175  30.145  49.144  1.00  0.00     0.012 A 
HETATM   29  C   UNL     1       0.877  30.584  48.849  1.00  0.00     0.037 A 
HETATM   30  C   UNL     1       0.439  30.634  47.529  1.00  0.00     0.068 A 
HETATM   31  C   UNL     1       1.305  30.232  46.512  1.00  0.00     0.037 A 
HETATM   32  C   UNL     1       2.598  29.789  46.807  1.00  0.00     0.012 A 
BRANCH  30  33
HETATM   33  O   UNL     1      -0.794  31.042  47.103  1.00  0.00    -0.356 OA
HETATM   34  C   UNL     1      -1.493  30.172  46.222  1.00  0.00     0.210 C 
ENDBRANCH  30  33
ENDBRANCH   1  27
TORSDOF 6
ENDMDL
MODEL 6
REMARK VINA RESULT:      -8.6      4.433     10.979
REMARK  6 active torsions:
REMARK  status: ('A' for Active; 'I' for Inactive)
REMARK    1  A    between atoms: O_2  and  C_3 
REMARK    2  A    between atoms: C_6  and  C_7 
REMARK    3  A    between atoms: C_12  and  C_13 
REMARK       I    between atoms: C_13  and  N_14 
REMARK    4  A    between atoms: N_14  and  C_15 
REMARK    5  A    between atoms: C_17  and  O_18 
REMARK    6  A    between atoms: C_24  and  C_25 
ROOT
HETATM    1  C   UNL     1       6.042  34.845  62.850  1.00  0.00     0.118 C 
HETATM    2  N   UNL     1       7.184  34.035  62.443  1.00  0.00    -0.366 N 
HETATM    3  C   UNL     1       7.120  33.104  61.469  1.00  0.00     0.123 A 
HETATM    4  N   UNL     1       5.939  32.772  60.870  1.00  0.00    -0.240 N 
HETATM    5  N   UNL     1       6.062  31.885  59.865  1.00  0.00    -0.165 NA
HETATM    6  C   UNL     1       7.381  31.578  59.879  1.00  0.00     0.148 A 
HETATM    7  C   UNL     1       8.074  32.323  60.874  1.00  0.00     0.089 A 
HETATM    8  C   UNL     1       4.664  33.363  61.224  1.00  0.00     0.221 C 
HETATM    9  C   UNL     1       4.886  34.756  61.835  1.00  0.00     0.066 C 
HETATM   10  H   UNL     1       8.061  34.245  62.917  1.00  0.00     0.161 HD
ENDROOT
BRANCH   6  11
HETATM   11  C   UNL     1       7.969  30.599  58.946  1.00  0.00     0.276 C 
HETATM   12  N   UNL     1       7.002  29.965  58.189  1.00  0.00    -0.322 N 
HETATM   13  H   UNL     1       6.057  30.273  58.404  1.00  0.00     0.169 HD
HETATM   14  O   UNL     1       9.180  30.415  58.892  1.00  0.00    -0.266 OA
BRANCH  12  15
HETATM   15  C   UNL     1       7.172  28.981  57.199  1.00  0.00     0.037 A 
HETATM   16  C   UNL     1       7.288  29.264  55.836  1.00  0.00     0.066 A 
HETATM   17  C   UNL     1       7.453  28.220  54.924  1.00  0.00     0.067 A 
HETATM   18  C   UNL     1       7.504  26.898  55.347  1.00  0.00     0.036 A 
HETATM   19  C   UNL     1       7.389  26.610  56.704  1.00  0.00     0.005 A 
HETATM   20  C   UNL     1       7.224  27.648  57.626  1.00  0.00     0.029 A 
BRANCH  17  21
HETATM   21  O   UNL     1       7.571  28.463  53.586  1.00  0.00    -0.361 OA
HETATM   22  H   UNL     1       7.507  29.423  53.443  1.00  0.00     0.217 HD
ENDBRANCH  17  21
ENDBRANCH  12  15
ENDBRANCH   6  11
BRANCH   8  23
HETATM   23  C   UNL     1       3.881  32.413  62.100  1.00  0.00     0.409 C 
HETATM   24  F   UNL     1       2.873  32.991  62.776  1.00  0.00    -0.169 F 
HETATM   25  F   UNL     1       3.345  31.419  61.346  1.00  0.00    -0.169 F 
HETATM   26  F   UNL     1       4.680  31.806  63.009  1.00  0.00    -0.169 F 
ENDBRANCH   8  23
BRANCH   1  27
HETATM   27  C   UNL     1       5.636  34.597  64.293  1.00  0.00    -0.035 A 
HETATM   28  C   UNL     1       4.348  34.968  64.716  1.00  0.00     0.012 A 
HETATM   29  C   UNL     1       3.932  34.779  66.040  1.00  0.00     0.037 A 
HETATM   30  C   UNL     1       4.798  34.211  66.970  1.00  0.00     0.068 A 
HETATM   31  C   UNL     1       6.081  33.844  66.565  1.00  0.00     0.037 A 
HETATM   32  C   UNL     1       6.498  34.038  65.244  1.00  0.00     0.012 A 
BRANCH  30  33
HETATM   33  O   UNL     1       4.521  33.968  68.287  1.00  0.00    -0.356 OA
HETATM   34  C   UNL     1       5.568  34.204  69.219  1.00  0.00     0.210 C 
ENDBRANCH  30  33
ENDBRANCH   1  27
TORSDOF 6
ENDMDL
MODEL 7
REMARK VINA RESULT:      -8.3      5.646      8.712
REMARK  6 active torsions:
REMARK  status: ('A' for Active; 'I' for Inactive)
REMARK    1  A    between atoms: O_2  and  C_3 
REMARK    2  A    between atoms: C_6  and  C_7 
REMARK    3  A    between atoms: C_12  and  C_13 
REMARK       I    between atoms: C_13  and  N_14 
REMARK    4  A    between atoms: N_14  and  C_15 
REMARK    5  A    between atoms: C_17  and  O_18 
REMARK    6  A    between atoms: C_24  and  C_25 
ROOT
HETATM    1  C   UNL     1       2.380  29.745  50.731  1.00  0.00     0.118 C 
HETATM    2  N   UNL     1       2.592  28.678  51.703  1.00  0.00    -0.366 N 
HETATM    3  C   UNL     1       3.812  28.325  52.158  1.00  0.00     0.123 A 
HETATM    4  N   UNL     1       4.954  28.871  51.648  1.00  0.00    -0.240 N 
HETATM    5  N   UNL     1       6.080  28.469  52.267  1.00  0.00    -0.165 NA
HETATM    6  C   UNL     1       5.635  27.560  53.166  1.00  0.00     0.148 A 
HETATM    7  C   UNL     1       4.217  27.443  53.123  1.00  0.00     0.089 A 
HETATM    8  C   UNL     1       4.970  29.852  50.581  1.00  0.00     0.221 C 
HETATM    9  C   UNL     1       3.637  30.618  50.557  1.00  0.00     0.066 C 
HETATM   10  H   UNL     1       1.746  28.233  52.056  1.00  0.00     0.161 HD
ENDROOT
BRANCH   6  11
HETATM   11  C   UNL     1       6.550  26.827  54.060  1.00  0.00     0.276 C 
HETATM   12  N   UNL     1       6.556  25.471  53.790  1.00  0.00    -0.322 N 
HETATM   13  H   UNL     1       5.931  25.209  53.031  1.00  0.00     0.169 HD
HETATM   14  O   UNL     1       7.203  27.405  54.920  1.00  0.00    -0.266 OA
BRANCH  12  15
HETATM   15  C   UNL     1       7.296  24.457  54.422  1.00  0.00     0.037 A 
HETATM   16  C   UNL     1       7.401  24.321  55.808  1.00  0.00     0.066 A 
HETATM   17  C   UNL     1       8.160  23.281  56.347  1.00  0.00     0.067 A 
HETATM   18  C   UNL     1       8.819  22.374  55.528  1.00  0.00     0.036 A 
HETATM   19  C   UNL     1       8.719  22.503  54.145  1.00  0.00     0.005 A 
HETATM   20  C   UNL     1       7.960  23.541  53.595  1.00  0.00     0.029 A 
BRANCH  17  21
HETATM   21  O   UNL     1       8.282  23.121  57.697  1.00  0.00    -0.361 OA
HETATM   22  H   UNL     1       8.841  22.343  57.863  1.00  0.00     0.217 HD
ENDBRANCH  17  21
ENDBRANCH  12  15
ENDBRANCH   6  11
BRANCH   8  23
HETATM   23  C   UNL     1       5.331  29.184  49.274  1.00  0.00     0.409 C 
HETATM   24  F   UNL     1       6.651  29.152  49.019  1.00  0.00    -0.169 F 
HETATM   25  F   UNL     1       4.886  27.901  49.267  1.00  0.00    -0.169 F 
HETATM   26  F   UNL     1       4.733  29.796  48.224  1.00  0.00    -0.169 F 
ENDBRANCH   8  23
BRANCH   1  27
HETATM   27  C   UNL     1       1.777  29.239  49.432  1.00  0.00    -0.035 A 
HETATM   28  C   UNL     1       1.638  27.855  49.234  1.00  0.00     0.012 A 
HETATM   29  C   UNL     1       1.105  27.338  48.046  1.00  0.00     0.037 A 
HETATM   30  C   UNL     1       0.698  28.197  47.030  1.00  0.00     0.068 A 
HETATM   31  C   UNL     1       0.837  29.573  47.211  1.00  0.00     0.037 A 
HETATM   32  C   UNL     1       1.373  30.090  48.395  1.00  0.00     0.012 A 
BRANCH  30  33
HETATM   33  O   UNL     1       0.162  27.829  45.828  1.00  0.00    -0.356 OA
HETATM   34  C   UNL     1      -1.132  28.331  45.518  1.00  0.00     0.210 C 
ENDBRANCH  30  33
ENDBRANCH   1  27
TORSDOF 6
ENDMDL
MODEL 8
REMARK VINA RESULT:      -8.2      4.737     11.505
REMARK  6 active torsions:
REMARK  status: ('A' for Active; 'I' for Inactive)
REMARK    1  A    between atoms: O_2  and  C_3 
REMARK    2  A    between atoms: C_6  and  C_7 
REMARK    3  A    between atoms: C_12  and  C_13 
REMARK       I    between atoms: C_13  and  N_14 
REMARK    4  A    between atoms: N_14  and  C_15 
REMARK    5  A    between atoms: C_17  and  O_18 
REMARK    6  A    between atoms: C_24  and  C_25 
ROOT
HETATM    1  C   UNL     1       4.398  34.518  62.489  1.00  0.00     0.118 C 
HETATM    2  N   UNL     1       4.904  34.221  61.154  1.00  0.00    -0.366 N 
HETATM    3  C   UNL     1       5.713  33.176  60.886  1.00  0.00     0.123 A 
HETATM    4  N   UNL     1       6.213  32.383  61.877  1.00  0.00    -0.240 N 
HETATM    5  N   UNL     1       6.938  31.338  61.434  1.00  0.00    -0.165 NA
HETATM    6  C   UNL     1       6.965  31.524  60.093  1.00  0.00     0.148 A 
HETATM    7  C   UNL     1       6.209  32.669  59.715  1.00  0.00     0.089 A 
HETATM    8  C   UNL     1       5.941  32.588  63.286  1.00  0.00     0.221 C 
HETATM    9  C   UNL     1       4.610  33.338  63.456  1.00  0.00     0.066 C 
HETATM   10  H   UNL     1       4.572  34.837  60.413  1.00  0.00     0.161 HD
ENDROOT
BRANCH   6  11
HETATM   11  C   UNL     1       7.691  30.613  59.189  1.00  0.00     0.276 C 
HETATM   12  N   UNL     1       6.834  29.943  58.337  1.00  0.00    -0.322 N 
HETATM   13  H   UNL     1       5.856  30.186  58.478  1.00  0.00     0.169 HD
HETATM   14  O   UNL     1       8.911  30.505  59.234  1.00  0.00    -0.266 OA
BRANCH  12  15
HETATM   15  C   UNL     1       7.149  29.003  57.340  1.00  0.00     0.037 A 
HETATM   16  C   UNL     1       7.278  29.321  55.986  1.00  0.00     0.066 A 
HETATM   17  C   UNL     1       7.593  28.320  55.067  1.00  0.00     0.067 A 
HETATM   18  C   UNL     1       7.780  27.005  55.472  1.00  0.00     0.036 A 
HETATM   19  C   UNL     1       7.653  26.681  56.821  1.00  0.00     0.005 A 
HETATM   20  C   UNL     1       7.338  27.677  57.750  1.00  0.00     0.029 A 
BRANCH  17  21
HETATM   21  O   UNL     1       7.728  28.598  53.737  1.00  0.00    -0.361 OA
HETATM   22  H   UNL     1       6.861  28.482  53.312  1.00  0.00     0.217 HD
ENDBRANCH  17  21
ENDBRANCH  12  15
ENDBRANCH   6  11
BRANCH   8  23
HETATM   23  C   UNL     1       7.124  33.257  63.946  1.00  0.00     0.409 C 
HETATM   24  F   UNL     1       6.849  33.809  65.141  1.00  0.00    -0.169 F 
HETATM   25  F   UNL     1       8.122  32.356  64.137  1.00  0.00    -0.169 F 
HETATM   26  F   UNL     1       7.643  34.233  63.163  1.00  0.00    -0.169 F 
ENDBRANCH   8  23
BRANCH   1  27
HETATM   27  C   UNL     1       4.884  35.859  63.012  1.00  0.00    -0.035 A 
HETATM   28  C   UNL     1       5.633  36.695  62.166  1.00  0.00     0.012 A 
HETATM   29  C   UNL     1       6.120  37.932  62.607  1.00  0.00     0.037 A 
HETATM   30  C   UNL     1       5.865  38.361  63.907  1.00  0.00     0.068 A 
HETATM   31  C   UNL     1       5.128  37.538  64.759  1.00  0.00     0.037 A 
HETATM   32  C   UNL     1       4.647  36.300  64.320  1.00  0.00     0.012 A 
BRANCH  30  33
HETATM   33  O   UNL     1       6.276  39.540  64.462  1.00  0.00    -0.356 OA
HETATM   34  C   UNL     1       5.905  39.779  65.814  1.00  0.00     0.210 C 
ENDBRANCH  30  33
ENDBRANCH   1  27
TORSDOF 6
ENDMDL
MODEL 9
REMARK VINA RESULT:      -8.1      6.699     10.060
REMARK  6 active torsions:
REMARK  status: ('A' for Active; 'I' for Inactive)
REMARK    1  A    between atoms: O_2  and  C_3 
REMARK    2  A    between atoms: C_6  and  C_7 
REMARK    3  A    between atoms: C_12  and  C_13 
REMARK       I    between atoms: C_13  and  N_14 
REMARK    4  A    between atoms: N_14  and  C_15 
REMARK    5  A    between atoms: C_17  and  O_18 
REMARK    6  A    between atoms: C_24  and  C_25 
ROOT
HETATM    1  C   UNL     1       5.538  30.316  49.829  1.00  0.00     0.118 C 
HETATM    2  N   UNL     1       5.709  29.669  51.125  1.00  0.00    -0.366 N 
HETATM    3  C   UNL     1       5.533  28.346  51.319  1.00  0.00     0.123 A 
HETATM    4  N   UNL     1       5.064  27.532  50.329  1.00  0.00    -0.240 N 
HETATM    5  N   UNL     1       5.021  26.228  50.663  1.00  0.00    -0.165 NA
HETATM    6  C   UNL     1       5.409  26.225  51.960  1.00  0.00     0.148 A 
HETATM    7  C   UNL     1       5.735  27.537  52.404  1.00  0.00     0.089 A 
HETATM    8  C   UNL     1       4.704  27.999  49.005  1.00  0.00     0.221 C 
HETATM    9  C   UNL     1       5.474  29.290  48.681  1.00  0.00     0.066 C 
HETATM   10  H   UNL     1       6.016  30.279  51.882  1.00  0.00     0.161 HD
ENDROOT
BRANCH   6  11
HETATM   11  C   UNL     1       5.480  24.985  52.755  1.00  0.00     0.276 C 
HETATM   12  N   UNL     1       6.778  24.526  52.878  1.00  0.00    -0.322 N 
HETATM   13  H   UNL     1       7.458  25.112  52.400  1.00  0.00     0.169 HD
HETATM   14  O   UNL     1       4.473  24.470  53.227  1.00  0.00    -0.266 OA
BRANCH  12  15
HETATM   15  C   UNL     1       7.243  23.387  53.559  1.00  0.00     0.037 A 
HETATM   16  C   UNL     1       7.688  22.228  52.919  1.00  0.00     0.066 A 
HETATM   17  C   UNL     1       8.132  21.145  53.678  1.00  0.00     0.067 A 
HETATM   18  C   UNL     1       8.138  21.195  55.066  1.00  0.00     0.036 A 
HETATM   19  C   UNL     1       7.695  22.347  55.710  1.00  0.00     0.005 A 
HETATM   20  C   UNL     1       7.249  23.438  54.959  1.00  0.00     0.029 A 
BRANCH  17  21
HETATM   21  O   UNL     1       8.574  19.999  53.083  1.00  0.00    -0.361 OA
HETATM   22  H   UNL     1       7.845  19.625  52.561  1.00  0.00     0.217 HD
ENDBRANCH  17  21
ENDBRANCH  12  15
ENDBRANCH   6  11
BRANCH   8  23
HETATM   23  C   UNL     1       3.202  28.122  48.893  1.00  0.00     0.409 C 
HETATM   24  F   UNL     1       2.790  29.032  47.993  1.00  0.00    -0.169 F 
HETATM   25  F   UNL     1       2.662  26.928  48.537  1.00  0.00    -0.169 F 
HETATM   26  F   UNL     1       2.642  28.449  50.082  1.00  0.00    -0.169 F 
ENDBRANCH   8  23
BRANCH   1  27
HETATM   27  C   UNL     1       4.412  31.335  49.830  1.00  0.00    -0.035 A 
HETATM   28  C   UNL     1       3.656  31.521  51.000  1.00  0.00     0.012 A 
HETATM   29  C   UNL     1       2.595  32.434  51.046  1.00  0.00     0.037 A 
HETATM   30  C   UNL     1       2.268  33.184  49.920  1.00  0.00     0.068 A 
HETATM   31  C   UNL     1       3.006  33.004  48.749  1.00  0.00     0.037 A 
HETATM   32  C   UNL     1       4.062  32.088  48.702  1.00  0.00     0.012 A 
BRANCH  30  33
HETATM   33  O   UNL     1       1.264  34.107  49.828  1.00  0.00    -0.356 OA
HETATM   34  C   UNL     1       0.354  34.179  50.918  1.00  0.00     0.210 C 
ENDBRANCH  30  33
ENDBRANCH   1  27
TORSDOF 6
ENDMDL
MODEL 10
REMARK VINA RESULT:      -8.0      3.827      5.555
REMARK  6 active torsions:
REMARK  status: ('A' for Active; 'I' for Inactive)
REMARK    1  A    between atoms: O_2  and  C_3 
REMARK    2  A    between atoms: C_6  and  C_7 
REMARK    3  A    between atoms: C_12  and  C_13 
REMARK       I    between atoms: C_13  and  N_14 
REMARK    4  A    between atoms: N_14  and  C_15 
REMARK    5  A    between atoms: C_17  and  O_18 
REMARK    6  A    between atoms: C_24  and  C_25 
ROOT
HETATM    1  C   UNL     1       3.192  30.184  57.073  1.00  0.00     0.118 C 
HETATM    2  N   UNL     1       3.394  30.308  58.512  1.00  0.00    -0.366 N 
HETATM    3  C   UNL     1       3.545  31.493  59.137  1.00  0.00     0.123 A 
HETATM    4  N   UNL     1       3.635  32.665  58.443  1.00  0.00    -0.240 N 
HETATM    5  N   UNL     1       3.704  33.762  59.220  1.00  0.00    -0.165 NA
HETATM    6  C   UNL     1       3.738  33.254  60.475  1.00  0.00     0.148 A 
HETATM    7  C   UNL     1       3.643  31.834  60.459  1.00  0.00     0.089 A 
HETATM    8  C   UNL     1       3.593  32.748  56.996  1.00  0.00     0.221 C 
HETATM    9  C   UNL     1       2.836  31.537  56.426  1.00  0.00     0.066 C 
HETATM   10  H   UNL     1       3.374  29.433  59.034  1.00  0.00     0.161 HD
ENDROOT
BRANCH   6  11
HETATM   11  C   UNL     1       3.846  34.114  61.668  1.00  0.00     0.276 C 
HETATM   12  N   UNL     1       4.114  33.381  62.808  1.00  0.00    -0.322 N 
HETATM   13  H   UNL     1       4.186  32.381  62.635  1.00  0.00     0.169 HD
HETATM   14  O   UNL     1       3.706  35.330  61.594  1.00  0.00    -0.266 OA
BRANCH  12  15
HETATM   15  C   UNL     1       4.288  33.843  64.124  1.00  0.00     0.037 A 
HETATM   16  C   UNL     1       3.307  34.535  64.840  1.00  0.00     0.066 A 
HETATM   17  C   UNL     1       3.570  34.956  66.144  1.00  0.00     0.067 A 
HETATM   18  C   UNL     1       4.794  34.702  66.748  1.00  0.00     0.036 A 
HETATM   19  C   UNL     1       5.776  34.013  66.040  1.00  0.00     0.005 A 
HETATM   20  C   UNL     1       5.522  33.586  64.734  1.00  0.00     0.029 A 
BRANCH  17  21
HETATM   21  O   UNL     1       2.633  35.633  66.870  1.00  0.00    -0.361 OA
HETATM   22  H   UNL     1       2.949  35.702  67.787  1.00  0.00     0.217 HD
ENDBRANCH  17  21
ENDBRANCH  12  15
ENDBRANCH   6  11
BRANCH   8  23
HETATM   23  C   UNL     1       4.990  32.927  56.449  1.00  0.00     0.409 C 
HETATM   24  F   UNL     1       5.955  32.392  57.218  1.00  0.00    -0.169 F 
HETATM   25  F   UNL     1       5.086  32.355  55.221  1.00  0.00    -0.169 F 
HETATM   26  F   UNL     1       5.291  34.236  56.279  1.00  0.00    -0.169 F 
ENDBRANCH   8  23
BRANCH   1  27
HETATM   27  C   UNL     1       4.320  29.433  56.387  1.00  0.00    -0.035 A 
HETATM   28  C   UNL     1       4.158  29.022  55.053  1.00  0.00     0.012 A 
HETATM   29  C   UNL     1       5.162  28.310  54.382  1.00  0.00     0.037 A 
HETATM   30  C   UNL     1       6.351  27.995  55.034  1.00  0.00     0.068 A 
HETATM   31  C   UNL     1       6.521  28.391  56.360  1.00  0.00     0.037 A 
HETATM   32  C   UNL     1       5.518  29.097  57.032  1.00  0.00     0.012 A 
BRANCH  30  33
HETATM   33  O   UNL     1       7.407  27.312  54.499  1.00  0.00    -0.356 OA
HETATM   34  C   UNL     1       7.116  26.392  53.455  1.00  0.00     0.210 C 
ENDBRANCH  30  33
ENDBRANCH   1  27
TORSDOF 6
ENDMDL
