MODEL 1
REMARK VINA RESULT:      -7.1      0.000      0.000
REMARK  5 active torsions:
REMARK  status: ('A' for Active; 'I' for Inactive)
REMARK    1  A    between atoms: C_2  and  O_3 
REMARK    2  A    between atoms: C_4  and  C_5 
REMARK    3  A    between atoms: C_5  and  O_6 
REMARK    4  A    between atoms: C_9  and  C_10 
REMARK    5  A    between atoms: C_22  and  O_23 
ROOT
HETATM    1  C   UNL     1       5.958  29.023  54.751  1.00  0.00     0.047 C 
HETATM    2  C   UNL     1       5.359  27.725  55.327  1.00  0.00     0.073 C 
HETATM    3  C   UNL     1       6.519  26.742  55.732  1.00  0.00     0.133 C 
HETATM    4  C   UNL     1       7.230  26.019  54.538  1.00  0.00     0.074 C 
HETATM    5  C   UNL     1       6.407  25.999  53.291  1.00  0.00     0.030 A 
HETATM    6  C   UNL     1       5.117  26.474  53.211  1.00  0.00     0.042 A 
HETATM    7  N   UNL     1       4.712  26.324  51.916  1.00  0.00    -0.279 N 
HETATM    8  H   UNL     1       3.820  26.565  51.495  1.00  0.00     0.189 HD
HETATM    9  N   UNL     1       5.684  25.822  51.124  1.00  0.00    -0.149 NA
HETATM   10  C   UNL     1       6.691  25.647  51.970  1.00  0.00     0.190 A 
HETATM   11  C   UNL     1       4.357  27.104  54.309  1.00  0.00     0.097 C 
ENDROOT
BRANCH   4  12
HETATM   12  C   UNL     1       7.654  24.573  54.777  1.00  0.00    -0.048 A 
HETATM   13  C   UNL     1       8.762  24.233  55.580  1.00  0.00     0.009 A 
HETATM   14  C   UNL     1       9.145  22.901  55.753  1.00  0.00     0.019 A 
HETATM   15  C   UNL     1       8.426  21.891  55.122  1.00  0.00     0.011 A 
HETATM   16 BR   UNL     1       8.944  20.089  55.350  1.00  0.00    -0.051 Br
HETATM   17  C   UNL     1       7.329  22.201  54.321  1.00  0.00     0.019 A 
HETATM   18  C   UNL     1       6.947  23.535  54.148  1.00  0.00     0.009 A 
ENDBRANCH   4  12
BRANCH   3  19
HETATM   19  C   UNL     1       6.036  25.784  56.803  1.00  0.00     0.266 C 
HETATM   20  O   UNL     1       5.016  25.110  56.724  1.00  0.00    -0.265 OA
BRANCH  19  21
HETATM   21  O   UNL     1       6.869  25.820  57.881  1.00  0.00    -0.326 OA
HETATM   22  C   UNL     1       7.707  26.974  57.945  1.00  0.00     0.213 C 
ENDBRANCH  19  21
ENDBRANCH   3  19
BRANCH   2  23
HETATM   23  O   UNL     1       4.628  28.152  56.491  1.00  0.00    -0.389 OA
HETATM   24  H   UNL     1       3.764  28.500  56.188  1.00  0.00     0.210 HD
ENDBRANCH   2  23
BRANCH  10  25
HETATM   25  O   UNL     1       7.818  25.199  51.430  1.00  0.00    -0.343 OA
HETATM   26  H   UNL     1       7.659  25.229  50.472  1.00  0.00     0.219 HD
ENDBRANCH  10  25
TORSDOF 5
ENDMDL
MODEL 2
REMARK VINA RESULT:      -7.0      2.462      3.772
REMARK  5 active torsions:
REMARK  status: ('A' for Active; 'I' for Inactive)
REMARK    1  A    between atoms: C_2  and  O_3 
REMARK    2  A    between atoms: C_4  and  C_5 
REMARK    3  A    between atoms: C_5  and  O_6 
REMARK    4  A    between atoms: C_9  and  C_10 
REMARK    5  A    between atoms: C_22  and  O_23 
ROOT
HETATM    1  C   UNL     1       4.239  28.363  56.168  1.00  0.00     0.047 C 
HETATM    2  C   UNL     1       4.870  27.921  54.832  1.00  0.00     0.073 C 
HETATM    3  C   UNL     1       5.002  26.354  54.802  1.00  0.00     0.133 C 
HETATM    4  C   UNL     1       6.160  25.764  55.676  1.00  0.00     0.074 C 
HETATM    5  C   UNL     1       7.222  26.766  55.995  1.00  0.00     0.030 A 
HETATM    6  C   UNL     1       7.244  28.051  55.499  1.00  0.00     0.042 A 
HETATM    7  N   UNL     1       8.334  28.672  56.039  1.00  0.00    -0.279 N 
HETATM    8  H   UNL     1       8.661  29.622  55.896  1.00  0.00     0.189 HD
HETATM    9  N   UNL     1       9.004  27.883  56.906  1.00  0.00    -0.149 NA
HETATM   10  C   UNL     1       8.312  26.752  56.869  1.00  0.00     0.190 A 
HETATM   11  C   UNL     1       6.227  28.656  54.617  1.00  0.00     0.097 C 
ENDROOT
BRANCH   4  12
HETATM   12  C   UNL     1       6.893  24.555  55.102  1.00  0.00    -0.048 A 
HETATM   13  C   UNL     1       7.593  24.606  53.880  1.00  0.00     0.009 A 
HETATM   14  C   UNL     1       8.226  23.472  53.364  1.00  0.00     0.019 A 
HETATM   15  C   UNL     1       8.165  22.272  54.063  1.00  0.00     0.011 A 
HETATM   16 BR   UNL     1       9.016  20.736  53.366  1.00  0.00    -0.051 Br
HETATM   17  C   UNL     1       7.477  22.194  55.272  1.00  0.00     0.019 A 
HETATM   18  C   UNL     1       6.843  23.330  55.786  1.00  0.00     0.009 A 
ENDBRANCH   4  12
BRANCH   3  19
HETATM   19  C   UNL     1       5.031  25.864  53.368  1.00  0.00     0.266 C 
HETATM   20  O   UNL     1       4.477  24.846  52.970  1.00  0.00    -0.265 OA
BRANCH  19  21
HETATM   21  O   UNL     1       5.801  26.686  52.602  1.00  0.00    -0.326 OA
HETATM   22  C   UNL     1       5.563  26.584  51.198  1.00  0.00     0.213 C 
ENDBRANCH  19  21
ENDBRANCH   3  19
BRANCH   2  23
HETATM   23  O   UNL     1       3.940  28.371  53.830  1.00  0.00    -0.389 OA
HETATM   24  H   UNL     1       3.441  27.590  53.515  1.00  0.00     0.210 HD
ENDBRANCH   2  23
BRANCH  10  25
HETATM   25  O   UNL     1       8.735  25.796  57.687  1.00  0.00    -0.343 OA
HETATM   26  H   UNL     1       8.077  25.776  58.401  1.00  0.00     0.219 HD
ENDBRANCH  10  25
TORSDOF 5
ENDMDL
MODEL 3
REMARK VINA RESULT:      -7.0      1.801      2.301
REMARK  5 active torsions:
REMARK  status: ('A' for Active; 'I' for Inactive)
REMARK    1  A    between atoms: C_2  and  O_3 
REMARK    2  A    between atoms: C_4  and  C_5 
REMARK    3  A    between atoms: C_5  and  O_6 
REMARK    4  A    between atoms: C_9  and  C_10 
REMARK    5  A    between atoms: C_22  and  O_23 
ROOT
HETATM    1  C   UNL     1       6.863  29.858  56.110  1.00  0.00     0.047 C 
HETATM    2  C   UNL     1       6.491  28.476  56.682  1.00  0.00     0.073 C 
HETATM    3  C   UNL     1       7.419  27.375  56.050  1.00  0.00     0.133 C 
HETATM    4  C   UNL     1       7.078  26.982  54.572  1.00  0.00     0.074 C 
HETATM    5  C   UNL     1       5.681  27.339  54.178  1.00  0.00     0.030 A 
HETATM    6  C   UNL     1       4.748  27.868  55.043  1.00  0.00     0.042 A 
HETATM    7  N   UNL     1       3.612  28.096  54.319  1.00  0.00    -0.279 N 
HETATM    8  H   UNL     1       2.726  28.479  54.629  1.00  0.00     0.189 HD
HETATM    9  N   UNL     1       3.762  27.794  53.011  1.00  0.00    -0.149 NA
HETATM   10  C   UNL     1       5.012  27.353  52.953  1.00  0.00     0.190 A 
HETATM   11  C   UNL     1       4.974  28.200  56.463  1.00  0.00     0.097 C 
ENDROOT
BRANCH   4  12
HETATM   12  C   UNL     1       7.247  25.510  54.206  1.00  0.00    -0.048 A 
HETATM   13  C   UNL     1       6.633  24.474  54.939  1.00  0.00     0.009 A 
HETATM   14  C   UNL     1       6.834  23.134  54.599  1.00  0.00     0.019 A 
HETATM   15  C   UNL     1       7.654  22.813  53.523  1.00  0.00     0.011 A 
HETATM   16 BR   UNL     1       7.932  21.001  53.064  1.00  0.00    -0.051 Br
HETATM   17  C   UNL     1       8.275  23.818  52.785  1.00  0.00     0.019 A 
HETATM   18  C   UNL     1       8.074  25.159  53.127  1.00  0.00     0.009 A 
ENDBRANCH   4  12
BRANCH   3  19
HETATM   19  C   UNL     1       7.511  26.178  56.976  1.00  0.00     0.266 C 
HETATM   20  O   UNL     1       6.558  25.678  57.561  1.00  0.00    -0.265 OA
BRANCH  19  21
HETATM   21  O   UNL     1       8.806  25.776  57.103  1.00  0.00    -0.326 OA
HETATM   22  C   UNL     1       8.969  24.419  57.514  1.00  0.00     0.213 C 
ENDBRANCH  19  21
ENDBRANCH   3  19
BRANCH   2  23
HETATM   23  O   UNL     1       6.738  28.595  58.095  1.00  0.00    -0.389 OA
HETATM   24  H   UNL     1       5.905  28.889  58.519  1.00  0.00     0.210 HD
ENDBRANCH   2  23
BRANCH  10  25
HETATM   25  O   UNL     1       5.446  27.026  51.741  1.00  0.00    -0.343 OA
HETATM   26  H   UNL     1       6.333  26.659  51.890  1.00  0.00     0.219 HD
ENDBRANCH  10  25
TORSDOF 5
ENDMDL
MODEL 4
REMARK VINA RESULT:      -6.9      3.616      5.891
REMARK  5 active torsions:
REMARK  status: ('A' for Active; 'I' for Inactive)
REMARK    1  A    between atoms: C_2  and  O_3 
REMARK    2  A    between atoms: C_4  and  C_5 
REMARK    3  A    between atoms: C_5  and  O_6 
REMARK    4  A    between atoms: C_9  and  C_10 
REMARK    5  A    between atoms: C_22  and  O_23 
ROOT
HETATM    1  C   UNL     1       8.132  25.118  52.215  1.00  0.00     0.047 C 
HETATM    2  C   UNL     1       6.701  25.525  52.618  1.00  0.00     0.073 C 
HETATM    3  C   UNL     1       6.715  26.971  53.236  1.00  0.00     0.133 C 
HETATM    4  C   UNL     1       7.276  27.068  54.696  1.00  0.00     0.074 C 
HETATM    5  C   UNL     1       7.248  25.762  55.422  1.00  0.00     0.030 A 
HETATM    6  C   UNL     1       6.700  24.607  54.910  1.00  0.00     0.042 A 
HETATM    7  N   UNL     1       6.896  23.623  55.837  1.00  0.00    -0.279 N 
HETATM    8  H   UNL     1       6.623  22.647  55.797  1.00  0.00     0.189 HD
HETATM    9  N   UNL     1       7.590  24.055  56.911  1.00  0.00    -0.149 NA
HETATM   10  C   UNL     1       7.798  25.335  56.633  1.00  0.00     0.190 A 
HETATM   11  C   UNL     1       6.093  24.455  53.573  1.00  0.00     0.097 C 
ENDROOT
BRANCH   4  12
HETATM   12  C   UNL     1       6.589  28.069  55.620  1.00  0.00    -0.048 A 
HETATM   13  C   UNL     1       5.370  27.785  56.268  1.00  0.00     0.009 A 
HETATM   14  C   UNL     1       4.748  28.735  57.083  1.00  0.00     0.019 A 
HETATM   15  C   UNL     1       5.337  29.983  57.256  1.00  0.00     0.011 A 
HETATM   16 BR   UNL     1       4.497  31.272  58.353  1.00  0.00    -0.051 Br
HETATM   17  C   UNL     1       6.540  30.290  56.624  1.00  0.00     0.019 A 
HETATM   18  C   UNL     1       7.160  29.338  55.809  1.00  0.00     0.009 A 
ENDBRANCH   4  12
BRANCH   3  19
HETATM   19  C   UNL     1       5.353  27.616  53.079  1.00  0.00     0.266 C 
HETATM   20  O   UNL     1       4.287  27.037  53.245  1.00  0.00    -0.265 OA
BRANCH  19  21
HETATM   21  O   UNL     1       5.486  28.912  52.678  1.00  0.00    -0.326 OA
HETATM   22  C   UNL     1       5.475  29.099  51.263  1.00  0.00     0.213 C 
ENDBRANCH  19  21
ENDBRANCH   3  19
BRANCH   2  23
HETATM   23  O   UNL     1       5.963  25.510  51.382  1.00  0.00    -0.389 OA
HETATM   24  H   UNL     1       5.164  24.960  51.518  1.00  0.00     0.210 HD
ENDBRANCH   2  23
BRANCH  10  25
HETATM   25  O   UNL     1       8.520  26.004  57.524  1.00  0.00    -0.343 OA
HETATM   26  H   UNL     1       7.944  26.071  58.304  1.00  0.00     0.219 HD
ENDBRANCH  10  25
TORSDOF 5
ENDMDL
MODEL 5
REMARK VINA RESULT:      -6.6      3.307      4.838
REMARK  5 active torsions:
REMARK  status: ('A' for Active; 'I' for Inactive)
REMARK    1  A    between atoms: C_2  and  O_3 
REMARK    2  A    between atoms: C_4  and  C_5 
REMARK    3  A    between atoms: C_5  and  O_6 
REMARK    4  A    between atoms: C_9  and  C_10 
REMARK    5  A    between atoms: C_22  and  O_23 
ROOT
HETATM    1  C   UNL     1       3.604  30.233  57.619  1.00  0.00     0.047 C 
HETATM    2  C   UNL     1       4.207  30.121  56.205  1.00  0.00     0.073 C 
HETATM    3  C   UNL     1       4.191  28.619  55.740  1.00  0.00     0.133 C 
HETATM    4  C   UNL     1       5.278  27.703  56.400  1.00  0.00     0.074 C 
HETATM    5  C   UNL     1       6.425  28.473  56.970  1.00  0.00     0.030 A 
HETATM    6  C   UNL     1       6.575  29.837  56.848  1.00  0.00     0.042 A 
HETATM    7  N   UNL     1       7.711  30.180  57.524  1.00  0.00    -0.279 N 
HETATM    8  H   UNL     1       8.128  31.097  57.645  1.00  0.00     0.189 HD
HETATM    9  N   UNL     1       8.292  29.122  58.129  1.00  0.00    -0.149 NA
HETATM   10  C   UNL     1       7.497  28.115  57.790  1.00  0.00     0.190 A 
HETATM   11  C   UNL     1       5.629  30.756  56.182  1.00  0.00     0.097 C 
ENDROOT
BRANCH   4  12
HETATM   12  C   UNL     1       5.901  26.637  55.504  1.00  0.00    -0.048 A 
HETATM   13  C   UNL     1       5.517  25.282  55.564  1.00  0.00     0.009 A 
HETATM   14  C   UNL     1       6.129  24.323  54.754  1.00  0.00     0.019 A 
HETATM   15  C   UNL     1       7.136  24.707  53.873  1.00  0.00     0.011 A 
HETATM   16 BR   UNL     1       7.968  23.412  52.779  1.00  0.00    -0.051 Br
HETATM   17  C   UNL     1       7.535  26.040  53.797  1.00  0.00     0.019 A 
HETATM   18  C   UNL     1       6.921  26.998  54.610  1.00  0.00     0.009 A 
ENDBRANCH   4  12
BRANCH   3  19
HETATM   19  C   UNL     1       4.192  28.544  54.226  1.00  0.00     0.266 C 
HETATM   20  O   UNL     1       3.599  27.694  53.573  1.00  0.00    -0.265 OA
BRANCH  19  21
HETATM   21  O   UNL     1       4.984  29.522  53.704  1.00  0.00    -0.326 OA
HETATM   22  C   UNL     1       4.760  29.792  52.321  1.00  0.00     0.213 C 
ENDBRANCH  19  21
ENDBRANCH   3  19
BRANCH   2  23
HETATM   23  O   UNL     1       3.336  30.916  55.380  1.00  0.00    -0.389 OA
HETATM   24  H   UNL     1       2.420  30.784  55.701  1.00  0.00     0.210 HD
ENDBRANCH   2  23
BRANCH  10  25
HETATM   25  O   UNL     1       7.819  26.935  58.305  1.00  0.00    -0.343 OA
HETATM   26  H   UNL     1       8.146  27.140  59.197  1.00  0.00     0.219 HD
ENDBRANCH  10  25
TORSDOF 5
ENDMDL
MODEL 6
REMARK VINA RESULT:      -6.6      3.320      5.238
REMARK  5 active torsions:
REMARK  status: ('A' for Active; 'I' for Inactive)
REMARK    1  A    between atoms: C_2  and  O_3 
REMARK    2  A    between atoms: C_4  and  C_5 
REMARK    3  A    between atoms: C_5  and  O_6 
REMARK    4  A    between atoms: C_9  and  C_10 
REMARK    5  A    between atoms: C_22  and  O_23 
ROOT
HETATM    1  C   UNL     1       7.436  23.159  56.703  1.00  0.00     0.047 C 
HETATM    2  C   UNL     1       8.042  24.519  56.304  1.00  0.00     0.073 C 
HETATM    3  C   UNL     1       7.052  25.676  56.700  1.00  0.00     0.133 C 
HETATM    4  C   UNL     1       5.800  25.831  55.771  1.00  0.00     0.074 C 
HETATM    5  C   UNL     1       5.987  25.207  54.426  1.00  0.00     0.030 A 
HETATM    6  C   UNL     1       7.166  24.637  53.998  1.00  0.00     0.042 A 
HETATM    7  N   UNL     1       6.942  24.142  52.745  1.00  0.00    -0.279 N 
HETATM    8  H   UNL     1       7.585  23.658  52.127  1.00  0.00     0.189 HD
HETATM    9  N   UNL     1       5.664  24.309  52.343  1.00  0.00    -0.149 NA
HETATM   10  C   UNL     1       5.112  24.939  53.372  1.00  0.00     0.190 A 
HETATM   11  C   UNL     1       8.406  24.515  54.790  1.00  0.00     0.097 C 
ENDROOT
BRANCH   4  12
HETATM   12  C   UNL     1       5.329  27.258  55.502  1.00  0.00    -0.048 A 
HETATM   13  C   UNL     1       5.755  27.994  54.378  1.00  0.00     0.009 A 
HETATM   14  C   UNL     1       5.333  29.311  54.177  1.00  0.00     0.019 A 
HETATM   15  C   UNL     1       4.480  29.908  55.099  1.00  0.00     0.011 A 
HETATM   16 BR   UNL     1       3.910  31.689  54.832  1.00  0.00    -0.051 Br
HETATM   17  C   UNL     1       4.047  29.202  56.220  1.00  0.00     0.019 A 
HETATM   18  C   UNL     1       4.472  27.885  56.420  1.00  0.00     0.009 A 
ENDBRANCH   4  12
BRANCH   3  19
HETATM   19  C   UNL     1       7.817  26.971  56.888  1.00  0.00     0.266 C 
HETATM   20  O   UNL     1       8.564  27.464  56.052  1.00  0.00    -0.265 OA
BRANCH  19  21
HETATM   21  O   UNL     1       7.593  27.477  58.133  1.00  0.00    -0.326 OA
HETATM   22  C   UNL     1       7.659  28.900  58.217  1.00  0.00     0.213 C 
ENDBRANCH  19  21
ENDBRANCH   3  19
BRANCH   2  23
HETATM   23  O   UNL     1       9.258  24.609  57.069  1.00  0.00    -0.389 OA
HETATM   24  H   UNL     1       9.958  24.140  56.571  1.00  0.00     0.210 HD
ENDBRANCH   2  23
BRANCH  10  25
HETATM   25  O   UNL     1       3.813  25.188  53.259  1.00  0.00    -0.343 OA
HETATM   26  H   UNL     1       3.626  25.833  53.961  1.00  0.00     0.219 HD
ENDBRANCH  10  25
TORSDOF 5
ENDMDL
MODEL 7
REMARK VINA RESULT:      -6.6      3.635      6.044
REMARK  5 active torsions:
REMARK  status: ('A' for Active; 'I' for Inactive)
REMARK    1  A    between atoms: C_2  and  O_3 
REMARK    2  A    between atoms: C_4  and  C_5 
REMARK    3  A    between atoms: C_5  and  O_6 
REMARK    4  A    between atoms: C_9  and  C_10 
REMARK    5  A    between atoms: C_22  and  O_23 
ROOT
HETATM    1  C   UNL     1       9.233  23.217  54.176  1.00  0.00     0.047 C 
HETATM    2  C   UNL     1       7.705  23.403  54.110  1.00  0.00     0.073 C 
HETATM    3  C   UNL     1       7.369  24.790  53.447  1.00  0.00     0.133 C 
HETATM    4  C   UNL     1       7.596  26.040  54.363  1.00  0.00     0.074 C 
HETATM    5  C   UNL     1       7.622  25.704  55.819  1.00  0.00     0.030 A 
HETATM    6  C   UNL     1       7.375  24.446  56.324  1.00  0.00     0.042 A 
HETATM    7  N   UNL     1       7.527  24.519  57.679  1.00  0.00    -0.279 N 
HETATM    8  H   UNL     1       7.422  23.786  58.372  1.00  0.00     0.189 HD
HETATM    9  N   UNL     1       7.911  25.746  58.092  1.00  0.00    -0.149 NA
HETATM   10  C   UNL     1       7.971  26.433  56.958  1.00  0.00     0.190 A 
HETATM   11  C   UNL     1       7.086  23.235  55.529  1.00  0.00     0.097 C 
ENDROOT
BRANCH   4  12
HETATM   12  C   UNL     1       6.588  27.177  54.220  1.00  0.00    -0.048 A 
HETATM   13  C   UNL     1       5.487  27.324  55.088  1.00  0.00     0.009 A 
HETATM   14  C   UNL     1       4.563  28.356  54.912  1.00  0.00     0.019 A 
HETATM   15  C   UNL     1       4.726  29.254  53.861  1.00  0.00     0.011 A 
HETATM   16 BR   UNL     1       3.475  30.648  53.617  1.00  0.00    -0.051 Br
HETATM   17  C   UNL     1       5.804  29.128  52.988  1.00  0.00     0.019 A 
HETATM   18  C   UNL     1       6.728  28.094  53.166  1.00  0.00     0.009 A 
ENDBRANCH   4  12
BRANCH   3  19
HETATM   19  C   UNL     1       5.984  24.749  52.831  1.00  0.00     0.266 C 
HETATM   20  O   UNL     1       4.964  24.439  53.435  1.00  0.00    -0.265 OA
BRANCH  19  21
HETATM   21  O   UNL     1       6.047  25.055  51.505  1.00  0.00    -0.326 OA
HETATM   22  C   UNL     1       4.983  25.882  51.036  1.00  0.00     0.213 C 
ENDBRANCH  19  21
ENDBRANCH   3  19
BRANCH   2  23
HETATM   23  O   UNL     1       7.247  22.321  53.278  1.00  0.00    -0.389 OA
HETATM   24  H   UNL     1       6.865  22.711  52.465  1.00  0.00     0.210 HD
ENDBRANCH   2  23
BRANCH  10  25
HETATM   25  O   UNL     1       8.383  27.689  57.072  1.00  0.00    -0.343 OA
HETATM   26  H   UNL     1       7.766  28.092  57.706  1.00  0.00     0.219 HD
ENDBRANCH  10  25
TORSDOF 5
ENDMDL
MODEL 8
REMARK VINA RESULT:      -6.5      3.577      5.468
REMARK  5 active torsions:
REMARK  status: ('A' for Active; 'I' for Inactive)
REMARK    1  A    between atoms: C_2  and  O_3 
REMARK    2  A    between atoms: C_4  and  C_5 
REMARK    3  A    between atoms: C_5  and  O_6 
REMARK    4  A    between atoms: C_9  and  C_10 
REMARK    5  A    between atoms: C_22  and  O_23 
ROOT
HETATM    1  C   UNL     1       6.567  25.667  57.664  1.00  0.00     0.047 C 
HETATM    2  C   UNL     1       7.346  26.595  56.711  1.00  0.00     0.073 C 
HETATM    3  C   UNL     1       6.378  27.687  56.126  1.00  0.00     0.133 C 
HETATM    4  C   UNL     1       5.394  27.183  55.016  1.00  0.00     0.074 C 
HETATM    5  C   UNL     1       5.846  25.917  54.363  1.00  0.00     0.030 A 
HETATM    6  C   UNL     1       7.048  25.299  54.630  1.00  0.00     0.042 A 
HETATM    7  N   UNL     1       7.090  24.160  53.878  1.00  0.00    -0.279 N 
HETATM    8  H   UNL     1       7.823  23.461  53.821  1.00  0.00     0.189 HD
HETATM    9  N   UNL     1       5.957  23.965  53.169  1.00  0.00    -0.149 NA
HETATM   10  C   UNL     1       5.226  25.026  53.486  1.00  0.00     0.190 A 
HETATM   11  C   UNL     1       8.055  25.751  55.610  1.00  0.00     0.097 C 
ENDROOT
BRANCH   4  12
HETATM   12  C   UNL     1       5.104  28.155  53.876  1.00  0.00    -0.048 A 
HETATM   13  C   UNL     1       5.874  28.187  52.696  1.00  0.00     0.009 A 
HETATM   14  C   UNL     1       5.604  29.111  51.683  1.00  0.00     0.019 A 
HETATM   15  C   UNL     1       4.561  30.017  51.840  1.00  0.00     0.011 A 
HETATM   16 BR   UNL     1       4.196  31.271  50.475  1.00  0.00    -0.051 Br
HETATM   17  C   UNL     1       3.787  30.009  52.998  1.00  0.00     0.019 A 
HETATM   18  C   UNL     1       4.059  29.084  54.011  1.00  0.00     0.009 A 
ENDBRANCH   4  12
BRANCH   3  19
HETATM   19  C   UNL     1       7.168  28.911  55.708  1.00  0.00     0.266 C 
HETATM   20  O   UNL     1       8.196  28.881  55.043  1.00  0.00    -0.265 OA
BRANCH  19  21
HETATM   21  O   UNL     1       6.600  30.039  56.219  1.00  0.00    -0.326 OA
HETATM   22  C   UNL     1       6.032  29.881  57.519  1.00  0.00     0.213 C 
ENDBRANCH  19  21
ENDBRANCH   3  19
BRANCH   2  23
HETATM   23  O   UNL     1       8.351  27.202  57.543  1.00  0.00    -0.389 OA
HETATM   24  H   UNL     1       8.797  27.896  57.014  1.00  0.00     0.210 HD
ENDBRANCH   2  23
BRANCH  10  25
HETATM   25  O   UNL     1       4.011  25.062  52.951  1.00  0.00    -0.343 OA
HETATM   26  H   UNL     1       4.092  25.676  52.203  1.00  0.00     0.219 HD
ENDBRANCH  10  25
TORSDOF 5
ENDMDL
MODEL 9
REMARK VINA RESULT:      -6.4     11.497     13.745
REMARK  5 active torsions:
REMARK  status: ('A' for Active; 'I' for Inactive)
REMARK    1  A    between atoms: C_2  and  O_3 
REMARK    2  A    between atoms: C_4  and  C_5 
REMARK    3  A    between atoms: C_5  and  O_6 
REMARK    4  A    between atoms: C_9  and  C_10 
REMARK    5  A    between atoms: C_22  and  O_23 
ROOT
HETATM    1  C   UNL     1       6.836  34.085  65.260  1.00  0.00     0.047 C 
HETATM    2  C   UNL     1       5.320  34.200  65.006  1.00  0.00     0.073 C 
HETATM    3  C   UNL     1       5.016  33.934  63.486  1.00  0.00     0.133 C 
HETATM    4  C   UNL     1       5.383  35.109  62.516  1.00  0.00     0.074 C 
HETATM    5  C   UNL     1       5.499  36.427  63.210  1.00  0.00     0.030 A 
HETATM    6  C   UNL     1       5.218  36.624  64.544  1.00  0.00     0.042 A 
HETATM    7  N   UNL     1       5.474  37.936  64.821  1.00  0.00    -0.279 N 
HETATM    8  H   UNL     1       5.379  38.432  65.701  1.00  0.00     0.189 HD
HETATM    9  N   UNL     1       5.959  38.605  63.753  1.00  0.00    -0.149 NA
HETATM   10  C   UNL     1       5.973  37.677  62.805  1.00  0.00     0.190 A 
HETATM   11  C   UNL     1       4.801  35.582  65.504  1.00  0.00     0.097 C 
ENDROOT
BRANCH   4  12
HETATM   12  C   UNL     1       4.434  35.340  61.344  1.00  0.00    -0.048 A 
HETATM   13  C   UNL     1       3.364  36.255  61.408  1.00  0.00     0.009 A 
HETATM   14  C   UNL     1       2.492  36.421  60.329  1.00  0.00     0.019 A 
HETATM   15  C   UNL     1       2.679  35.671  59.172  1.00  0.00     0.011 A 
HETATM   16 BR   UNL     1       1.499  35.890  57.713  1.00  0.00    -0.051 Br
HETATM   17  C   UNL     1       3.728  34.759  59.085  1.00  0.00     0.019 A 
HETATM   18  C   UNL     1       4.599  34.594  60.166  1.00  0.00     0.009 A 
ENDBRANCH   4  12
BRANCH   3  19
HETATM   19  C   UNL     1       3.590  33.450  63.319  1.00  0.00     0.266 C 
HETATM   20  O   UNL     1       2.612  33.977  63.837  1.00  0.00    -0.265 OA
BRANCH  19  21
HETATM   21  O   UNL     1       3.559  32.321  62.556  1.00  0.00    -0.326 OA
HETATM   22  C   UNL     1       4.784  31.588  62.532  1.00  0.00     0.213 C 
ENDBRANCH  19  21
ENDBRANCH   3  19
BRANCH   2  23
HETATM   23  O   UNL     1       4.740  33.169  65.826  1.00  0.00    -0.389 OA
HETATM   24  H   UNL     1       5.380  32.429  65.872  1.00  0.00     0.210 HD
ENDBRANCH   2  23
BRANCH  10  25
HETATM   25  O   UNL     1       6.464  38.063  61.634  1.00  0.00    -0.343 OA
HETATM   26  H   UNL     1       6.420  39.034  61.659  1.00  0.00     0.219 HD
ENDBRANCH  10  25
TORSDOF 5
ENDMDL
MODEL 10
REMARK VINA RESULT:      -6.4      3.016      4.794
REMARK  5 active torsions:
REMARK  status: ('A' for Active; 'I' for Inactive)
REMARK    1  A    between atoms: C_2  and  O_3 
REMARK    2  A    between atoms: C_4  and  C_5 
REMARK    3  A    between atoms: C_5  and  O_6 
REMARK    4  A    between atoms: C_9  and  C_10 
REMARK    5  A    between atoms: C_22  and  O_23 
ROOT
HETATM    1  C   UNL     1       4.382  24.581  52.857  1.00  0.00     0.047 C 
HETATM    2  C   UNL     1       5.881  24.783  53.157  1.00  0.00     0.073 C 
HETATM    3  C   UNL     1       6.053  25.415  54.587  1.00  0.00     0.133 C 
HETATM    4  C   UNL     1       5.709  26.940  54.689  1.00  0.00     0.074 C 
HETATM    5  C   UNL     1       5.746  27.639  53.369  1.00  0.00     0.030 A 
HETATM    6  C   UNL     1       6.136  27.041  52.191  1.00  0.00     0.042 A 
HETATM    7  N   UNL     1       6.003  27.975  51.203  1.00  0.00    -0.279 N 
HETATM    8  H   UNL     1       6.199  27.884  50.211  1.00  0.00     0.189 HD
HETATM    9  N   UNL     1       5.496  29.141  51.657  1.00  0.00    -0.149 NA
HETATM   10  C   UNL     1       5.342  28.910  52.954  1.00  0.00     0.190 A 
HETATM   11  C   UNL     1       6.539  25.630  52.028  1.00  0.00     0.097 C 
ENDROOT
BRANCH   4  12
HETATM   12  C   UNL     1       6.586  27.771  55.622  1.00  0.00    -0.048 A 
HETATM   13  C   UNL     1       6.226  28.040  56.957  1.00  0.00     0.009 A 
HETATM   14  C   UNL     1       7.034  28.832  57.777  1.00  0.00     0.019 A 
HETATM   15  C   UNL     1       8.213  29.368  57.269  1.00  0.00     0.011 A 
HETATM   16 BR   UNL     1       9.305  30.443  58.373  1.00  0.00    -0.051 Br
HETATM   17  C   UNL     1       8.590  29.120  55.951  1.00  0.00     0.019 A 
HETATM   18  C   UNL     1       7.779  28.327  55.132  1.00  0.00     0.009 A 
ENDBRANCH   4  12
BRANCH   3  19
HETATM   19  C   UNL     1       7.422  25.077  55.142  1.00  0.00     0.266 C 
HETATM   20  O   UNL     1       8.446  25.008  54.473  1.00  0.00    -0.265 OA
BRANCH  19  21
HETATM   21  O   UNL     1       7.340  24.811  56.476  1.00  0.00    -0.326 OA
HETATM   22  C   UNL     1       8.537  25.072  57.208  1.00  0.00     0.213 C 
ENDBRANCH  19  21
ENDBRANCH   3  19
BRANCH   2  23
HETATM   23  O   UNL     1       6.437  23.456  53.119  1.00  0.00    -0.389 OA
HETATM   24  H   UNL     1       6.451  23.113  54.037  1.00  0.00     0.210 HD
ENDBRANCH   2  23
BRANCH  10  25
HETATM   25  O   UNL     1       4.800  29.901  53.650  1.00  0.00    -0.343 OA
HETATM   26  H   UNL     1       3.964  29.535  53.986  1.00  0.00     0.219 HD
ENDBRANCH  10  25
TORSDOF 5
ENDMDL
