MODEL 1
REMARK VINA RESULT:      -9.8      0.000      0.000
REMARK  2 active torsions:
REMARK  status: ('A' for Active; 'I' for Inactive)
REMARK    1  A    between atoms: C_5  and  C_6 
REMARK    2  A    between atoms: C_9  and  C_10 
ROOT
HETATM    1  C   UNL     1       6.381  28.312  55.778  1.00  0.00     0.220 C 
HETATM    2  N   UNL     1       6.557  27.200  54.859  1.00  0.00    -0.126 NA
HETATM    3  N   UNL     1       6.187  26.011  55.560  1.00  0.00    -0.126 NA
HETATM    4  C   UNL     1       5.678  25.071  54.575  1.00  0.00     0.220 C 
HETATM    5  N   UNL     1       5.504  25.877  53.395  1.00  0.00    -0.324 N 
HETATM    6  C   UNL     1       5.945  27.172  53.611  1.00  0.00     0.315 C 
HETATM    7  O   UNL     1       5.750  28.108  52.855  1.00  0.00    -0.252 OA
HETATM    8  C   UNL     1       5.457  26.380  56.685  1.00  0.00     0.315 C 
HETATM    9  O   UNL     1       4.708  25.683  57.346  1.00  0.00    -0.252 OA
HETATM   10  N   UNL     1       5.663  27.735  56.884  1.00  0.00    -0.324 N 
HETATM   11  H   UNL     1       4.965  25.621  52.584  1.00  0.00     0.165 HD
HETATM   12  H   UNL     1       5.168  28.254  57.593  1.00  0.00     0.165 HD
ENDROOT
BRANCH   1  13
HETATM   13  C   UNL     1       7.686  28.914  56.264  1.00  0.00    -0.020 A 
HETATM   14  C   UNL     1       8.791  29.092  55.414  1.00  0.00     0.011 A 
HETATM   15  C   UNL     1      10.003  29.585  55.902  1.00  0.00     0.007 A 
HETATM   16  C   UNL     1      10.146  29.901  57.255  1.00  0.00    -0.062 A 
HETATM   17  C   UNL     1      11.450  30.407  57.794  1.00  0.00     0.048 C 
HETATM   18  C   UNL     1       9.050  29.735  58.109  1.00  0.00     0.007 A 
HETATM   19  C   UNL     1       7.835  29.244  57.621  1.00  0.00     0.011 A 
ENDBRANCH   1  13
BRANCH   4  20
HETATM   20  C   UNL     1       6.625  23.922  54.277  1.00  0.00    -0.020 A 
HETATM   21  C   UNL     1       7.052  23.615  52.975  1.00  0.00     0.011 A 
HETATM   22  C   UNL     1       7.859  22.502  52.723  1.00  0.00     0.007 A 
HETATM   23  C   UNL     1       8.257  21.666  53.769  1.00  0.00    -0.062 A 
HETATM   24  C   UNL     1       9.091  20.448  53.505  1.00  0.00     0.048 C 
HETATM   25  C   UNL     1       7.852  21.971  55.073  1.00  0.00     0.007 A 
HETATM   26  C   UNL     1       7.046  23.085  55.324  1.00  0.00     0.011 A 
ENDBRANCH   4  20
TORSDOF 2
ENDMDL
MODEL 2
REMARK VINA RESULT:      -9.7      0.104      6.595
REMARK  2 active torsions:
REMARK  status: ('A' for Active; 'I' for Inactive)
REMARK    1  A    between atoms: C_5  and  C_6 
REMARK    2  A    between atoms: C_9  and  C_10 
ROOT
HETATM    1  C   UNL     1       5.727  25.150  54.578  1.00  0.00     0.220 C 
HETATM    2  N   UNL     1       6.255  26.099  55.543  1.00  0.00    -0.126 NA
HETATM    3  N   UNL     1       6.613  27.279  54.821  1.00  0.00    -0.126 NA
HETATM    4  C   UNL     1       6.457  28.404  55.729  1.00  0.00     0.220 C 
HETATM    5  N   UNL     1       5.731  27.845  56.839  1.00  0.00    -0.324 N 
HETATM    6  C   UNL     1       5.534  26.485  56.667  1.00  0.00     0.315 C 
HETATM    7  O   UNL     1       4.798  25.797  57.353  1.00  0.00    -0.252 OA
HETATM    8  C   UNL     1       5.992  27.232  53.578  1.00  0.00     0.315 C 
HETATM    9  O   UNL     1       5.783  28.160  52.817  1.00  0.00    -0.252 OA
HETATM   10  N   UNL     1       5.560  25.931  53.381  1.00  0.00    -0.324 N 
HETATM   11  H   UNL     1       5.253  28.371  57.552  1.00  0.00     0.165 HD
HETATM   12  H   UNL     1       5.002  25.667  52.584  1.00  0.00     0.165 HD
ENDROOT
BRANCH   1  13
HETATM   13  C   UNL     1       6.650  23.977  54.308  1.00  0.00    -0.020 A 
HETATM   14  C   UNL     1       7.080  23.646  53.012  1.00  0.00     0.011 A 
HETATM   15  C   UNL     1       7.875  22.520  52.782  1.00  0.00     0.007 A 
HETATM   16  C   UNL     1       8.250  21.690  53.841  1.00  0.00    -0.062 A 
HETATM   17  C   UNL     1       9.082  20.466  53.602  1.00  0.00     0.048 C 
HETATM   18  C   UNL     1       7.834  22.014  55.137  1.00  0.00     0.007 A 
HETATM   19  C   UNL     1       7.041  23.143  55.368  1.00  0.00     0.011 A 
ENDBRANCH   1  13
BRANCH   4  20
HETATM   20  C   UNL     1       7.773  28.985  56.216  1.00  0.00    -0.020 A 
HETATM   21  C   UNL     1       8.886  29.139  55.374  1.00  0.00     0.011 A 
HETATM   22  C   UNL     1      10.108  29.602  55.871  1.00  0.00     0.007 A 
HETATM   23  C   UNL     1      10.247  29.919  57.224  1.00  0.00    -0.062 A 
HETATM   24  C   UNL     1      11.564  30.379  57.774  1.00  0.00     0.048 C 
HETATM   25  C   UNL     1       9.140  29.786  58.069  1.00  0.00     0.007 A 
HETATM   26  C   UNL     1       7.918  29.325  57.571  1.00  0.00     0.011 A 
ENDBRANCH   4  20
TORSDOF 2
ENDMDL
MODEL 3
REMARK VINA RESULT:      -8.8      2.485      5.067
REMARK  2 active torsions:
REMARK  status: ('A' for Active; 'I' for Inactive)
REMARK    1  A    between atoms: C_5  and  C_6 
REMARK    2  A    between atoms: C_9  and  C_10 
ROOT
HETATM    1  C   UNL     1       5.387  28.252  54.090  1.00  0.00     0.220 C 
HETATM    2  N   UNL     1       5.742  26.901  54.489  1.00  0.00    -0.126 NA
HETATM    3  N   UNL     1       7.139  26.740  54.237  1.00  0.00    -0.126 NA
HETATM    4  C   UNL     1       7.644  25.781  55.206  1.00  0.00     0.220 C 
HETATM    5  N   UNL     1       6.570  25.663  56.157  1.00  0.00    -0.324 N 
HETATM    6  C   UNL     1       5.476  26.415  55.764  1.00  0.00     0.315 C 
HETATM    7  O   UNL     1       4.504  26.647  56.462  1.00  0.00    -0.252 OA
HETATM    8  C   UNL     1       7.699  28.003  54.077  1.00  0.00     0.315 C 
HETATM    9  O   UNL     1       8.874  28.311  54.167  1.00  0.00    -0.252 OA
HETATM   10  N   UNL     1       6.658  28.893  53.875  1.00  0.00    -0.324 N 
HETATM   11  H   UNL     1       6.643  25.261  57.078  1.00  0.00     0.165 HD
HETATM   12  H   UNL     1       6.808  29.888  53.819  1.00  0.00     0.165 HD
ENDROOT
BRANCH   1  13
HETATM   13  C   UNL     1       4.553  28.317  52.825  1.00  0.00    -0.020 A 
HETATM   14  C   UNL     1       4.983  27.746  51.615  1.00  0.00     0.011 A 
HETATM   15  C   UNL     1       4.227  27.878  50.448  1.00  0.00     0.007 A 
HETATM   16  C   UNL     1       3.028  28.595  50.458  1.00  0.00    -0.062 A 
HETATM   17  C   UNL     1       2.222  28.764  49.206  1.00  0.00     0.048 C 
HETATM   18  C   UNL     1       2.586  29.160  51.659  1.00  0.00     0.007 A 
HETATM   19  C   UNL     1       3.340  29.026  52.829  1.00  0.00     0.011 A 
ENDBRANCH   1  13
BRANCH   4  20
HETATM   20  C   UNL     1       7.957  24.418  54.614  1.00  0.00    -0.020 A 
HETATM   21  C   UNL     1       7.661  24.089  53.281  1.00  0.00     0.011 A 
HETATM   22  C   UNL     1       7.886  22.801  52.788  1.00  0.00     0.007 A 
HETATM   23  C   UNL     1       8.412  21.808  53.618  1.00  0.00    -0.062 A 
HETATM   24  C   UNL     1       8.622  20.413  53.109  1.00  0.00     0.048 C 
HETATM   25  C   UNL     1       8.727  22.129  54.943  1.00  0.00     0.007 A 
HETATM   26  C   UNL     1       8.503  23.417  55.435  1.00  0.00     0.011 A 
ENDBRANCH   4  20
TORSDOF 2
ENDMDL
MODEL 4
REMARK VINA RESULT:      -8.7      8.613     12.882
REMARK  2 active torsions:
REMARK  status: ('A' for Active; 'I' for Inactive)
REMARK    1  A    between atoms: C_5  and  C_6 
REMARK    2  A    between atoms: C_9  and  C_10 
ROOT
HETATM    1  C   UNL     1       6.291  32.471  63.301  1.00  0.00     0.220 C 
HETATM    2  N   UNL     1       6.188  33.876  63.657  1.00  0.00    -0.126 NA
HETATM    3  N   UNL     1       4.902  34.326  63.229  1.00  0.00    -0.126 NA
HETATM    4  C   UNL     1       4.498  35.393  64.131  1.00  0.00     0.220 C 
HETATM    5  N   UNL     1       5.443  35.300  65.212  1.00  0.00    -0.324 N 
HETATM    6  C   UNL     1       6.391  34.323  64.958  1.00  0.00     0.315 C 
HETATM    7  O   UNL     1       7.194  33.904  65.773  1.00  0.00    -0.252 OA
HETATM    8  C   UNL     1       4.107  33.210  62.993  1.00  0.00     0.315 C 
HETATM    9  O   UNL     1       2.892  33.162  62.932  1.00  0.00    -0.252 OA
HETATM   10  N   UNL     1       4.949  32.112  62.922  1.00  0.00    -0.324 N 
HETATM   11  H   UNL     1       5.343  35.729  66.118  1.00  0.00     0.165 HD
HETATM   12  H   UNL     1       4.597  31.171  62.842  1.00  0.00     0.165 HD
ENDROOT
BRANCH   1  13
HETATM   13  C   UNL     1       7.244  32.200  62.152  1.00  0.00    -0.020 A 
HETATM   14  C   UNL     1       8.625  32.034  62.349  1.00  0.00     0.011 A 
HETATM   15  C   UNL     1       9.491  31.854  61.268  1.00  0.00     0.007 A 
HETATM   16  C   UNL     1       8.998  31.847  59.961  1.00  0.00    -0.062 A 
HETATM   17  C   UNL     1       9.922  31.680  58.791  1.00  0.00     0.048 C 
HETATM   18  C   UNL     1       7.624  32.004  59.753  1.00  0.00     0.007 A 
HETATM   19  C   UNL     1       6.756  32.181  60.836  1.00  0.00     0.011 A 
ENDBRANCH   1  13
BRANCH   4  20
HETATM   20  C   UNL     1       4.562  36.777  63.510  1.00  0.00    -0.020 A 
HETATM   21  C   UNL     1       3.666  37.200  62.515  1.00  0.00     0.011 A 
HETATM   22  C   UNL     1       3.801  38.450  61.905  1.00  0.00     0.007 A 
HETATM   23  C   UNL     1       4.840  39.308  62.273  1.00  0.00    -0.062 A 
HETATM   24  C   UNL     1       5.016  40.635  61.597  1.00  0.00     0.048 C 
HETATM   25  C   UNL     1       5.729  38.905  63.275  1.00  0.00     0.007 A 
HETATM   26  C   UNL     1       5.592  37.656  63.886  1.00  0.00     0.011 A 
ENDBRANCH   4  20
TORSDOF 2
ENDMDL
MODEL 5
REMARK VINA RESULT:      -8.6      8.616     11.639
REMARK  2 active torsions:
REMARK  status: ('A' for Active; 'I' for Inactive)
REMARK    1  A    between atoms: C_5  and  C_6 
REMARK    2  A    between atoms: C_9  and  C_10 
ROOT
HETATM    1  C   UNL     1       4.492  35.396  64.114  1.00  0.00     0.220 C 
HETATM    2  N   UNL     1       4.912  34.326  63.225  1.00  0.00    -0.126 NA
HETATM    3  N   UNL     1       6.182  33.866  63.689  1.00  0.00    -0.126 NA
HETATM    4  C   UNL     1       6.286  32.459  63.337  1.00  0.00     0.220 C 
HETATM    5  N   UNL     1       4.945  32.106  62.953  1.00  0.00    -0.324 N 
HETATM    6  C   UNL     1       4.114  33.214  62.983  1.00  0.00     0.315 C 
HETATM    7  O   UNL     1       2.900  33.174  62.885  1.00  0.00    -0.252 OA
HETATM    8  C   UNL     1       6.361  34.324  64.990  1.00  0.00     0.315 C 
HETATM    9  O   UNL     1       7.136  33.899  65.828  1.00  0.00    -0.252 OA
HETATM   10  N   UNL     1       5.424  35.320  65.209  1.00  0.00    -0.324 N 
HETATM   11  H   UNL     1       4.588  31.169  62.860  1.00  0.00     0.165 HD
HETATM   12  H   UNL     1       5.299  35.749  66.112  1.00  0.00     0.165 HD
ENDROOT
BRANCH   1  13
HETATM   13  C   UNL     1       4.547  36.773  63.480  1.00  0.00    -0.020 A 
HETATM   14  C   UNL     1       3.606  37.196  62.527  1.00  0.00     0.011 A 
HETATM   15  C   UNL     1       3.718  38.443  61.907  1.00  0.00     0.007 A 
HETATM   16  C   UNL     1       4.781  39.294  62.218  1.00  0.00    -0.062 A 
HETATM   17  C   UNL     1       4.925  40.624  61.541  1.00  0.00     0.048 C 
HETATM   18  C   UNL     1       5.720  38.887  63.171  1.00  0.00     0.007 A 
HETATM   19  C   UNL     1       5.607  37.639  63.794  1.00  0.00     0.011 A 
ENDBRANCH   1  13
BRANCH   4  20
HETATM   20  C   UNL     1       7.240  32.183  62.189  1.00  0.00    -0.020 A 
HETATM   21  C   UNL     1       8.620  32.010  62.381  1.00  0.00     0.011 A 
HETATM   22  C   UNL     1       9.484  31.838  61.295  1.00  0.00     0.007 A 
HETATM   23  C   UNL     1       8.988  31.839  59.989  1.00  0.00    -0.062 A 
HETATM   24  C   UNL     1       9.911  31.694  58.816  1.00  0.00     0.048 C 
HETATM   25  C   UNL     1       7.612  31.994  59.787  1.00  0.00     0.007 A 
HETATM   26  C   UNL     1       6.749  32.164  60.873  1.00  0.00     0.011 A 
ENDBRANCH   4  20
TORSDOF 2
ENDMDL
MODEL 6
REMARK VINA RESULT:      -8.4      1.936      2.803
REMARK  2 active torsions:
REMARK  status: ('A' for Active; 'I' for Inactive)
REMARK    1  A    between atoms: C_5  and  C_6 
REMARK    2  A    between atoms: C_9  and  C_10 
ROOT
HETATM    1  C   UNL     1       7.111  29.664  56.296  1.00  0.00     0.220 C 
HETATM    2  N   UNL     1       7.580  28.360  55.857  1.00  0.00    -0.126 NA
HETATM    3  N   UNL     1       6.485  27.452  55.988  1.00  0.00    -0.126 NA
HETATM    4  C   UNL     1       6.653  26.426  54.971  1.00  0.00     0.220 C 
HETATM    5  N   UNL     1       7.676  26.963  54.113  1.00  0.00    -0.324 N 
HETATM    6  C   UNL     1       8.153  28.167  54.605  1.00  0.00     0.315 C 
HETATM    7  O   UNL     1       8.883  28.927  53.994  1.00  0.00    -0.252 OA
HETATM    8  C   UNL     1       5.317  28.196  56.111  1.00  0.00     0.315 C 
HETATM    9  O   UNL     1       4.174  27.820  55.924  1.00  0.00    -0.252 OA
HETATM   10  N   UNL     1       5.686  29.498  56.408  1.00  0.00    -0.324 N 
HETATM   11  H   UNL     1       7.896  26.637  53.186  1.00  0.00     0.165 HD
HETATM   12  H   UNL     1       5.013  30.246  56.460  1.00  0.00     0.165 HD
ENDROOT
BRANCH   1  13
HETATM   13  C   UNL     1       7.689  30.103  57.628  1.00  0.00    -0.020 A 
HETATM   14  C   UNL     1       6.933  30.818  58.572  1.00  0.00     0.011 A 
HETATM   15  C   UNL     1       7.508  31.271  59.762  1.00  0.00     0.007 A 
HETATM   16  C   UNL     1       8.857  31.031  60.032  1.00  0.00    -0.062 A 
HETATM   17  C   UNL     1       9.490  31.534  61.294  1.00  0.00     0.048 C 
HETATM   18  C   UNL     1       9.618  30.314  59.102  1.00  0.00     0.007 A 
HETATM   19  C   UNL     1       9.042  29.857  57.912  1.00  0.00     0.011 A 
ENDBRANCH   1  13
BRANCH   4  20
HETATM   20  C   UNL     1       7.096  25.083  55.522  1.00  0.00    -0.020 A 
HETATM   21  C   UNL     1       7.760  24.956  56.753  1.00  0.00     0.011 A 
HETATM   22  C   UNL     1       8.228  23.716  57.196  1.00  0.00     0.007 A 
HETATM   23  C   UNL     1       8.048  22.571  56.415  1.00  0.00    -0.062 A 
HETATM   24  C   UNL     1       8.580  21.243  56.863  1.00  0.00     0.048 C 
HETATM   25  C   UNL     1       7.373  22.683  55.195  1.00  0.00     0.007 A 
HETATM   26  C   UNL     1       6.903  23.923  54.754  1.00  0.00     0.011 A 
ENDBRANCH   4  20
TORSDOF 2
ENDMDL
MODEL 7
REMARK VINA RESULT:      -8.1     13.020     15.544
REMARK  2 active torsions:
REMARK  status: ('A' for Active; 'I' for Inactive)
REMARK    1  A    between atoms: C_5  and  C_6 
REMARK    2  A    between atoms: C_9  and  C_10 
ROOT
HETATM    1  C   UNL     1       5.325  34.238  67.190  1.00  0.00     0.220 C 
HETATM    2  N   UNL     1       4.989  35.392  66.374  1.00  0.00    -0.126 NA
HETATM    3  N   UNL     1       5.738  35.284  65.162  1.00  0.00    -0.126 NA
HETATM    4  C   UNL     1       4.961  35.932  64.117  1.00  0.00     0.220 C 
HETATM    5  N   UNL     1       3.669  36.119  64.721  1.00  0.00    -0.324 N 
HETATM    6  C   UNL     1       3.675  35.703  66.042  1.00  0.00     0.315 C 
HETATM    7  O   UNL     1       2.681  35.574  66.735  1.00  0.00    -0.252 OA
HETATM    8  C   UNL     1       6.193  33.976  65.049  1.00  0.00     0.315 C 
HETATM    9  O   UNL     1       6.578  33.407  64.042  1.00  0.00    -0.252 OA
HETATM   10  N   UNL     1       6.053  33.381  66.292  1.00  0.00    -0.324 N 
HETATM   11  H   UNL     1       2.816  36.334  64.230  1.00  0.00     0.165 HD
HETATM   12  H   UNL     1       6.238  32.401  66.441  1.00  0.00     0.165 HD
ENDROOT
BRANCH   1  13
HETATM   13  C   UNL     1       6.181  34.572  68.397  1.00  0.00    -0.020 A 
HETATM   14  C   UNL     1       7.584  34.625  68.328  1.00  0.00     0.011 A 
HETATM   15  C   UNL     1       8.353  34.868  69.469  1.00  0.00     0.007 A 
HETATM   16  C   UNL     1       7.739  35.052  70.710  1.00  0.00    -0.062 A 
HETATM   17  C   UNL     1       8.556  35.288  71.945  1.00  0.00     0.048 C 
HETATM   18  C   UNL     1       6.343  35.010  70.789  1.00  0.00     0.007 A 
HETATM   19  C   UNL     1       5.572  34.770  69.646  1.00  0.00     0.011 A 
ENDBRANCH   1  13
BRANCH   4  20
HETATM   20  C   UNL     1       5.523  37.273  63.679  1.00  0.00    -0.020 A 
HETATM   21  C   UNL     1       6.007  37.500  62.380  1.00  0.00     0.011 A 
HETATM   22  C   UNL     1       6.592  38.720  62.031  1.00  0.00     0.007 A 
HETATM   23  C   UNL     1       6.712  39.744  62.974  1.00  0.00    -0.062 A 
HETATM   24  C   UNL     1       7.373  41.042  62.619  1.00  0.00     0.048 C 
HETATM   25  C   UNL     1       6.218  39.535  64.266  1.00  0.00     0.007 A 
HETATM   26  C   UNL     1       5.631  38.316  64.615  1.00  0.00     0.011 A 
ENDBRANCH   4  20
TORSDOF 2
ENDMDL
MODEL 8
REMARK VINA RESULT:      -8.0      9.737     13.605
REMARK  2 active torsions:
REMARK  status: ('A' for Active; 'I' for Inactive)
REMARK    1  A    between atoms: C_5  and  C_6 
REMARK    2  A    between atoms: C_9  and  C_10 
ROOT
HETATM    1  C   UNL     1       5.166  34.514  62.440  1.00  0.00     0.220 C 
HETATM    2  N   UNL     1       4.731  34.320  63.813  1.00  0.00    -0.126 NA
HETATM    3  N   UNL     1       5.242  35.414  64.575  1.00  0.00    -0.126 NA
HETATM    4  C   UNL     1       4.314  35.647  65.670  1.00  0.00     0.220 C 
HETATM    5  N   UNL     1       3.161  34.866  65.309  1.00  0.00    -0.324 N 
HETATM    6  C   UNL     1       3.391  34.153  64.144  1.00  0.00     0.315 C 
HETATM    7  O   UNL     1       2.535  33.559  63.512  1.00  0.00    -0.252 OA
HETATM    8  C   UNL     1       5.620  36.419  63.693  1.00  0.00     0.315 C 
HETATM    9  O   UNL     1       5.794  37.599  63.940  1.00  0.00    -0.252 OA
HETATM   10  N   UNL     1       5.686  35.856  62.429  1.00  0.00    -0.324 N 
HETATM   11  H   UNL     1       2.242  34.955  65.712  1.00  0.00     0.165 HD
HETATM   12  H   UNL     1       5.858  36.409  61.604  1.00  0.00     0.165 HD
ENDROOT
BRANCH   1  13
HETATM   13  C   UNL     1       6.239  33.538  61.996  1.00  0.00    -0.020 A 
HETATM   14  C   UNL     1       6.215  32.921  60.734  1.00  0.00     0.011 A 
HETATM   15  C   UNL     1       7.177  31.974  60.375  1.00  0.00     0.007 A 
HETATM   16  C   UNL     1       8.182  31.611  61.275  1.00  0.00    -0.062 A 
HETATM   17  C   UNL     1       9.205  30.578  60.910  1.00  0.00     0.048 C 
HETATM   18  C   UNL     1       8.221  32.224  62.532  1.00  0.00     0.007 A 
HETATM   19  C   UNL     1       7.259  33.175  62.891  1.00  0.00     0.011 A 
ENDBRANCH   1  13
BRANCH   4  20
HETATM   20  C   UNL     1       4.836  35.196  67.023  1.00  0.00    -0.020 A 
HETATM   21  C   UNL     1       5.855  35.883  67.705  1.00  0.00     0.011 A 
HETATM   22  C   UNL     1       6.371  35.398  68.909  1.00  0.00     0.007 A 
HETATM   23  C   UNL     1       5.883  34.210  69.461  1.00  0.00    -0.062 A 
HETATM   24  C   UNL     1       6.457  33.662  70.733  1.00  0.00     0.048 C 
HETATM   25  C   UNL     1       4.857  33.527  68.800  1.00  0.00     0.007 A 
HETATM   26  C   UNL     1       4.340  34.014  67.596  1.00  0.00     0.011 A 
ENDBRANCH   4  20
TORSDOF 2
ENDMDL
MODEL 9
REMARK VINA RESULT:      -7.9      8.061     12.472
REMARK  2 active torsions:
REMARK  status: ('A' for Active; 'I' for Inactive)
REMARK    1  A    between atoms: C_5  and  C_6 
REMARK    2  A    between atoms: C_9  and  C_10 
ROOT
HETATM    1  C   UNL     1       5.238  32.642  61.098  1.00  0.00     0.220 C 
HETATM    2  N   UNL     1       5.406  33.659  62.122  1.00  0.00    -0.126 NA
HETATM    3  N   UNL     1       4.771  34.846  61.645  1.00  0.00    -0.126 NA
HETATM    4  C   UNL     1       4.304  35.582  62.809  1.00  0.00     0.220 C 
HETATM    5  N   UNL     1       4.432  34.634  63.884  1.00  0.00    -0.324 N 
HETATM    6  C   UNL     1       5.005  33.454  63.437  1.00  0.00     0.315 C 
HETATM    7  O   UNL     1       5.062  32.422  64.082  1.00  0.00    -0.252 OA
HETATM    8  C   UNL     1       3.926  34.496  60.598  1.00  0.00     0.315 C 
HETATM    9  O   UNL     1       2.994  35.138  60.148  1.00  0.00    -0.252 OA
HETATM   10  N   UNL     1       4.279  33.219  60.193  1.00  0.00    -0.324 N 
HETATM   11  H   UNL     1       4.001  34.712  64.791  1.00  0.00     0.165 HD
HETATM   12  H   UNL     1       3.752  32.712  59.499  1.00  0.00     0.165 HD
ENDROOT
BRANCH   1  13
HETATM   13  C   UNL     1       6.517  32.306  60.355  1.00  0.00    -0.020 A 
HETATM   14  C   UNL     1       6.512  31.611  59.134  1.00  0.00     0.011 A 
HETATM   15  C   UNL     1       7.707  31.254  58.504  1.00  0.00     0.007 A 
HETATM   16  C   UNL     1       8.936  31.572  59.086  1.00  0.00    -0.062 A 
HETATM   17  C   UNL     1      10.224  31.171  58.431  1.00  0.00     0.048 C 
HETATM   18  C   UNL     1       8.953  32.270  60.298  1.00  0.00     0.007 A 
HETATM   19  C   UNL     1       7.757  32.631  60.928  1.00  0.00     0.011 A 
ENDBRANCH   1  13
BRANCH   4  20
HETATM   20  C   UNL     1       5.123  36.823  63.119  1.00  0.00    -0.020 A 
HETATM   21  C   UNL     1       5.108  37.441  64.379  1.00  0.00     0.011 A 
HETATM   22  C   UNL     1       5.808  38.629  64.610  1.00  0.00     0.007 A 
HETATM   23  C   UNL     1       6.538  39.230  63.582  1.00  0.00    -0.062 A 
HETATM   24  C   UNL     1       7.261  40.524  63.809  1.00  0.00     0.048 C 
HETATM   25  C   UNL     1       6.574  38.615  62.326  1.00  0.00     0.007 A 
HETATM   26  C   UNL     1       5.875  37.426  62.097  1.00  0.00     0.011 A 
ENDBRANCH   4  20
TORSDOF 2
ENDMDL
MODEL 10
REMARK VINA RESULT:      -7.9      2.730      6.546
REMARK  2 active torsions:
REMARK  status: ('A' for Active; 'I' for Inactive)
REMARK    1  A    between atoms: C_5  and  C_6 
REMARK    2  A    between atoms: C_9  and  C_10 
ROOT
HETATM    1  C   UNL     1       4.513  26.727  52.889  1.00  0.00     0.220 C 
HETATM    2  N   UNL     1       5.658  26.744  53.783  1.00  0.00    -0.126 NA
HETATM    3  N   UNL     1       5.460  27.821  54.701  1.00  0.00    -0.126 NA
HETATM    4  C   UNL     1       6.121  27.456  55.943  1.00  0.00     0.220 C 
HETATM    5  N   UNL     1       6.412  26.057  55.774  1.00  0.00    -0.324 N 
HETATM    6  C   UNL     1       6.041  25.623  54.511  1.00  0.00     0.315 C 
HETATM    7  O   UNL     1       6.001  24.457  54.161  1.00  0.00    -0.252 OA
HETATM    8  C   UNL     1       4.121  28.193  54.650  1.00  0.00     0.315 C 
HETATM    9  O   UNL     1       3.495  28.828  55.480  1.00  0.00    -0.252 OA
HETATM   10  N   UNL     1       3.580  27.633  53.505  1.00  0.00    -0.324 N 
HETATM   11  H   UNL     1       6.665  25.416  56.509  1.00  0.00     0.165 HD
HETATM   12  H   UNL     1       2.596  27.691  53.294  1.00  0.00     0.165 HD
ENDROOT
BRANCH   1  13
HETATM   13  C   UNL     1       4.832  27.189  51.480  1.00  0.00    -0.020 A 
HETATM   14  C   UNL     1       5.198  28.514  51.192  1.00  0.00     0.011 A 
HETATM   15  C   UNL     1       5.421  28.932  49.877  1.00  0.00     0.007 A 
HETATM   16  C   UNL     1       5.270  28.036  48.816  1.00  0.00    -0.062 A 
HETATM   17  C   UNL     1       5.481  28.480  47.400  1.00  0.00     0.048 C 
HETATM   18  C   UNL     1       4.913  26.712  49.091  1.00  0.00     0.007 A 
HETATM   19  C   UNL     1       4.693  26.293  50.408  1.00  0.00     0.011 A 
ENDBRANCH   1  13
BRANCH   4  20
HETATM   20  C   UNL     1       7.407  28.221  56.201  1.00  0.00    -0.020 A 
HETATM   21  C   UNL     1       8.272  28.612  55.167  1.00  0.00     0.011 A 
HETATM   22  C   UNL     1       9.488  29.243  55.442  1.00  0.00     0.007 A 
HETATM   23  C   UNL     1       9.872  29.495  56.762  1.00  0.00    -0.062 A 
HETATM   24  C   UNL     1      11.191  30.137  57.069  1.00  0.00     0.048 C 
HETATM   25  C   UNL     1       9.010  29.125  57.800  1.00  0.00     0.007 A 
HETATM   26  C   UNL     1       7.793  28.496  57.524  1.00  0.00     0.011 A 
ENDBRANCH   4  20
TORSDOF 2
ENDMDL
