MODEL 1
REMARK VINA RESULT:     -10.1      0.000      0.000
REMARK  4 active torsions:
REMARK  status: ('A' for Active; 'I' for Inactive)
REMARK    1  A    between atoms: O_2  and  C_3 
REMARK    2  A    between atoms: C_9  and  C_13 
REMARK    3  A    between atoms: C_19  and  C_24 
REMARK    4  A    between atoms: C_28  and  N_29 
ROOT
HETATM    1  C   UNL     1       6.487  27.312  55.127  1.00  0.00     0.112 A 
HETATM    2  N   UNL     1       7.600  27.858  54.677  1.00  0.00    -0.230 NA
HETATM    3  C   UNL     1       8.113  28.590  55.727  1.00  0.00     0.124 A 
HETATM    4  C   UNL     1       9.267  29.380  55.828  1.00  0.00     0.148 A 
HETATM    5  F   UNL     1      10.104  29.525  54.790  1.00  0.00    -0.203 F 
HETATM    6  C   UNL     1       9.561  30.032  57.032  1.00  0.00     0.058 A 
HETATM    7  C   UNL     1       8.724  29.921  58.158  1.00  0.00    -0.002 A 
HETATM    8  C   UNL     1       7.563  29.120  58.058  1.00  0.00     0.046 A 
HETATM    9  C   UNL     1       7.292  28.483  56.842  1.00  0.00     0.066 A 
HETATM   10  N   UNL     1       6.268  27.669  56.437  1.00  0.00    -0.342 N 
HETATM   11  H   UNL     1       5.477  27.381  56.999  1.00  0.00     0.167 HD
ENDROOT
BRANCH   1  12
HETATM   12  C   UNL     1       5.551  26.445  54.329  1.00  0.00     0.084 C 
HETATM   13  C   UNL     1       5.897  26.391  52.841  1.00  0.00     0.188 C 
HETATM   14  O   UNL     1       7.149  25.744  52.568  1.00  0.00    -0.350 OA
HETATM   15  C   UNL     1       7.342  24.557  53.222  1.00  0.00     0.075 A 
HETATM   16  C   UNL     1       8.384  23.763  52.751  1.00  0.00     0.040 A 
HETATM   17  C   UNL     1       6.608  24.163  54.344  1.00  0.00    -0.021 A 
HETATM   18  C   UNL     1       8.680  22.554  53.383  1.00  0.00     0.039 A 
HETATM   19  C   UNL     1       7.938  22.131  54.487  1.00  0.00     0.068 A 
HETATM   20  C   UNL     1       6.904  22.937  54.965  1.00  0.00     0.046 A 
HETATM   21  C   UNL     1       5.495  25.021  54.882  1.00  0.00     0.056 C 
BRANCH  19  22
HETATM   22  O   UNL     1       8.327  20.927  55.008  1.00  0.00    -0.356 OA
HETATM   23  C   UNL     1       7.994  20.676  56.368  1.00  0.00     0.210 C 
ENDBRANCH  19  22
ENDBRANCH   1  12
BRANCH   7  24
HETATM   24  C   UNL     1       9.035  30.609  59.429  1.00  0.00     0.072 A 
HETATM   25  C   UNL     1       9.580  31.877  59.485  1.00  0.00     0.052 A 
HETATM   26  C   UNL     1       9.810  32.382  60.741  1.00  0.00     0.122 A 
HETATM   27  N   UNL     1       9.533  31.711  61.872  1.00  0.00    -0.231 NA
HETATM   28  C   UNL     1       8.988  30.503  61.724  1.00  0.00     0.199 A 
HETATM   29  N   UNL     1       8.738  29.916  60.552  1.00  0.00    -0.218 NA
BRANCH  28  30
HETATM   30  N   UNL     1       8.710  29.785  62.869  1.00  0.00    -0.271 NA
HETATM   31  H   UNL     1       8.484  30.424  63.617  1.00  0.00     0.127 HD
HETATM   32  H   UNL     1       9.452  29.121  63.036  1.00  0.00     0.127 HD
ENDBRANCH  28  30
ENDBRANCH   7  24
TORSDOF 4
ENDMDL
MODEL 2
REMARK VINA RESULT:      -9.9      5.605      8.542
REMARK  4 active torsions:
REMARK  status: ('A' for Active; 'I' for Inactive)
REMARK    1  A    between atoms: O_2  and  C_3 
REMARK    2  A    between atoms: C_9  and  C_13 
REMARK    3  A    between atoms: C_19  and  C_24 
REMARK    4  A    between atoms: C_28  and  N_29 
ROOT
HETATM    1  C   UNL     1       5.403  28.245  52.021  1.00  0.00     0.112 A 
HETATM    2  N   UNL     1       5.082  28.093  53.290  1.00  0.00    -0.230 NA
HETATM    3  C   UNL     1       5.568  26.857  53.659  1.00  0.00     0.124 A 
HETATM    4  C   UNL     1       5.517  26.167  54.878  1.00  0.00     0.148 A 
HETATM    5  F   UNL     1       4.920  26.702  55.954  1.00  0.00    -0.203 F 
HETATM    6  C   UNL     1       6.099  24.897  54.986  1.00  0.00     0.058 A 
HETATM    7  C   UNL     1       6.739  24.282  53.894  1.00  0.00    -0.002 A 
HETATM    8  C   UNL     1       6.796  24.979  52.666  1.00  0.00     0.046 A 
HETATM    9  C   UNL     1       6.203  26.245  52.586  1.00  0.00     0.066 A 
HETATM   10  N   UNL     1       6.085  27.143  51.559  1.00  0.00    -0.342 N 
HETATM   11  H   UNL     1       6.432  27.021  50.616  1.00  0.00     0.167 HD
ENDROOT
BRANCH   1  12
HETATM   12  C   UNL     1       5.055  29.432  51.164  1.00  0.00     0.084 C 
HETATM   13  C   UNL     1       5.901  29.531  49.895  1.00  0.00     0.188 C 
HETATM   14  O   UNL     1       5.667  28.462  48.966  1.00  0.00    -0.350 OA
HETATM   15  C   UNL     1       4.348  28.180  48.729  1.00  0.00     0.075 A 
HETATM   16  C   UNL     1       4.086  27.378  47.621  1.00  0.00     0.040 A 
HETATM   17  C   UNL     1       3.307  28.590  49.566  1.00  0.00    -0.021 A 
HETATM   18  C   UNL     1       2.773  27.007  47.326  1.00  0.00     0.039 A 
HETATM   19  C   UNL     1       1.716  27.431  48.134  1.00  0.00     0.068 A 
HETATM   20  C   UNL     1       1.986  28.222  49.252  1.00  0.00     0.046 A 
HETATM   21  C   UNL     1       3.575  29.435  50.781  1.00  0.00     0.056 C 
BRANCH  19  22
HETATM   22  O   UNL     1       0.482  27.002  47.731  1.00  0.00    -0.356 OA
HETATM   23  C   UNL     1       0.011  27.482  46.477  1.00  0.00     0.210 C 
ENDBRANCH  19  22
ENDBRANCH   1  12
BRANCH   7  24
HETATM   24  C   UNL     1       7.353  22.942  54.008  1.00  0.00     0.072 A 
HETATM   25  C   UNL     1       7.783  22.216  52.914  1.00  0.00     0.052 A 
HETATM   26  C   UNL     1       8.336  20.988  53.183  1.00  0.00     0.122 A 
HETATM   27  N   UNL     1       8.467  20.489  54.423  1.00  0.00    -0.231 NA
HETATM   28  C   UNL     1       8.046  21.268  55.421  1.00  0.00     0.199 A 
HETATM   29  N   UNL     1       7.482  22.468  55.268  1.00  0.00    -0.218 NA
BRANCH  28  30
HETATM   30  N   UNL     1       8.152  20.773  56.704  1.00  0.00    -0.271 NA
HETATM   31  H   UNL     1       8.342  21.533  57.341  1.00  0.00     0.127 HD
HETATM   32  H   UNL     1       8.794  19.993  56.711  1.00  0.00     0.127 HD
ENDBRANCH  28  30
ENDBRANCH   7  24
TORSDOF 4
ENDMDL
MODEL 3
REMARK VINA RESULT:      -9.9      5.283      8.254
REMARK  4 active torsions:
REMARK  status: ('A' for Active; 'I' for Inactive)
REMARK    1  A    between atoms: O_2  and  C_3 
REMARK    2  A    between atoms: C_9  and  C_13 
REMARK    3  A    between atoms: C_19  and  C_24 
REMARK    4  A    between atoms: C_28  and  N_29 
ROOT
HETATM    1  C   UNL     1       4.870  27.586  53.250  1.00  0.00     0.112 A 
HETATM    2  N   UNL     1       5.100  27.403  54.536  1.00  0.00    -0.230 NA
HETATM    3  C   UNL     1       5.737  26.185  54.637  1.00  0.00     0.124 A 
HETATM    4  C   UNL     1       6.212  25.478  55.750  1.00  0.00     0.148 A 
HETATM    5  F   UNL     1       6.087  25.971  56.991  1.00  0.00    -0.203 F 
HETATM    6  C   UNL     1       6.831  24.234  55.574  1.00  0.00     0.058 A 
HETATM    7  C   UNL     1       6.991  23.662  54.298  1.00  0.00    -0.002 A 
HETATM    8  C   UNL     1       6.518  24.377  53.174  1.00  0.00     0.046 A 
HETATM    9  C   UNL     1       5.901  25.616  53.381  1.00  0.00     0.066 A 
HETATM   10  N   UNL     1       5.343  26.522  52.518  1.00  0.00    -0.342 N 
HETATM   11  H   UNL     1       5.279  26.427  51.512  1.00  0.00     0.167 HD
ENDROOT
BRANCH   1  12
HETATM   12  C   UNL     1       4.162  28.768  52.645  1.00  0.00     0.084 C 
HETATM   13  C   UNL     1       5.116  29.828  52.095  1.00  0.00     0.188 C 
HETATM   14  O   UNL     1       5.882  29.379  50.968  1.00  0.00    -0.350 OA
HETATM   15  C   UNL     1       5.163  28.730  50.000  1.00  0.00     0.075 A 
HETATM   16  C   UNL     1       5.802  28.560  48.775  1.00  0.00     0.040 A 
HETATM   17  C   UNL     1       3.892  28.188  50.213  1.00  0.00    -0.021 A 
HETATM   18  C   UNL     1       5.159  27.874  47.743  1.00  0.00     0.039 A 
HETATM   19  C   UNL     1       3.878  27.352  47.928  1.00  0.00     0.068 A 
HETATM   20  C   UNL     1       3.247  27.511  49.163  1.00  0.00     0.046 A 
HETATM   21  C   UNL     1       3.197  28.340  51.539  1.00  0.00     0.056 C 
BRANCH  19  22
HETATM   22  O   UNL     1       3.361  26.709  46.838  1.00  0.00    -0.356 OA
HETATM   23  C   UNL     1       2.832  25.405  47.049  1.00  0.00     0.210 C 
ENDBRANCH  19  22
ENDBRANCH   1  12
BRANCH   7  24
HETATM   24  C   UNL     1       7.645  22.349  54.111  1.00  0.00     0.072 A 
HETATM   25  C   UNL     1       7.719  21.712  52.888  1.00  0.00     0.052 A 
HETATM   26  C   UNL     1       8.361  20.498  52.876  1.00  0.00     0.122 A 
HETATM   27  N   UNL     1       8.899  19.932  53.970  1.00  0.00    -0.231 NA
HETATM   28  C   UNL     1       8.802  20.629  55.103  1.00  0.00     0.199 A 
HETATM   29  N   UNL     1       8.187  21.807  55.226  1.00  0.00    -0.218 NA
BRANCH  28  30
HETATM   30  N   UNL     1       9.330  20.063  56.245  1.00  0.00    -0.271 NA
HETATM   31  H   UNL     1       9.384  20.764  56.971  1.00  0.00     0.127 HD
HETATM   32  H   UNL     1      10.181  19.571  56.014  1.00  0.00     0.127 HD
ENDBRANCH  28  30
ENDBRANCH   7  24
TORSDOF 4
ENDMDL
MODEL 4
REMARK VINA RESULT:      -9.0      3.692      5.554
REMARK  4 active torsions:
REMARK  status: ('A' for Active; 'I' for Inactive)
REMARK    1  A    between atoms: O_2  and  C_3 
REMARK    2  A    between atoms: C_9  and  C_13 
REMARK    3  A    between atoms: C_19  and  C_24 
REMARK    4  A    between atoms: C_28  and  N_29 
ROOT
HETATM    1  C   UNL     1       8.276  30.685  58.400  1.00  0.00     0.112 A 
HETATM    2  N   UNL     1       9.045  30.195  59.352  1.00  0.00    -0.230 NA
HETATM    3  C   UNL     1       8.583  30.742  60.531  1.00  0.00     0.124 A 
HETATM    4  C   UNL     1       9.014  30.587  61.856  1.00  0.00     0.148 A 
HETATM    5  F   UNL     1      10.049  29.789  62.160  1.00  0.00    -0.203 F 
HETATM    6  C   UNL     1       8.359  31.272  62.887  1.00  0.00     0.058 A 
HETATM    7  C   UNL     1       7.268  32.124  62.632  1.00  0.00    -0.002 A 
HETATM    8  C   UNL     1       6.829  32.276  61.297  1.00  0.00     0.046 A 
HETATM    9  C   UNL     1       7.504  31.582  60.287  1.00  0.00     0.066 A 
HETATM   10  N   UNL     1       7.329  31.531  58.930  1.00  0.00    -0.342 N 
HETATM   11  H   UNL     1       6.628  32.033  58.399  1.00  0.00     0.167 HD
ENDROOT
BRANCH   1  12
HETATM   12  C   UNL     1       8.414  30.402  56.928  1.00  0.00     0.084 C 
HETATM   13  C   UNL     1       9.693  29.643  56.577  1.00  0.00     0.188 C 
HETATM   14  O   UNL     1       9.730  28.309  57.103  1.00  0.00    -0.350 OA
HETATM   15  C   UNL     1       8.587  27.579  56.912  1.00  0.00     0.075 A 
HETATM   16  C   UNL     1       8.695  26.208  57.126  1.00  0.00     0.040 A 
HETATM   17  C   UNL     1       7.350  28.148  56.597  1.00  0.00    -0.021 A 
HETATM   18  C   UNL     1       7.570  25.392  56.994  1.00  0.00     0.039 A 
HETATM   19  C   UNL     1       6.333  25.939  56.651  1.00  0.00     0.068 A 
HETATM   20  C   UNL     1       6.226  27.316  56.453  1.00  0.00     0.046 A 
HETATM   21  C   UNL     1       7.209  29.632  56.388  1.00  0.00     0.056 C 
BRANCH  19  22
HETATM   22  O   UNL     1       5.316  25.030  56.549  1.00  0.00    -0.356 OA
HETATM   23  C   UNL     1       4.310  25.073  57.554  1.00  0.00     0.210 C 
ENDBRANCH  19  22
ENDBRANCH   1  12
BRANCH   7  24
HETATM   24  C   UNL     1       6.576  32.847  63.721  1.00  0.00     0.072 A 
HETATM   25  C   UNL     1       7.227  33.312  64.847  1.00  0.00     0.052 A 
HETATM   26  C   UNL     1       6.447  33.967  65.768  1.00  0.00     0.122 A 
HETATM   27  N   UNL     1       5.126  34.163  65.617  1.00  0.00    -0.231 NA
HETATM   28  C   UNL     1       4.586  33.700  64.489  1.00  0.00     0.199 A 
HETATM   29  N   UNL     1       5.250  33.039  63.539  1.00  0.00    -0.218 NA
BRANCH  28  30
HETATM   30  N   UNL     1       3.228  33.871  64.316  1.00  0.00    -0.271 NA
HETATM   31  H   UNL     1       2.817  34.179  65.185  1.00  0.00     0.127 HD
HETATM   32  H   UNL     1       2.837  33.045  63.887  1.00  0.00     0.127 HD
ENDBRANCH  28  30
ENDBRANCH   7  24
TORSDOF 4
ENDMDL
MODEL 5
REMARK VINA RESULT:      -9.0      4.229      9.196
REMARK  4 active torsions:
REMARK  status: ('A' for Active; 'I' for Inactive)
REMARK    1  A    between atoms: O_2  and  C_3 
REMARK    2  A    between atoms: C_9  and  C_13 
REMARK    3  A    between atoms: C_19  and  C_24 
REMARK    4  A    between atoms: C_28  and  N_29 
ROOT
HETATM    1  C   UNL     1       5.822  26.067  55.179  1.00  0.00     0.112 A 
HETATM    2  N   UNL     1       6.622  25.463  54.322  1.00  0.00    -0.230 NA
HETATM    3  C   UNL     1       6.185  25.837  53.068  1.00  0.00     0.124 A 
HETATM    4  C   UNL     1       6.648  25.501  51.788  1.00  0.00     0.148 A 
HETATM    5  F   UNL     1       7.697  24.682  51.621  1.00  0.00    -0.203 F 
HETATM    6  C   UNL     1       6.010  26.026  50.657  1.00  0.00     0.058 A 
HETATM    7  C   UNL     1       4.904  26.890  50.765  1.00  0.00    -0.002 A 
HETATM    8  C   UNL     1       4.441  27.234  52.056  1.00  0.00     0.046 A 
HETATM    9  C   UNL     1       5.095  26.692  53.168  1.00  0.00     0.066 A 
HETATM   10  N   UNL     1       4.883  26.822  54.515  1.00  0.00    -0.342 N 
HETATM   11  H   UNL     1       4.156  27.372  54.954  1.00  0.00     0.167 HD
ENDROOT
BRANCH   1  12
HETATM   12  C   UNL     1       5.885  25.939  56.677  1.00  0.00     0.084 C 
HETATM   13  C   UNL     1       7.258  25.507  57.190  1.00  0.00     0.188 C 
HETATM   14  O   UNL     1       8.285  26.484  56.970  1.00  0.00    -0.350 OA
HETATM   15  C   UNL     1       7.948  27.766  57.312  1.00  0.00     0.075 A 
HETATM   16  C   UNL     1       9.002  28.670  57.405  1.00  0.00     0.040 A 
HETATM   17  C   UNL     1       6.631  28.198  57.492  1.00  0.00    -0.021 A 
HETATM   18  C   UNL     1       8.747  30.008  57.710  1.00  0.00     0.039 A 
HETATM   19  C   UNL     1       7.440  30.451  57.922  1.00  0.00     0.068 A 
HETATM   20  C   UNL     1       6.385  29.544  57.812  1.00  0.00     0.046 A 
HETATM   21  C   UNL     1       5.477  27.239  57.370  1.00  0.00     0.056 C 
BRANCH  19  22
HETATM   22  O   UNL     1       7.330  31.782  58.217  1.00  0.00    -0.356 OA
HETATM   23  C   UNL     1       6.870  32.117  59.522  1.00  0.00     0.210 C 
ENDBRANCH  19  22
ENDBRANCH   1  12
BRANCH   7  24
HETATM   24  C   UNL     1       4.232  27.445  49.571  1.00  0.00     0.072 A 
HETATM   25  C   UNL     1       3.992  28.795  49.402  1.00  0.00     0.052 A 
HETATM   26  C   UNL     1       3.360  29.155  48.238  1.00  0.00     0.122 A 
HETATM   27  N   UNL     1       2.983  28.275  47.295  1.00  0.00    -0.231 NA
HETATM   28  C   UNL     1       3.275  26.995  47.531  1.00  0.00     0.199 A 
HETATM   29  N   UNL     1       3.872  26.539  48.634  1.00  0.00    -0.218 NA
BRANCH  28  30
HETATM   30  N   UNL     1       2.884  26.068  46.588  1.00  0.00    -0.271 NA
HETATM   31  H   UNL     1       2.969  26.472  45.666  1.00  0.00     0.127 HD
HETATM   32  H   UNL     1       1.984  25.688  46.844  1.00  0.00     0.127 HD
ENDBRANCH  28  30
ENDBRANCH   7  24
TORSDOF 4
ENDMDL
MODEL 6
REMARK VINA RESULT:      -8.8      4.969      7.641
REMARK  4 active torsions:
REMARK  status: ('A' for Active; 'I' for Inactive)
REMARK    1  A    between atoms: O_2  and  C_3 
REMARK    2  A    between atoms: C_9  and  C_13 
REMARK    3  A    between atoms: C_19  and  C_24 
REMARK    4  A    between atoms: C_28  and  N_29 
ROOT
HETATM    1  C   UNL     1       4.883  29.522  51.974  1.00  0.00     0.112 A 
HETATM    2  N   UNL     1       4.245  29.458  53.126  1.00  0.00    -0.230 NA
HETATM    3  C   UNL     1       4.851  28.445  53.838  1.00  0.00     0.124 A 
HETATM    4  C   UNL     1       4.594  27.928  55.116  1.00  0.00     0.148 A 
HETATM    5  F   UNL     1       3.612  28.426  55.882  1.00  0.00    -0.203 F 
HETATM    6  C   UNL     1       5.371  26.873  55.610  1.00  0.00     0.058 A 
HETATM    7  C   UNL     1       6.415  26.306  54.856  1.00  0.00    -0.002 A 
HETATM    8  C   UNL     1       6.679  26.831  53.570  1.00  0.00     0.046 A 
HETATM    9  C   UNL     1       5.884  27.882  53.100  1.00  0.00     0.066 A 
HETATM   10  N   UNL     1       5.884  28.581  51.922  1.00  0.00    -0.342 N 
HETATM   11  H   UNL     1       6.508  28.431  51.139  1.00  0.00     0.167 HD
ENDROOT
BRANCH   1  12
HETATM   12  C   UNL     1       4.558  30.461  50.843  1.00  0.00     0.084 C 
HETATM   13  C   UNL     1       5.546  30.372  49.681  1.00  0.00     0.188 C 
HETATM   14  O   UNL     1       5.509  29.113  48.993  1.00  0.00    -0.350 OA
HETATM   15  C   UNL     1       4.255  28.658  48.685  1.00  0.00     0.075 A 
HETATM   16  C   UNL     1       4.192  27.619  47.762  1.00  0.00     0.040 A 
HETATM   17  C   UNL     1       3.090  29.131  49.295  1.00  0.00    -0.021 A 
HETATM   18  C   UNL     1       2.958  27.065  47.419  1.00  0.00     0.039 A 
HETATM   19  C   UNL     1       1.780  27.544  47.996  1.00  0.00     0.068 A 
HETATM   20  C   UNL     1       1.849  28.576  48.933  1.00  0.00     0.046 A 
HETATM   21  C   UNL     1       3.141  30.236  50.315  1.00  0.00     0.056 C 
BRANCH  19  22
HETATM   22  O   UNL     1       0.641  26.919  47.570  1.00  0.00    -0.356 OA
HETATM   23  C   UNL     1      -0.133  27.593  46.584  1.00  0.00     0.210 C 
ENDBRANCH  19  22
ENDBRANCH   1  12
BRANCH   7  24
HETATM   24  C   UNL     1       7.236  25.193  55.379  1.00  0.00     0.072 A 
HETATM   25  C   UNL     1       7.586  24.095  54.618  1.00  0.00     0.052 A 
HETATM   26  C   UNL     1       8.355  23.145  55.245  1.00  0.00     0.122 A 
HETATM   27  N   UNL     1       8.762  23.245  56.522  1.00  0.00    -0.231 NA
HETATM   28  C   UNL     1       8.398  24.351  57.173  1.00  0.00     0.199 A 
HETATM   29  N   UNL     1       7.641  25.324  56.662  1.00  0.00    -0.218 NA
BRANCH  28  30
HETATM   30  N   UNL     1       8.788  24.471  58.491  1.00  0.00    -0.271 NA
HETATM   31  H   UNL     1       8.515  23.641  58.997  1.00  0.00     0.127 HD
HETATM   32  H   UNL     1       8.472  25.359  58.854  1.00  0.00     0.127 HD
ENDBRANCH  28  30
ENDBRANCH   7  24
TORSDOF 4
ENDMDL
MODEL 7
REMARK VINA RESULT:      -8.8      6.399     11.409
REMARK  4 active torsions:
REMARK  status: ('A' for Active; 'I' for Inactive)
REMARK    1  A    between atoms: O_2  and  C_3 
REMARK    2  A    between atoms: C_9  and  C_13 
REMARK    3  A    between atoms: C_19  and  C_24 
REMARK    4  A    between atoms: C_28  and  N_29 
ROOT
HETATM    1  C   UNL     1       5.263  33.119  62.177  1.00  0.00     0.112 A 
HETATM    2  N   UNL     1       6.217  32.472  62.818  1.00  0.00    -0.230 NA
HETATM    3  C   UNL     1       6.981  31.863  61.845  1.00  0.00     0.124 A 
HETATM    4  C   UNL     1       8.116  31.046  61.935  1.00  0.00     0.148 A 
HETATM    5  F   UNL     1       8.653  30.731  63.123  1.00  0.00    -0.203 F 
HETATM    6  C   UNL     1       8.709  30.545  60.769  1.00  0.00     0.058 A 
HETATM    7  C   UNL     1       8.193  30.837  59.492  1.00  0.00    -0.002 A 
HETATM    8  C   UNL     1       7.052  31.666  59.400  1.00  0.00     0.046 A 
HETATM    9  C   UNL     1       6.478  32.150  60.582  1.00  0.00     0.066 A 
HETATM   10  N   UNL     1       5.389  32.946  60.818  1.00  0.00    -0.342 N 
HETATM   11  H   UNL     1       4.773  33.338  60.118  1.00  0.00     0.167 HD
ENDROOT
BRANCH   1  12
HETATM   12  C   UNL     1       4.158  33.913  62.820  1.00  0.00     0.084 C 
HETATM   13  C   UNL     1       4.561  34.539  64.155  1.00  0.00     0.188 C 
HETATM   14  O   UNL     1       5.571  35.550  64.032  1.00  0.00    -0.350 OA
HETATM   15  C   UNL     1       5.354  36.466  63.037  1.00  0.00     0.075 A 
HETATM   16  C   UNL     1       6.133  37.619  63.089  1.00  0.00     0.040 A 
HETATM   17  C   UNL     1       4.470  36.261  61.975  1.00  0.00    -0.021 A 
HETATM   18  C   UNL     1       6.009  38.589  62.094  1.00  0.00     0.039 A 
HETATM   19  C   UNL     1       5.109  38.415  61.041  1.00  0.00     0.068 A 
HETATM   20  C   UNL     1       4.342  37.250  60.984  1.00  0.00     0.046 A 
HETATM   21  C   UNL     1       3.639  35.009  61.889  1.00  0.00     0.056 C 
BRANCH  19  22
HETATM   22  O   UNL     1       5.082  39.441  60.138  1.00  0.00    -0.356 OA
HETATM   23  C   UNL     1       5.498  40.720  60.603  1.00  0.00     0.210 C 
ENDBRANCH  19  22
ENDBRANCH   1  12
BRANCH   7  24
HETATM   24  C   UNL     1       8.819  30.309  58.261  1.00  0.00     0.072 A 
HETATM   25  C   UNL     1       8.088  29.817  57.198  1.00  0.00     0.052 A 
HETATM   26  C   UNL     1       8.815  29.364  56.123  1.00  0.00     0.122 A 
HETATM   27  N   UNL     1      10.157  29.383  56.075  1.00  0.00    -0.231 NA
HETATM   28  C   UNL     1      10.780  29.896  57.137  1.00  0.00     0.199 A 
HETATM   29  N   UNL     1      10.170  30.349  58.234  1.00  0.00    -0.218 NA
BRANCH  28  30
HETATM   30  N   UNL     1      12.159  29.912  57.121  1.00  0.00    -0.271 NA
HETATM   31  H   UNL     1      12.505  29.832  58.067  1.00  0.00     0.127 HD
HETATM   32  H   UNL     1      12.480  30.699  56.576  1.00  0.00     0.127 HD
ENDBRANCH  28  30
ENDBRANCH   7  24
TORSDOF 4
ENDMDL
MODEL 8
REMARK VINA RESULT:      -8.6      4.738      9.319
REMARK  4 active torsions:
REMARK  status: ('A' for Active; 'I' for Inactive)
REMARK    1  A    between atoms: O_2  and  C_3 
REMARK    2  A    between atoms: C_9  and  C_13 
REMARK    3  A    between atoms: C_19  and  C_24 
REMARK    4  A    between atoms: C_28  and  N_29 
ROOT
HETATM    1  C   UNL     1       5.627  31.475  58.290  1.00  0.00     0.112 A 
HETATM    2  N   UNL     1       6.943  31.517  58.211  1.00  0.00    -0.230 NA
HETATM    3  C   UNL     1       7.341  30.249  57.846  1.00  0.00     0.124 A 
HETATM    4  C   UNL     1       8.614  29.707  57.620  1.00  0.00     0.148 A 
HETATM    5  F   UNL     1       9.720  30.455  57.746  1.00  0.00    -0.203 F 
HETATM    6  C   UNL     1       8.744  28.361  57.255  1.00  0.00     0.058 A 
HETATM    7  C   UNL     1       7.622  27.523  57.108  1.00  0.00    -0.002 A 
HETATM    8  C   UNL     1       6.338  28.070  57.329  1.00  0.00     0.046 A 
HETATM    9  C   UNL     1       6.239  29.417  57.696  1.00  0.00     0.066 A 
HETATM   10  N   UNL     1       5.164  30.216  57.984  1.00  0.00    -0.342 N 
HETATM   11  H   UNL     1       4.192  29.934  57.981  1.00  0.00     0.167 HD
ENDROOT
BRANCH   1  12
HETATM   12  C   UNL     1       4.735  32.620  58.689  1.00  0.00     0.084 C 
HETATM   13  C   UNL     1       3.460  32.172  59.403  1.00  0.00     0.188 C 
HETATM   14  O   UNL     1       3.701  31.571  60.683  1.00  0.00    -0.350 OA
HETATM   15  C   UNL     1       4.572  32.254  61.489  1.00  0.00     0.075 A 
HETATM   16  C   UNL     1       4.589  31.876  62.829  1.00  0.00     0.040 A 
HETATM   17  C   UNL     1       5.461  33.225  61.020  1.00  0.00    -0.021 A 
HETATM   18  C   UNL     1       5.474  32.492  63.715  1.00  0.00     0.039 A 
HETATM   19  C   UNL     1       6.349  33.485  63.270  1.00  0.00     0.068 A 
HETATM   20  C   UNL     1       6.339  33.849  61.923  1.00  0.00     0.046 A 
HETATM   21  C   UNL     1       5.474  33.628  59.570  1.00  0.00     0.056 C 
BRANCH  19  22
HETATM   22  O   UNL     1       7.158  34.009  64.240  1.00  0.00    -0.356 OA
HETATM   23  C   UNL     1       6.782  33.770  65.591  1.00  0.00     0.210 C 
ENDBRANCH  19  22
ENDBRANCH   1  12
BRANCH   7  24
HETATM   24  C   UNL     1       7.759  26.102  56.721  1.00  0.00     0.072 A 
HETATM   25  C   UNL     1       8.517  25.198  57.439  1.00  0.00     0.052 A 
HETATM   26  C   UNL     1       8.544  23.913  56.954  1.00  0.00     0.122 A 
HETATM   27  N   UNL     1       7.884  23.522  55.851  1.00  0.00    -0.231 NA
HETATM   28  C   UNL     1       7.159  24.457  55.234  1.00  0.00     0.199 A 
HETATM   29  N   UNL     1       7.077  25.734  55.613  1.00  0.00    -0.218 NA
BRANCH  28  30
HETATM   30  N   UNL     1       6.485  24.088  54.089  1.00  0.00    -0.271 NA
HETATM   31  H   UNL     1       7.135  24.047  53.317  1.00  0.00     0.127 HD
HETATM   32  H   UNL     1       5.669  24.673  53.975  1.00  0.00     0.127 HD
ENDBRANCH  28  30
ENDBRANCH   7  24
TORSDOF 4
ENDMDL
MODEL 9
REMARK VINA RESULT:      -8.6      4.018      6.165
REMARK  4 active torsions:
REMARK  status: ('A' for Active; 'I' for Inactive)
REMARK    1  A    between atoms: O_2  and  C_3 
REMARK    2  A    between atoms: C_9  and  C_13 
REMARK    3  A    between atoms: C_19  and  C_24 
REMARK    4  A    between atoms: C_28  and  N_29 
ROOT
HETATM    1  C   UNL     1       8.411  29.807  58.429  1.00  0.00     0.112 A 
HETATM    2  N   UNL     1       9.253  30.189  59.369  1.00  0.00    -0.230 NA
HETATM    3  C   UNL     1       8.554  31.071  60.167  1.00  0.00     0.124 A 
HETATM    4  C   UNL     1       8.936  31.792  61.306  1.00  0.00     0.148 A 
HETATM    5  F   UNL     1      10.175  31.688  61.811  1.00  0.00    -0.203 F 
HETATM    6  C   UNL     1       8.015  32.638  61.937  1.00  0.00     0.058 A 
HETATM    7  C   UNL     1       6.702  32.791  61.457  1.00  0.00    -0.002 A 
HETATM    8  C   UNL     1       6.313  32.059  60.312  1.00  0.00     0.046 A 
HETATM    9  C   UNL     1       7.255  31.224  59.699  1.00  0.00     0.066 A 
HETATM   10  N   UNL     1       7.189  30.415  58.597  1.00  0.00    -0.342 N 
HETATM   11  H   UNL     1       6.383  30.286  57.998  1.00  0.00     0.167 HD
ENDROOT
BRANCH   1  12
HETATM   12  C   UNL     1       8.729  28.866  57.298  1.00  0.00     0.084 C 
HETATM   13  C   UNL     1       8.272  27.431  57.559  1.00  0.00     0.188 C 
HETATM   14  O   UNL     1       6.846  27.287  57.625  1.00  0.00    -0.350 OA
HETATM   15  C   UNL     1       6.154  27.911  56.622  1.00  0.00     0.075 A 
HETATM   16  C   UNL     1       4.820  27.540  56.478  1.00  0.00     0.040 A 
HETATM   17  C   UNL     1       6.696  28.919  55.819  1.00  0.00    -0.021 A 
HETATM   18  C   UNL     1       4.027  28.154  55.507  1.00  0.00     0.039 A 
HETATM   19  C   UNL     1       4.559  29.141  54.676  1.00  0.00     0.068 A 
HETATM   20  C   UNL     1       5.893  29.521  54.835  1.00  0.00     0.046 A 
HETATM   21  C   UNL     1       8.128  29.350  55.978  1.00  0.00     0.056 C 
BRANCH  19  22
HETATM   22  O   UNL     1       3.678  29.656  53.766  1.00  0.00    -0.356 OA
HETATM   23  C   UNL     1       3.352  28.836  52.650  1.00  0.00     0.210 C 
ENDBRANCH  19  22
ENDBRANCH   1  12
BRANCH   7  24
HETATM   24  C   UNL     1       5.729  33.683  62.124  1.00  0.00     0.072 A 
HETATM   25  C   UNL     1       6.027  34.981  62.490  1.00  0.00     0.052 A 
HETATM   26  C   UNL     1       5.017  35.685  63.099  1.00  0.00     0.122 A 
HETATM   27  N   UNL     1       3.798  35.174  63.340  1.00  0.00    -0.231 NA
HETATM   28  C   UNL     1       3.592  33.921  62.932  1.00  0.00     0.199 A 
HETATM   29  N   UNL     1       4.507  33.147  62.346  1.00  0.00    -0.218 NA
BRANCH  28  30
HETATM   30  N   UNL     1       2.354  33.365  63.184  1.00  0.00    -0.271 NA
HETATM   31  H   UNL     1       1.636  33.957  62.791  1.00  0.00     0.127 HD
HETATM   32  H   UNL     1       2.281  33.138  64.165  1.00  0.00     0.127 HD
ENDBRANCH  28  30
ENDBRANCH   7  24
TORSDOF 4
ENDMDL
MODEL 10
REMARK VINA RESULT:      -8.6      4.783      9.540
REMARK  4 active torsions:
REMARK  status: ('A' for Active; 'I' for Inactive)
REMARK    1  A    between atoms: O_2  and  C_3 
REMARK    2  A    between atoms: C_9  and  C_13 
REMARK    3  A    between atoms: C_19  and  C_24 
REMARK    4  A    between atoms: C_28  and  N_29 
ROOT
HETATM    1  C   UNL     1       8.402  30.132  59.107  1.00  0.00     0.112 A 
HETATM    2  N   UNL     1       8.185  28.863  58.823  1.00  0.00    -0.230 NA
HETATM    3  C   UNL     1       7.319  28.858  57.750  1.00  0.00     0.124 A 
HETATM    4  C   UNL     1       6.743  27.803  57.029  1.00  0.00     0.148 A 
HETATM    5  F   UNL     1       7.004  26.525  57.341  1.00  0.00    -0.203 F 
HETATM    6  C   UNL     1       5.877  28.078  55.963  1.00  0.00     0.058 A 
HETATM    7  C   UNL     1       5.562  29.397  55.587  1.00  0.00    -0.002 A 
HETATM    8  C   UNL     1       6.148  30.462  56.309  1.00  0.00     0.046 A 
HETATM    9  C   UNL     1       7.006  30.158  57.372  1.00  0.00     0.066 A 
HETATM   10  N   UNL     1       7.703  30.947  58.247  1.00  0.00    -0.342 N 
HETATM   11  H   UNL     1       7.703  31.959  58.269  1.00  0.00     0.167 HD
ENDROOT
BRANCH   1  12
HETATM   12  C   UNL     1       9.262  30.644  60.232  1.00  0.00     0.084 C 
HETATM   13  C   UNL     1       9.654  32.113  60.072  1.00  0.00     0.188 C 
HETATM   14  O   UNL     1       8.543  33.015  60.162  1.00  0.00    -0.350 OA
HETATM   15  C   UNL     1       7.692  32.784  61.210  1.00  0.00     0.075 A 
HETATM   16  C   UNL     1       6.797  33.808  61.507  1.00  0.00     0.040 A 
HETATM   17  C   UNL     1       7.642  31.578  61.914  1.00  0.00    -0.021 A 
HETATM   18  C   UNL     1       5.865  33.642  62.533  1.00  0.00     0.039 A 
HETATM   19  C   UNL     1       5.821  32.455  63.267  1.00  0.00     0.068 A 
HETATM   20  C   UNL     1       6.710  31.426  62.955  1.00  0.00     0.046 A 
HETATM   21  C   UNL     1       8.585  30.451  61.589  1.00  0.00     0.056 C 
BRANCH  19  22
HETATM   22  O   UNL     1       4.866  32.426  64.246  1.00  0.00    -0.356 OA
HETATM   23  C   UNL     1       4.606  33.646  64.929  1.00  0.00     0.210 C 
ENDBRANCH  19  22
ENDBRANCH   1  12
BRANCH   7  24
HETATM   24  C   UNL     1       4.649  29.688  54.460  1.00  0.00     0.072 A 
HETATM   25  C   UNL     1       4.005  30.899  54.308  1.00  0.00     0.052 A 
HETATM   26  C   UNL     1       3.191  31.017  53.208  1.00  0.00     0.122 A 
HETATM   27  N   UNL     1       3.008  30.032  52.312  1.00  0.00    -0.231 NA
HETATM   28  C   UNL     1       3.688  28.905  52.526  1.00  0.00     0.199 A 
HETATM   29  N   UNL     1       4.491  28.684  53.568  1.00  0.00    -0.218 NA
BRANCH  28  30
HETATM   30  N   UNL     1       3.505  27.871  51.631  1.00  0.00    -0.271 NA
HETATM   31  H   UNL     1       2.850  28.159  50.918  1.00  0.00     0.127 HD
HETATM   32  H   UNL     1       3.295  27.023  52.137  1.00  0.00     0.127 HD
ENDBRANCH  28  30
ENDBRANCH   7  24
TORSDOF 4
ENDMDL
