MODEL 1
REMARK VINA RESULT:      -9.5      0.000      0.000
REMARK  4 active torsions:
REMARK  status: ('A' for Active; 'I' for Inactive)
REMARK    1  A    between atoms: O_2  and  C_3 
REMARK    2  A    between atoms: C_8  and  C_9 
REMARK    3  A    between atoms: N_11  and  C_12 
REMARK    4  A    between atoms: C_12  and  C_13 
ROOT
HETATM    1  C   UNL     1       7.833  23.039  53.234  1.00  0.00     0.069 A 
HETATM    2  C   UNL     1       8.024  22.972  54.615  1.00  0.00     0.056 A 
HETATM    3  C   UNL     1       7.889  24.125  55.391  1.00  0.00     0.063 A 
HETATM    4  C   UNL     1       7.572  25.358  54.817  1.00  0.00     0.074 A 
HETATM    5  N   UNL     1       7.416  26.531  55.575  1.00  0.00    -0.234 NA
HETATM    6  C   UNL     1       7.568  26.452  56.857  1.00  0.00     0.113 A 
HETATM    7  N   UNL     1       7.875  25.279  57.501  1.00  0.00    -0.310 N 
HETATM    8  C   UNL     1       8.065  24.086  56.850  1.00  0.00     0.259 A 
HETATM    9  O   UNL     1       8.360  23.061  57.451  1.00  0.00    -0.267 OA
HETATM   10  C   UNL     1       7.394  25.417  53.434  1.00  0.00     0.035 A 
HETATM   11  C   UNL     1       7.522  24.266  52.645  1.00  0.00     0.039 A 
HETATM   12  H   UNL     1       8.000  25.245  58.503  1.00  0.00     0.170 HD
ENDROOT
BRANCH   6  13
HETATM   13  C   UNL     1       7.383  27.645  57.765  1.00  0.00     0.082 C 
HETATM   14  C   UNL     1       8.513  28.664  57.712  1.00  0.00     0.139 C 
HETATM   15  N   UNL     1       7.852  29.913  57.992  1.00  0.00    -0.347 N 
HETATM   16  C   UNL     1       6.491  29.858  57.777  1.00  0.00     0.220 C 
HETATM   17  O   UNL     1       5.691  30.774  57.878  1.00  0.00    -0.273 OA
HETATM   18  C   UNL     1       6.143  28.451  57.367  1.00  0.00     0.117 C 
BRANCH  15  19
HETATM   19  C   UNL     1       8.569  31.111  58.385  1.00  0.00     0.164 C 
BRANCH  19  20
HETATM   20  C   UNL     1       8.447  31.368  59.867  1.00  0.00    -0.040 A 
HETATM   21  C   UNL     1       7.663  32.422  60.354  1.00  0.00     0.009 A 
HETATM   22  C   UNL     1       7.564  32.654  61.728  1.00  0.00     0.001 A 
HETATM   23  C   UNL     1       8.248  31.837  62.627  1.00  0.00     0.000 A 
HETATM   24  C   UNL     1       9.032  30.786  62.154  1.00  0.00     0.001 A 
HETATM   25  C   UNL     1       9.130  30.551  60.782  1.00  0.00     0.009 A 
ENDBRANCH  19  20
ENDBRANCH  15  19
ENDBRANCH   6  13
BRANCH   1  26
HETATM   26  O   UNL     1       7.980  21.848  52.579  1.00  0.00    -0.356 OA
HETATM   27  C   UNL     1       8.059  20.676  53.382  1.00  0.00     0.210 C 
ENDBRANCH   1  26
TORSDOF 4
ENDMDL
MODEL 2
REMARK VINA RESULT:      -9.5      2.054      9.181
REMARK  4 active torsions:
REMARK  status: ('A' for Active; 'I' for Inactive)
REMARK    1  A    between atoms: O_2  and  C_3 
REMARK    2  A    between atoms: C_8  and  C_9 
REMARK    3  A    between atoms: N_11  and  C_12 
REMARK    4  A    between atoms: C_12  and  C_13 
ROOT
HETATM    1  C   UNL     1       7.791  32.475  61.807  1.00  0.00     0.069 A 
HETATM    2  C   UNL     1       6.982  32.388  60.673  1.00  0.00     0.056 A 
HETATM    3  C   UNL     1       7.210  31.382  59.732  1.00  0.00     0.063 A 
HETATM    4  C   UNL     1       8.241  30.453  59.892  1.00  0.00     0.074 A 
HETATM    5  N   UNL     1       8.484  29.422  58.969  1.00  0.00    -0.234 NA
HETATM    6  C   UNL     1       7.711  29.335  57.936  1.00  0.00     0.113 A 
HETATM    7  N   UNL     1       6.673  30.203  57.706  1.00  0.00    -0.310 N 
HETATM    8  C   UNL     1       6.364  31.252  58.537  1.00  0.00     0.259 A 
HETATM    9  O   UNL     1       5.445  32.022  58.293  1.00  0.00    -0.267 OA
HETATM   10  C   UNL     1       9.052  30.555  61.023  1.00  0.00     0.035 A 
HETATM   11  C   UNL     1       8.831  31.558  61.977  1.00  0.00     0.039 A 
HETATM   12  H   UNL     1       6.089  30.122  56.886  1.00  0.00     0.170 HD
ENDROOT
BRANCH   6  13
HETATM   13  C   UNL     1       7.863  28.241  56.906  1.00  0.00     0.082 C 
HETATM   14  C   UNL     1       6.689  27.275  56.829  1.00  0.00     0.139 C 
HETATM   15  N   UNL     1       6.677  26.870  55.446  1.00  0.00    -0.347 N 
HETATM   16  C   UNL     1       7.359  27.745  54.627  1.00  0.00     0.220 C 
HETATM   17  O   UNL     1       7.466  27.685  53.413  1.00  0.00    -0.273 OA
HETATM   18  C   UNL     1       7.949  28.826  55.493  1.00  0.00     0.117 C 
BRANCH  15  19
HETATM   19  C   UNL     1       5.956  25.702  54.975  1.00  0.00     0.164 C 
BRANCH  19  20
HETATM   20  C   UNL     1       6.899  24.593  54.578  1.00  0.00    -0.040 A 
HETATM   21  C   UNL     1       6.950  24.129  53.256  1.00  0.00     0.009 A 
HETATM   22  C   UNL     1       7.822  23.098  52.902  1.00  0.00     0.001 A 
HETATM   23  C   UNL     1       8.649  22.518  53.863  1.00  0.00     0.000 A 
HETATM   24  C   UNL     1       8.606  22.971  55.181  1.00  0.00     0.001 A 
HETATM   25  C   UNL     1       7.738  24.003  55.537  1.00  0.00     0.009 A 
ENDBRANCH  19  20
ENDBRANCH  15  19
ENDBRANCH   6  13
BRANCH   1  26
HETATM   26  O   UNL     1       7.469  33.491  62.662  1.00  0.00    -0.356 OA
HETATM   27  C   UNL     1       7.553  33.214  64.055  1.00  0.00     0.210 C 
ENDBRANCH   1  26
TORSDOF 4
ENDMDL
MODEL 3
REMARK VINA RESULT:      -9.4      1.118      2.087
REMARK  4 active torsions:
REMARK  status: ('A' for Active; 'I' for Inactive)
REMARK    1  A    between atoms: O_2  and  C_3 
REMARK    2  A    between atoms: C_8  and  C_9 
REMARK    3  A    between atoms: N_11  and  C_12 
REMARK    4  A    between atoms: C_12  and  C_13 
ROOT
HETATM    1  C   UNL     1       8.036  22.607  53.944  1.00  0.00     0.069 A 
HETATM    2  C   UNL     1       7.671  23.906  53.591  1.00  0.00     0.056 A 
HETATM    3  C   UNL     1       7.564  24.891  54.576  1.00  0.00     0.063 A 
HETATM    4  C   UNL     1       7.809  24.606  55.922  1.00  0.00     0.074 A 
HETATM    5  N   UNL     1       7.723  25.579  56.931  1.00  0.00    -0.234 NA
HETATM    6  C   UNL     1       7.411  26.786  56.589  1.00  0.00     0.113 A 
HETATM    7  N   UNL     1       7.160  27.151  55.289  1.00  0.00    -0.310 N 
HETATM    8  C   UNL     1       7.201  26.273  54.235  1.00  0.00     0.259 A 
HETATM    9  O   UNL     1       6.950  26.626  53.089  1.00  0.00    -0.267 OA
HETATM   10  C   UNL     1       8.162  23.301  56.267  1.00  0.00     0.035 A 
HETATM   11  C   UNL     1       8.276  22.305  55.287  1.00  0.00     0.039 A 
HETATM   12  H   UNL     1       6.907  28.099  55.047  1.00  0.00     0.170 HD
ENDROOT
BRANCH   6  13
HETATM   13  C   UNL     1       7.331  27.914  57.591  1.00  0.00     0.082 C 
HETATM   14  C   UNL     1       8.570  28.795  57.655  1.00  0.00     0.139 C 
HETATM   15  N   UNL     1       8.046  30.086  58.023  1.00  0.00    -0.347 N 
HETATM   16  C   UNL     1       6.696  30.207  57.768  1.00  0.00     0.220 C 
HETATM   17  O   UNL     1       6.003  31.198  57.927  1.00  0.00    -0.273 OA
HETATM   18  C   UNL     1       6.206  28.889  57.231  1.00  0.00     0.117 C 
BRANCH  15  19
HETATM   19  C   UNL     1       8.880  31.156  58.536  1.00  0.00     0.164 C 
BRANCH  19  20
HETATM   20  C   UNL     1       8.642  31.386  60.008  1.00  0.00    -0.040 A 
HETATM   21  C   UNL     1       9.126  30.484  60.966  1.00  0.00     0.009 A 
HETATM   22  C   UNL     1       8.894  30.704  62.325  1.00  0.00     0.001 A 
HETATM   23  C   UNL     1       8.176  31.825  62.740  1.00  0.00     0.000 A 
HETATM   24  C   UNL     1       7.689  32.728  61.797  1.00  0.00     0.001 A 
HETATM   25  C   UNL     1       7.922  32.511  60.438  1.00  0.00     0.009 A 
ENDBRANCH  19  20
ENDBRANCH  15  19
ENDBRANCH   6  13
BRANCH   1  26
HETATM   26  O   UNL     1       8.118  21.732  52.897  1.00  0.00    -0.356 OA
HETATM   27  C   UNL     1       8.386  20.371  53.213  1.00  0.00     0.210 C 
ENDBRANCH   1  26
TORSDOF 4
ENDMDL
MODEL 4
REMARK VINA RESULT:      -9.3      5.993      9.436
REMARK  4 active torsions:
REMARK  status: ('A' for Active; 'I' for Inactive)
REMARK    1  A    between atoms: O_2  and  C_3 
REMARK    2  A    between atoms: C_8  and  C_9 
REMARK    3  A    between atoms: N_11  and  C_12 
REMARK    4  A    between atoms: C_12  and  C_13 
ROOT
HETATM    1  C   UNL     1       4.306  30.295  47.587  1.00  0.00     0.069 A 
HETATM    2  C   UNL     1       3.847  28.977  47.585  1.00  0.00     0.056 A 
HETATM    3  C   UNL     1       4.250  28.100  48.594  1.00  0.00     0.063 A 
HETATM    4  C   UNL     1       5.115  28.506  49.612  1.00  0.00     0.074 A 
HETATM    5  N   UNL     1       5.525  27.648  50.647  1.00  0.00    -0.234 NA
HETATM    6  C   UNL     1       5.071  26.437  50.650  1.00  0.00     0.113 A 
HETATM    7  N   UNL     1       4.214  25.960  49.690  1.00  0.00    -0.310 N 
HETATM    8  C   UNL     1       3.769  26.711  48.631  1.00  0.00     0.259 A 
HETATM    9  O   UNL     1       3.021  26.249  47.778  1.00  0.00    -0.267 OA
HETATM   10  C   UNL     1       5.578  29.822  49.599  1.00  0.00     0.035 A 
HETATM   11  C   UNL     1       5.178  30.714  48.595  1.00  0.00     0.039 A 
HETATM   12  H   UNL     1       3.881  25.006  49.708  1.00  0.00     0.170 HD
ENDROOT
BRANCH   6  13
HETATM   13  C   UNL     1       5.419  25.449  51.738  1.00  0.00     0.082 C 
HETATM   14  C   UNL     1       6.898  25.392  52.094  1.00  0.00     0.139 C 
HETATM   15  N   UNL     1       6.894  25.041  53.491  1.00  0.00    -0.347 N 
HETATM   16  C   UNL     1       5.686  25.302  54.105  1.00  0.00     0.220 C 
HETATM   17  O   UNL     1       5.414  25.157  55.285  1.00  0.00    -0.273 OA
HETATM   18  C   UNL     1       4.739  25.825  53.058  1.00  0.00     0.117 C 
BRANCH  15  19
HETATM   19  C   UNL     1       8.068  24.538  54.179  1.00  0.00     0.164 C 
BRANCH  19  20
HETATM   20  C   UNL     1       8.030  23.035  54.312  1.00  0.00    -0.040 A 
HETATM   21  C   UNL     1       7.820  22.427  55.557  1.00  0.00     0.009 A 
HETATM   22  C   UNL     1       7.794  21.035  55.667  1.00  0.00     0.001 A 
HETATM   23  C   UNL     1       7.980  20.239  54.538  1.00  0.00     0.000 A 
HETATM   24  C   UNL     1       8.191  20.833  53.295  1.00  0.00     0.001 A 
HETATM   25  C   UNL     1       8.215  22.223  53.181  1.00  0.00     0.009 A 
ENDBRANCH  19  20
ENDBRANCH  15  19
ENDBRANCH   6  13
BRANCH   1  26
HETATM   26  O   UNL     1       3.839  31.065  46.558  1.00  0.00    -0.356 OA
HETATM   27  C   UNL     1       2.543  30.756  46.059  1.00  0.00     0.210 C 
ENDBRANCH   1  26
TORSDOF 4
ENDMDL
MODEL 5
REMARK VINA RESULT:      -9.1      4.543     10.340
REMARK  4 active torsions:
REMARK  status: ('A' for Active; 'I' for Inactive)
REMARK    1  A    between atoms: O_2  and  C_3 
REMARK    2  A    between atoms: C_8  and  C_9 
REMARK    3  A    between atoms: N_11  and  C_12 
REMARK    4  A    between atoms: C_12  and  C_13 
ROOT
HETATM    1  C   UNL     1       5.162  33.859  65.590  1.00  0.00     0.069 A 
HETATM    2  C   UNL     1       4.798  33.253  64.388  1.00  0.00     0.056 A 
HETATM    3  C   UNL     1       5.784  32.761  63.530  1.00  0.00     0.063 A 
HETATM    4  C   UNL     1       7.141  32.868  63.842  1.00  0.00     0.074 A 
HETATM    5  N   UNL     1       8.154  32.370  63.005  1.00  0.00    -0.234 NA
HETATM    6  C   UNL     1       7.803  31.785  61.906  1.00  0.00     0.113 A 
HETATM    7  N   UNL     1       6.492  31.634  61.527  1.00  0.00    -0.310 N 
HETATM    8  C   UNL     1       5.433  32.100  62.265  1.00  0.00     0.259 A 
HETATM    9  O   UNL     1       4.275  31.969  61.889  1.00  0.00    -0.267 OA
HETATM   10  C   UNL     1       7.497  33.486  65.041  1.00  0.00     0.035 A 
HETATM   11  C   UNL     1       6.516  33.980  65.912  1.00  0.00     0.039 A 
HETATM   12  H   UNL     1       6.243  31.183  60.658  1.00  0.00     0.170 HD
ENDROOT
BRANCH   6  13
HETATM   13  C   UNL     1       8.811  31.181  60.957  1.00  0.00     0.082 C 
HETATM   14  C   UNL     1       8.217  30.251  59.909  1.00  0.00     0.139 C 
HETATM   15  N   UNL     1       9.101  30.408  58.781  1.00  0.00    -0.347 N 
HETATM   16  C   UNL     1       9.842  31.569  58.840  1.00  0.00     0.220 C 
HETATM   17  O   UNL     1      10.625  31.986  58.003  1.00  0.00    -0.273 OA
HETATM   18  C   UNL     1       9.507  32.268  60.131  1.00  0.00     0.117 C 
BRANCH  15  19
HETATM   19  C   UNL     1       9.138  29.470  57.675  1.00  0.00     0.164 C 
BRANCH  19  20
HETATM   20  C   UNL     1       7.753  29.013  57.289  1.00  0.00    -0.040 A 
HETATM   21  C   UNL     1       7.352  27.684  57.484  1.00  0.00     0.009 A 
HETATM   22  C   UNL     1       6.069  27.272  57.117  1.00  0.00     0.001 A 
HETATM   23  C   UNL     1       5.177  28.181  56.549  1.00  0.00     0.000 A 
HETATM   24  C   UNL     1       5.565  29.505  56.350  1.00  0.00     0.001 A 
HETATM   25  C   UNL     1       6.845  29.920  56.718  1.00  0.00     0.009 A 
ENDBRANCH  19  20
ENDBRANCH  15  19
ENDBRANCH   6  13
BRANCH   1  26
HETATM   26  O   UNL     1       4.114  34.292  66.353  1.00  0.00    -0.356 OA
HETATM   27  C   UNL     1       4.264  35.548  67.003  1.00  0.00     0.210 C 
ENDBRANCH   1  26
TORSDOF 4
ENDMDL
MODEL 6
REMARK VINA RESULT:      -9.1      2.207      8.694
REMARK  4 active torsions:
REMARK  status: ('A' for Active; 'I' for Inactive)
REMARK    1  A    between atoms: O_2  and  C_3 
REMARK    2  A    between atoms: C_8  and  C_9 
REMARK    3  A    between atoms: N_11  and  C_12 
REMARK    4  A    between atoms: C_12  and  C_13 
ROOT
HETATM    1  C   UNL     1       8.503  31.001  59.198  1.00  0.00     0.069 A 
HETATM    2  C   UNL     1       7.233  30.748  58.680  1.00  0.00     0.056 A 
HETATM    3  C   UNL     1       7.095  29.979  57.522  1.00  0.00     0.063 A 
HETATM    4  C   UNL     1       8.206  29.457  56.856  1.00  0.00     0.074 A 
HETATM    5  N   UNL     1       8.097  28.669  55.698  1.00  0.00    -0.234 NA
HETATM    6  C   UNL     1       6.913  28.417  55.242  1.00  0.00     0.113 A 
HETATM    7  N   UNL     1       5.769  28.888  55.839  1.00  0.00    -0.310 N 
HETATM    8  C   UNL     1       5.770  29.678  56.961  1.00  0.00     0.259 A 
HETATM    9  O   UNL     1       4.733  30.100  57.457  1.00  0.00    -0.267 OA
HETATM   10  C   UNL     1       9.473  29.725  57.375  1.00  0.00     0.035 A 
HETATM   11  C   UNL     1       9.624  30.492  58.539  1.00  0.00     0.039 A 
HETATM   12  H   UNL     1       4.855  28.687  55.458  1.00  0.00     0.170 HD
ENDROOT
BRANCH   6  13
HETATM   13  C   UNL     1       6.684  27.549  54.028  1.00  0.00     0.082 C 
HETATM   14  C   UNL     1       7.700  26.429  53.849  1.00  0.00     0.139 C 
HETATM   15  N   UNL     1       6.943  25.390  53.198  1.00  0.00    -0.347 N 
HETATM   16  C   UNL     1       5.581  25.544  53.353  1.00  0.00     0.220 C 
HETATM   17  O   UNL     1       4.705  24.791  52.960  1.00  0.00    -0.273 OA
HETATM   18  C   UNL     1       5.343  26.816  54.123  1.00  0.00     0.117 C 
BRANCH  15  19
HETATM   19  C   UNL     1       7.566  24.269  52.520  1.00  0.00     0.164 C 
BRANCH  19  20
HETATM   20  C   UNL     1       7.701  23.075  53.433  1.00  0.00    -0.040 A 
HETATM   21  C   UNL     1       7.552  23.208  54.821  1.00  0.00     0.009 A 
HETATM   22  C   UNL     1       7.685  22.097  55.655  1.00  0.00     0.001 A 
HETATM   23  C   UNL     1       7.970  20.844  55.114  1.00  0.00     0.000 A 
HETATM   24  C   UNL     1       8.121  20.700  53.735  1.00  0.00     0.001 A 
HETATM   25  C   UNL     1       7.986  21.808  52.899  1.00  0.00     0.009 A 
ENDBRANCH  19  20
ENDBRANCH  15  19
ENDBRANCH   6  13
BRANCH   1  26
HETATM   26  O   UNL     1       8.515  31.755  60.338  1.00  0.00    -0.356 OA
HETATM   27  C   UNL     1       9.486  31.421  61.322  1.00  0.00     0.210 C 
ENDBRANCH   1  26
TORSDOF 4
ENDMDL
MODEL 7
REMARK VINA RESULT:      -9.0      3.510      9.766
REMARK  4 active torsions:
REMARK  status: ('A' for Active; 'I' for Inactive)
REMARK    1  A    between atoms: O_2  and  C_3 
REMARK    2  A    between atoms: C_8  and  C_9 
REMARK    3  A    between atoms: N_11  and  C_12 
REMARK    4  A    between atoms: C_12  and  C_13 
ROOT
HETATM    1  C   UNL     1       6.213  34.082  63.980  1.00  0.00     0.069 A 
HETATM    2  C   UNL     1       5.745  33.836  62.688  1.00  0.00     0.056 A 
HETATM    3  C   UNL     1       6.442  32.962  61.851  1.00  0.00     0.063 A 
HETATM    4  C   UNL     1       7.611  32.326  62.272  1.00  0.00     0.074 A 
HETATM    5  N   UNL     1       8.324  31.431  61.456  1.00  0.00    -0.234 NA
HETATM    6  C   UNL     1       7.866  31.190  60.271  1.00  0.00     0.113 A 
HETATM    7  N   UNL     1       6.722  31.770  59.782  1.00  0.00    -0.310 N 
HETATM    8  C   UNL     1       5.965  32.668  60.493  1.00  0.00     0.259 A 
HETATM    9  O   UNL     1       4.960  33.184  60.019  1.00  0.00    -0.267 OA
HETATM   10  C   UNL     1       8.078  32.587  63.561  1.00  0.00     0.035 A 
HETATM   11  C   UNL     1       7.385  33.458  64.412  1.00  0.00     0.039 A 
HETATM   12  H   UNL     1       6.389  31.574  58.848  1.00  0.00     0.170 HD
ENDROOT
BRANCH   6  13
HETATM   13  C   UNL     1       8.536  30.215  59.331  1.00  0.00     0.082 C 
HETATM   14  C   UNL     1       7.678  29.783  58.150  1.00  0.00     0.139 C 
HETATM   15  N   UNL     1       8.643  29.535  57.108  1.00  0.00    -0.347 N 
HETATM   16  C   UNL     1       9.854  30.151  57.344  1.00  0.00     0.220 C 
HETATM   17  O   UNL     1      10.830  30.160  56.612  1.00  0.00    -0.273 OA
HETATM   18  C   UNL     1       9.771  30.843  58.678  1.00  0.00     0.117 C 
BRANCH  15  19
HETATM   19  C   UNL     1       8.330  28.779  55.911  1.00  0.00     0.164 C 
BRANCH  19  20
HETATM   20  C   UNL     1       7.671  27.462  56.244  1.00  0.00    -0.040 A 
HETATM   21  C   UNL     1       6.429  27.119  55.694  1.00  0.00     0.009 A 
HETATM   22  C   UNL     1       5.826  25.901  56.015  1.00  0.00     0.001 A 
HETATM   23  C   UNL     1       6.456  25.016  56.889  1.00  0.00     0.000 A 
HETATM   24  C   UNL     1       7.692  25.348  57.443  1.00  0.00     0.001 A 
HETATM   25  C   UNL     1       8.297  26.563  57.122  1.00  0.00     0.009 A 
ENDBRANCH  19  20
ENDBRANCH  15  19
ENDBRANCH   6  13
BRANCH   1  26
HETATM   26  O   UNL     1       5.445  34.945  64.711  1.00  0.00    -0.356 OA
HETATM   27  C   UNL     1       4.760  34.405  65.834  1.00  0.00     0.210 C 
ENDBRANCH   1  26
TORSDOF 4
ENDMDL
MODEL 8
REMARK VINA RESULT:      -9.0      5.860      9.066
REMARK  4 active torsions:
REMARK  status: ('A' for Active; 'I' for Inactive)
REMARK    1  A    between atoms: O_2  and  C_3 
REMARK    2  A    between atoms: C_8  and  C_9 
REMARK    3  A    between atoms: N_11  and  C_12 
REMARK    4  A    between atoms: C_12  and  C_13 
ROOT
HETATM    1  C   UNL     1       3.713  28.980  47.429  1.00  0.00     0.069 A 
HETATM    2  C   UNL     1       4.424  29.296  48.588  1.00  0.00     0.056 A 
HETATM    3  C   UNL     1       4.719  28.295  49.516  1.00  0.00     0.063 A 
HETATM    4  C   UNL     1       4.313  26.973  49.319  1.00  0.00     0.074 A 
HETATM    5  N   UNL     1       4.609  25.944  50.229  1.00  0.00    -0.234 NA
HETATM    6  C   UNL     1       5.291  26.243  51.286  1.00  0.00     0.113 A 
HETATM    7  N   UNL     1       5.733  27.515  51.553  1.00  0.00    -0.310 N 
HETATM    8  C   UNL     1       5.482  28.591  50.737  1.00  0.00     0.259 A 
HETATM    9  O   UNL     1       5.871  29.718  51.015  1.00  0.00    -0.267 OA
HETATM   10  C   UNL     1       3.593  26.669  48.163  1.00  0.00     0.035 A 
HETATM   11  C   UNL     1       3.294  27.664  47.222  1.00  0.00     0.039 A 
HETATM   12  H   UNL     1       6.255  27.727  52.391  1.00  0.00     0.170 HD
ENDROOT
BRANCH   6  13
HETATM   13  C   UNL     1       5.695  25.204  52.305  1.00  0.00     0.082 C 
HETATM   14  C   UNL     1       7.183  25.176  52.627  1.00  0.00     0.139 C 
HETATM   15  N   UNL     1       7.221  24.743  54.001  1.00  0.00    -0.347 N 
HETATM   16  C   UNL     1       6.018  24.924  54.652  1.00  0.00     0.220 C 
HETATM   17  O   UNL     1       5.776  24.701  55.827  1.00  0.00    -0.273 OA
HETATM   18  C   UNL     1       5.031  25.477  53.658  1.00  0.00     0.117 C 
BRANCH  15  19
HETATM   19  C   UNL     1       8.425  24.240  54.633  1.00  0.00     0.164 C 
BRANCH  19  20
HETATM   20  C   UNL     1       8.427  22.732  54.702  1.00  0.00    -0.040 A 
HETATM   21  C   UNL     1       8.397  21.958  53.533  1.00  0.00     0.009 A 
HETATM   22  C   UNL     1       8.393  20.564  53.610  1.00  0.00     0.001 A 
HETATM   23  C   UNL     1       8.415  19.930  54.851  1.00  0.00     0.000 A 
HETATM   24  C   UNL     1       8.444  20.690  56.020  1.00  0.00     0.001 A 
HETATM   25  C   UNL     1       8.451  22.083  55.946  1.00  0.00     0.009 A 
ENDBRANCH  19  20
ENDBRANCH  15  19
ENDBRANCH   6  13
BRANCH   1  26
HETATM   26  O   UNL     1       3.491  30.036  46.590  1.00  0.00    -0.356 OA
HETATM   27  C   UNL     1       4.602  30.878  46.304  1.00  0.00     0.210 C 
ENDBRANCH   1  26
TORSDOF 4
ENDMDL
MODEL 9
REMARK VINA RESULT:      -8.8      5.331      8.240
REMARK  4 active torsions:
REMARK  status: ('A' for Active; 'I' for Inactive)
REMARK    1  A    between atoms: O_2  and  C_3 
REMARK    2  A    between atoms: C_8  and  C_9 
REMARK    3  A    between atoms: N_11  and  C_12 
REMARK    4  A    between atoms: C_12  and  C_13 
ROOT
HETATM    1  C   UNL     1       8.091  21.369  54.647  1.00  0.00     0.069 A 
HETATM    2  C   UNL     1       7.629  22.410  55.452  1.00  0.00     0.056 A 
HETATM    3  C   UNL     1       7.221  23.612  54.868  1.00  0.00     0.063 A 
HETATM    4  C   UNL     1       7.270  23.804  53.485  1.00  0.00     0.074 A 
HETATM    5  N   UNL     1       6.853  24.996  52.870  1.00  0.00    -0.234 NA
HETATM    6  C   UNL     1       6.400  25.945  53.623  1.00  0.00     0.113 A 
HETATM    7  N   UNL     1       6.314  25.835  54.989  1.00  0.00    -0.310 N 
HETATM    8  C   UNL     1       6.711  24.721  55.686  1.00  0.00     0.259 A 
HETATM    9  O   UNL     1       6.641  24.663  56.907  1.00  0.00    -0.267 OA
HETATM   10  C   UNL     1       7.745  22.761  52.689  1.00  0.00     0.035 A 
HETATM   11  C   UNL     1       8.153  21.549  53.263  1.00  0.00     0.039 A 
HETATM   12  H   UNL     1       5.967  26.595  55.558  1.00  0.00     0.170 HD
ENDROOT
BRANCH   6  13
HETATM   13  C   UNL     1       5.890  27.249  53.058  1.00  0.00     0.082 C 
HETATM   14  C   UNL     1       5.799  27.290  51.539  1.00  0.00     0.139 C 
HETATM   15  N   UNL     1       4.694  28.182  51.292  1.00  0.00    -0.347 N 
HETATM   16  C   UNL     1       3.869  28.326  52.388  1.00  0.00     0.220 C 
HETATM   17  O   UNL     1       2.835  28.970  52.451  1.00  0.00    -0.273 OA
HETATM   18  C   UNL     1       4.456  27.523  53.519  1.00  0.00     0.117 C 
BRANCH  15  19
HETATM   19  C   UNL     1       4.452  28.795  50.000  1.00  0.00     0.164 C 
BRANCH  19  20
HETATM   20  C   UNL     1       3.615  27.905  49.113  1.00  0.00    -0.040 A 
HETATM   21  C   UNL     1       4.195  26.842  48.408  1.00  0.00     0.009 A 
HETATM   22  C   UNL     1       3.411  26.030  47.585  1.00  0.00     0.001 A 
HETATM   23  C   UNL     1       2.044  26.273  47.458  1.00  0.00     0.000 A 
HETATM   24  C   UNL     1       1.458  27.329  48.154  1.00  0.00     0.001 A 
HETATM   25  C   UNL     1       2.238  28.140  48.979  1.00  0.00     0.009 A 
ENDBRANCH  19  20
ENDBRANCH  15  19
ENDBRANCH   6  13
BRANCH   1  26
HETATM   26  O   UNL     1       8.453  20.239  55.326  1.00  0.00    -0.356 OA
HETATM   27  C   UNL     1       8.840  20.400  56.686  1.00  0.00     0.210 C 
ENDBRANCH   1  26
TORSDOF 4
ENDMDL
MODEL 10
REMARK VINA RESULT:      -8.6      2.354      8.746
REMARK  4 active torsions:
REMARK  status: ('A' for Active; 'I' for Inactive)
REMARK    1  A    between atoms: O_2  and  C_3 
REMARK    2  A    between atoms: C_8  and  C_9 
REMARK    3  A    between atoms: N_11  and  C_12 
REMARK    4  A    between atoms: C_12  and  C_13 
ROOT
HETATM    1  C   UNL     1       6.719  32.020  59.804  1.00  0.00     0.069 A 
HETATM    2  C   UNL     1       7.652  31.113  59.301  1.00  0.00     0.056 A 
HETATM    3  C   UNL     1       7.369  30.400  58.134  1.00  0.00     0.063 A 
HETATM    4  C   UNL     1       6.161  30.566  57.452  1.00  0.00     0.074 A 
HETATM    5  N   UNL     1       5.856  29.872  56.269  1.00  0.00    -0.234 NA
HETATM    6  C   UNL     1       6.740  29.054  55.797  1.00  0.00     0.113 A 
HETATM    7  N   UNL     1       7.953  28.837  56.402  1.00  0.00    -0.310 N 
HETATM    8  C   UNL     1       8.338  29.451  57.568  1.00  0.00     0.259 A 
HETATM    9  O   UNL     1       9.419  29.219  58.095  1.00  0.00    -0.267 OA
HETATM   10  C   UNL     1       5.230  31.467  57.969  1.00  0.00     0.035 A 
HETATM   11  C   UNL     1       5.504  32.192  59.137  1.00  0.00     0.039 A 
HETATM   12  H   UNL     1       8.623  28.184  56.020  1.00  0.00     0.170 HD
ENDROOT
BRANCH   6  13
HETATM   13  C   UNL     1       6.526  28.291  54.512  1.00  0.00     0.082 C 
HETATM   14  C   UNL     1       7.601  27.259  54.201  1.00  0.00     0.139 C 
HETATM   15  N   UNL     1       6.888  26.240  53.473  1.00  0.00    -0.347 N 
HETATM   16  C   UNL     1       5.525  26.293  53.676  1.00  0.00     0.220 C 
HETATM   17  O   UNL     1       4.684  25.527  53.235  1.00  0.00    -0.273 OA
HETATM   18  C   UNL     1       5.235  27.469  54.570  1.00  0.00     0.117 C 
BRANCH  15  19
HETATM   19  C   UNL     1       7.557  25.229  52.676  1.00  0.00     0.164 C 
BRANCH  19  20
HETATM   20  C   UNL     1       7.664  23.920  53.418  1.00  0.00    -0.040 A 
HETATM   21  C   UNL     1       7.589  23.877  54.817  1.00  0.00     0.009 A 
HETATM   22  C   UNL     1       7.696  22.659  55.493  1.00  0.00     0.001 A 
HETATM   23  C   UNL     1       7.883  21.476  54.780  1.00  0.00     0.000 A 
HETATM   24  C   UNL     1       7.960  21.507  53.389  1.00  0.00     0.001 A 
HETATM   25  C   UNL     1       7.851  22.722  52.711  1.00  0.00     0.009 A 
ENDBRANCH  19  20
ENDBRANCH  15  19
ENDBRANCH   6  13
BRANCH   1  26
HETATM   26  O   UNL     1       7.108  32.667  60.943  1.00  0.00    -0.356 OA
HETATM   27  C   UNL     1       6.898  31.987  62.175  1.00  0.00     0.210 C 
ENDBRANCH   1  26
TORSDOF 4
ENDMDL
