MODEL 1
REMARK VINA RESULT:      -9.8      0.000      0.000
REMARK  6 active torsions:
REMARK  status: ('A' for Active; 'I' for Inactive)
REMARK    1  A    between atoms: C_2  and  N_3 
REMARK    2  A    between atoms: C_2  and  C_12 
REMARK       I    between atoms: N_3  and  C_4 
REMARK    3  A    between atoms: C_4  and  C_5 
REMARK    4  A    between atoms: C_12  and  C_13 
REMARK       I    between atoms: C_13  and  N_14 
REMARK    5  A    between atoms: N_14  and  C_15 
REMARK    6  A    between atoms: C_17  and  C_18 
ROOT
HETATM    1  C   UNL     1       7.731  26.586  56.874  1.00  0.00     0.224 C 
HETATM    2  N   UNL     1       7.114  26.395  55.652  1.00  0.00    -0.327 N 
HETATM    3  O   UNL     1       8.748  26.028  57.274  1.00  0.00    -0.273 OA
HETATM    4  H   UNL     1       6.333  27.001  55.433  1.00  0.00     0.169 HD
ENDROOT
BRANCH   1   5
HETATM    5  C   UNL     1       7.058  27.637  57.730  1.00  0.00     0.128 C 
BRANCH   5   6
HETATM    6  C   UNL     1       7.885  28.928  57.745  1.00  0.00     0.089 C 
HETATM    7  C   UNL     1       7.688  29.757  56.474  1.00  0.00     0.032 C 
BRANCH   6   8
HETATM    8  N   UNL     1       7.622  29.720  58.946  1.00  0.00    -0.352 N 
HETATM    9  C   UNL     1       8.578  30.489  59.577  1.00  0.00     0.252 C 
HETATM   10  O   UNL     1       9.752  30.528  59.227  1.00  0.00    -0.268 OA
HETATM   11  H   UNL     1       6.649  29.907  59.152  1.00  0.00     0.163 HD
BRANCH   9  12
HETATM   12  C   UNL     1       8.096  31.347  60.697  1.00  0.00     0.032 A 
HETATM   13  C   UNL     1       8.791  31.449  61.910  1.00  0.00     0.017 A 
HETATM   14  C   UNL     1       8.284  32.246  62.941  1.00  0.00     0.001 A 
HETATM   15  C   UNL     1       7.094  32.950  62.760  1.00  0.00     0.000 A 
HETATM   16  C   UNL     1       6.410  32.868  61.548  1.00  0.00     0.001 A 
HETATM   17  C   UNL     1       6.912  32.071  60.517  1.00  0.00     0.017 A 
ENDBRANCH   9  12
ENDBRANCH   6   8
ENDBRANCH   5   6
ENDBRANCH   1   5
BRANCH   2  18
HETATM   18  C   UNL     1       7.459  25.451  54.660  1.00  0.00     0.035 A 
HETATM   19  C   UNL     1       7.823  24.128  54.934  1.00  0.00     0.042 A 
HETATM   20  C   UNL     1       8.129  23.226  53.900  1.00  0.00    -0.021 A 
HETATM   21  C   UNL     1       8.077  23.677  52.576  1.00  0.00     0.012 A 
HETATM   22  C   UNL     1       7.720  24.996  52.290  1.00  0.00     0.003 A 
HETATM   23  C   UNL     1       7.407  25.875  53.327  1.00  0.00     0.029 A 
BRANCH  20  24
HETATM   24  C   UNL     1       8.467  21.846  54.217  1.00  0.00     0.010 A 
HETATM   25  C   UNL     1       8.478  20.688  53.400  1.00  0.00     0.152 A 
HETATM   26  N   UNL     1       8.852  19.589  54.062  1.00  0.00    -0.187 NA
HETATM   27  N   UNL     1       9.068  20.035  55.308  1.00  0.00    -0.289 N 
HETATM   28  H   UNL     1       9.361  19.365  56.013  1.00  0.00     0.188 HD
HETATM   29  C   UNL     1       8.855  21.375  55.453  1.00  0.00     0.123 A 
ENDBRANCH  20  24
ENDBRANCH   2  18
TORSDOF 6
ENDMDL
MODEL 2
REMARK VINA RESULT:      -9.7      2.541      9.637
REMARK  6 active torsions:
REMARK  status: ('A' for Active; 'I' for Inactive)
REMARK    1  A    between atoms: C_2  and  N_3 
REMARK    2  A    between atoms: C_2  and  C_12 
REMARK       I    between atoms: N_3  and  C_4 
REMARK    3  A    between atoms: C_4  and  C_5 
REMARK    4  A    between atoms: C_12  and  C_13 
REMARK       I    between atoms: C_13  and  N_14 
REMARK    5  A    between atoms: N_14  and  C_15 
REMARK    6  A    between atoms: C_17  and  C_18 
ROOT
HETATM    1  C   UNL     1       6.386  28.247  55.820  1.00  0.00     0.224 C 
HETATM    2  N   UNL     1       7.599  28.004  56.436  1.00  0.00    -0.327 N 
HETATM    3  O   UNL     1       5.882  29.346  55.606  1.00  0.00    -0.273 OA
HETATM    4  H   UNL     1       7.919  27.043  56.454  1.00  0.00     0.169 HD
ENDROOT
BRANCH   1   5
HETATM    5  C   UNL     1       5.688  26.991  55.345  1.00  0.00     0.128 C 
BRANCH   5   6
HETATM    6  C   UNL     1       6.034  25.807  56.256  1.00  0.00     0.089 C 
HETATM    7  C   UNL     1       4.868  25.416  57.166  1.00  0.00     0.032 C 
BRANCH   6   8
HETATM    8  N   UNL     1       6.520  24.662  55.487  1.00  0.00    -0.352 N 
HETATM    9  C   UNL     1       7.465  23.773  55.957  1.00  0.00     0.252 C 
HETATM   10  O   UNL     1       8.032  23.899  57.036  1.00  0.00    -0.268 OA
HETATM   11  H   UNL     1       5.948  24.378  54.702  1.00  0.00     0.163 HD
BRANCH   9  12
HETATM   12  C   UNL     1       7.729  22.582  55.099  1.00  0.00     0.032 A 
HETATM   13  C   UNL     1       7.938  21.306  55.640  1.00  0.00     0.017 A 
HETATM   14  C   UNL     1       8.209  20.225  54.797  1.00  0.00     0.001 A 
HETATM   15  C   UNL     1       8.259  20.411  53.415  1.00  0.00     0.000 A 
HETATM   16  C   UNL     1       8.031  21.675  52.871  1.00  0.00     0.001 A 
HETATM   17  C   UNL     1       7.762  22.758  53.711  1.00  0.00     0.017 A 
ENDBRANCH   9  12
ENDBRANCH   6   8
ENDBRANCH   5   6
ENDBRANCH   1   5
BRANCH   2  18
HETATM   18  C   UNL     1       8.456  28.951  57.037  1.00  0.00     0.035 A 
HETATM   19  C   UNL     1       8.201  29.565  58.268  1.00  0.00     0.042 A 
HETATM   20  C   UNL     1       9.108  30.481  58.829  1.00  0.00    -0.021 A 
HETATM   21  C   UNL     1      10.280  30.785  58.126  1.00  0.00     0.012 A 
HETATM   22  C   UNL     1      10.543  30.182  56.895  1.00  0.00     0.003 A 
HETATM   23  C   UNL     1       9.639  29.266  56.357  1.00  0.00     0.029 A 
BRANCH  20  24
HETATM   24  C   UNL     1       8.831  31.074  60.129  1.00  0.00     0.010 A 
HETATM   25  C   UNL     1       9.074  30.586  61.437  1.00  0.00     0.152 A 
HETATM   26  N   UNL     1       8.675  31.432  62.390  1.00  0.00    -0.187 NA
HETATM   27  N   UNL     1       8.161  32.460  61.699  1.00  0.00    -0.289 N 
HETATM   28  H   UNL     1       7.778  33.244  62.218  1.00  0.00     0.188 HD
HETATM   29  C   UNL     1       8.232  32.297  60.345  1.00  0.00     0.123 A 
ENDBRANCH  20  24
ENDBRANCH   2  18
TORSDOF 6
ENDMDL
MODEL 3
REMARK VINA RESULT:      -9.6      2.555      9.638
REMARK  6 active torsions:
REMARK  status: ('A' for Active; 'I' for Inactive)
REMARK    1  A    between atoms: C_2  and  N_3 
REMARK    2  A    between atoms: C_2  and  C_12 
REMARK       I    between atoms: N_3  and  C_4 
REMARK    3  A    between atoms: C_4  and  C_5 
REMARK    4  A    between atoms: C_12  and  C_13 
REMARK       I    between atoms: C_13  and  N_14 
REMARK    5  A    between atoms: N_14  and  C_15 
REMARK    6  A    between atoms: C_17  and  C_18 
ROOT
HETATM    1  C   UNL     1       7.362  27.616  55.104  1.00  0.00     0.224 C 
HETATM    2  N   UNL     1       8.214  28.700  55.010  1.00  0.00    -0.327 N 
HETATM    3  O   UNL     1       6.926  27.116  56.137  1.00  0.00    -0.273 OA
HETATM    4  H   UNL     1       8.408  29.051  54.079  1.00  0.00     0.169 HD
ENDROOT
BRANCH   1   5
HETATM    5  C   UNL     1       6.926  27.074  53.759  1.00  0.00     0.128 C 
BRANCH   5   6
HETATM    6  C   UNL     1       5.987  25.876  53.942  1.00  0.00     0.089 C 
HETATM    7  C   UNL     1       4.796  25.921  52.983  1.00  0.00     0.032 C 
BRANCH   6   8
HETATM    8  N   UNL     1       6.709  24.608  53.840  1.00  0.00    -0.352 N 
HETATM    9  C   UNL     1       6.933  23.769  54.912  1.00  0.00     0.252 C 
HETATM   10  O   UNL     1       6.604  24.040  56.062  1.00  0.00    -0.268 OA
HETATM   11  H   UNL     1       6.807  24.226  52.908  1.00  0.00     0.163 HD
BRANCH   9  12
HETATM   12  C   UNL     1       7.552  22.450  54.595  1.00  0.00     0.032 A 
HETATM   13  C   UNL     1       7.925  21.542  55.596  1.00  0.00     0.017 A 
HETATM   14  C   UNL     1       8.526  20.329  55.250  1.00  0.00     0.001 A 
HETATM   15  C   UNL     1       8.746  20.014  53.908  1.00  0.00     0.000 A 
HETATM   16  C   UNL     1       8.357  20.905  52.909  1.00  0.00     0.001 A 
HETATM   17  C   UNL     1       7.758  22.119  53.251  1.00  0.00     0.017 A 
ENDBRANCH   9  12
ENDBRANCH   6   8
ENDBRANCH   5   6
ENDBRANCH   1   5
BRANCH   2  18
HETATM   18  C   UNL     1       8.840  29.388  56.072  1.00  0.00     0.035 A 
HETATM   19  C   UNL     1       8.170  29.833  57.216  1.00  0.00     0.042 A 
HETATM   20  C   UNL     1       8.854  30.489  58.254  1.00  0.00    -0.021 A 
HETATM   21  C   UNL     1      10.230  30.705  58.122  1.00  0.00     0.012 A 
HETATM   22  C   UNL     1      10.909  30.269  56.983  1.00  0.00     0.003 A 
HETATM   23  C   UNL     1      10.218  29.609  55.967  1.00  0.00     0.029 A 
BRANCH  20  24
HETATM   24  C   UNL     1       8.134  30.906  59.449  1.00  0.00     0.010 A 
HETATM   25  C   UNL     1       7.016  31.763  59.602  1.00  0.00     0.152 A 
HETATM   26  N   UNL     1       6.638  31.902  60.875  1.00  0.00    -0.187 NA
HETATM   27  N   UNL     1       7.519  31.146  61.547  1.00  0.00    -0.289 N 
HETATM   28  H   UNL     1       7.438  31.098  62.557  1.00  0.00     0.188 HD
HETATM   29  C   UNL     1       8.433  30.529  60.741  1.00  0.00     0.123 A 
ENDBRANCH  20  24
ENDBRANCH   2  18
TORSDOF 6
ENDMDL
MODEL 4
REMARK VINA RESULT:      -9.5      2.483     10.461
REMARK  6 active torsions:
REMARK  status: ('A' for Active; 'I' for Inactive)
REMARK    1  A    between atoms: C_2  and  N_3 
REMARK    2  A    between atoms: C_2  and  C_12 
REMARK       I    between atoms: N_3  and  C_4 
REMARK    3  A    between atoms: C_4  and  C_5 
REMARK    4  A    between atoms: C_12  and  C_13 
REMARK       I    between atoms: C_13  and  N_14 
REMARK    5  A    between atoms: N_14  and  C_15 
REMARK    6  A    between atoms: C_17  and  C_18 
ROOT
HETATM    1  C   UNL     1       7.570  29.482  57.866  1.00  0.00     0.224 C 
HETATM    2  N   UNL     1       7.504  30.783  58.329  1.00  0.00    -0.327 N 
HETATM    3  O   UNL     1       7.955  28.501  58.496  1.00  0.00    -0.273 OA
HETATM    4  H   UNL     1       7.075  31.465  57.715  1.00  0.00     0.169 HD
ENDROOT
BRANCH   1   5
HETATM    5  C   UNL     1       7.056  29.318  56.452  1.00  0.00     0.128 C 
BRANCH   5   6
HETATM    6  C   UNL     1       6.078  28.141  56.369  1.00  0.00     0.089 C 
HETATM    7  C   UNL     1       4.664  28.587  55.991  1.00  0.00     0.032 C 
BRANCH   6   8
HETATM    8  N   UNL     1       6.568  27.098  55.469  1.00  0.00    -0.352 N 
HETATM    9  C   UNL     1       6.986  25.854  55.897  1.00  0.00     0.252 C 
HETATM   10  O   UNL     1       7.045  25.532  57.078  1.00  0.00    -0.268 OA
HETATM   11  H   UNL     1       6.340  27.212  54.489  1.00  0.00     0.163 HD
BRANCH   9  12
HETATM   12  C   UNL     1       7.310  24.867  54.828  1.00  0.00     0.032 A 
HETATM   13  C   UNL     1       7.625  25.261  53.520  1.00  0.00     0.017 A 
HETATM   14  C   UNL     1       7.896  24.297  52.545  1.00  0.00     0.001 A 
HETATM   15  C   UNL     1       7.864  22.941  52.874  1.00  0.00     0.000 A 
HETATM   16  C   UNL     1       7.572  22.545  54.179  1.00  0.00     0.001 A 
HETATM   17  C   UNL     1       7.299  23.506  55.155  1.00  0.00     0.017 A 
ENDBRANCH   9  12
ENDBRANCH   6   8
ENDBRANCH   5   6
ENDBRANCH   1   5
BRANCH   2  18
HETATM   18  C   UNL     1       7.958  31.270  59.573  1.00  0.00     0.035 A 
HETATM   19  C   UNL     1       7.110  31.649  60.620  1.00  0.00     0.042 A 
HETATM   20  C   UNL     1       7.623  32.101  61.847  1.00  0.00    -0.021 A 
HETATM   21  C   UNL     1       9.012  32.180  62.009  1.00  0.00     0.012 A 
HETATM   22  C   UNL     1       9.867  31.809  60.971  1.00  0.00     0.003 A 
HETATM   23  C   UNL     1       9.342  31.351  59.762  1.00  0.00     0.029 A 
BRANCH  20  24
HETATM   24  C   UNL     1       6.715  32.452  62.930  1.00  0.00     0.010 A 
HETATM   25  C   UNL     1       5.337  32.173  63.106  1.00  0.00     0.152 A 
HETATM   26  N   UNL     1       4.848  32.669  64.246  1.00  0.00    -0.187 NA
HETATM   27  N   UNL     1       5.907  33.279  64.800  1.00  0.00    -0.289 N 
HETATM   28  H   UNL     1       5.778  33.748  65.691  1.00  0.00     0.188 HD
HETATM   29  C   UNL     1       7.046  33.177  64.055  1.00  0.00     0.123 A 
ENDBRANCH  20  24
ENDBRANCH   2  18
TORSDOF 6
ENDMDL
MODEL 5
REMARK VINA RESULT:      -9.1      1.306      1.716
REMARK  6 active torsions:
REMARK  status: ('A' for Active; 'I' for Inactive)
REMARK    1  A    between atoms: C_2  and  N_3 
REMARK    2  A    between atoms: C_2  and  C_12 
REMARK       I    between atoms: N_3  and  C_4 
REMARK    3  A    between atoms: C_4  and  C_5 
REMARK    4  A    between atoms: C_12  and  C_13 
REMARK       I    between atoms: C_13  and  N_14 
REMARK    5  A    between atoms: N_14  and  C_15 
REMARK    6  A    between atoms: C_17  and  C_18 
ROOT
HETATM    1  C   UNL     1       7.917  27.734  57.326  1.00  0.00     0.224 C 
HETATM    2  N   UNL     1       7.810  27.628  55.952  1.00  0.00    -0.327 N 
HETATM    3  O   UNL     1       7.600  26.883  58.151  1.00  0.00    -0.273 OA
HETATM    4  H   UNL     1       8.202  28.384  55.402  1.00  0.00     0.169 HD
ENDROOT
BRANCH   1   5
HETATM    5  C   UNL     1       8.541  29.035  57.783  1.00  0.00     0.128 C 
BRANCH   5   6
HETATM    6  C   UNL     1       7.477  30.134  57.885  1.00  0.00     0.089 C 
HETATM    7  C   UNL     1       6.114  29.673  57.364  1.00  0.00     0.032 C 
BRANCH   6   8
HETATM    8  N   UNL     1       7.379  30.662  59.246  1.00  0.00    -0.352 N 
HETATM    9  C   UNL     1       8.092  31.756  59.693  1.00  0.00     0.252 C 
HETATM   10  O   UNL     1       8.921  32.346  59.011  1.00  0.00    -0.268 OA
HETATM   11  H   UNL     1       6.570  30.370  59.779  1.00  0.00     0.163 HD
BRANCH   9  12
HETATM   12  C   UNL     1       7.753  32.244  61.061  1.00  0.00     0.032 A 
HETATM   13  C   UNL     1       8.573  31.986  62.168  1.00  0.00     0.017 A 
HETATM   14  C   UNL     1       8.200  32.442  63.436  1.00  0.00     0.001 A 
HETATM   15  C   UNL     1       7.019  33.165  63.599  1.00  0.00     0.000 A 
HETATM   16  C   UNL     1       6.211  33.443  62.497  1.00  0.00     0.001 A 
HETATM   17  C   UNL     1       6.579  32.986  61.229  1.00  0.00     0.017 A 
ENDBRANCH   9  12
ENDBRANCH   6   8
ENDBRANCH   5   6
ENDBRANCH   1   5
BRANCH   2  18
HETATM   18  C   UNL     1       7.222  26.574  55.220  1.00  0.00     0.035 A 
HETATM   19  C   UNL     1       7.822  25.324  55.034  1.00  0.00     0.042 A 
HETATM   20  C   UNL     1       7.174  24.302  54.318  1.00  0.00    -0.021 A 
HETATM   21  C   UNL     1       5.909  24.557  53.777  1.00  0.00     0.012 A 
HETATM   22  C   UNL     1       5.301  25.802  53.953  1.00  0.00     0.003 A 
HETATM   23  C   UNL     1       5.953  26.802  54.676  1.00  0.00     0.029 A 
BRANCH  20  24
HETATM   24  C   UNL     1       7.809  23.000  54.174  1.00  0.00     0.010 A 
HETATM   25  C   UNL     1       8.529  22.215  55.108  1.00  0.00     0.152 A 
HETATM   26  N   UNL     1       8.962  21.061  54.593  1.00  0.00    -0.187 NA
HETATM   27  N   UNL     1       8.535  21.107  53.323  1.00  0.00    -0.289 N 
HETATM   28  H   UNL     1       8.755  20.325  52.714  1.00  0.00     0.188 HD
HETATM   29  C   UNL     1       7.840  22.243  53.022  1.00  0.00     0.123 A 
ENDBRANCH  20  24
ENDBRANCH   2  18
TORSDOF 6
ENDMDL
MODEL 6
REMARK VINA RESULT:      -9.1      1.556      2.212
REMARK  6 active torsions:
REMARK  status: ('A' for Active; 'I' for Inactive)
REMARK    1  A    between atoms: C_2  and  N_3 
REMARK    2  A    between atoms: C_2  and  C_12 
REMARK       I    between atoms: N_3  and  C_4 
REMARK    3  A    between atoms: C_4  and  C_5 
REMARK    4  A    between atoms: C_12  and  C_13 
REMARK       I    between atoms: C_13  and  N_14 
REMARK    5  A    between atoms: N_14  and  C_15 
REMARK    6  A    between atoms: C_17  and  C_18 
ROOT
HETATM    1  C   UNL     1       8.134  28.376  57.163  1.00  0.00     0.224 C 
HETATM    2  N   UNL     1       7.498  27.167  57.372  1.00  0.00    -0.327 N 
HETATM    3  O   UNL     1       8.513  28.826  56.086  1.00  0.00    -0.273 OA
HETATM    4  H   UNL     1       7.164  26.981  58.310  1.00  0.00     0.169 HD
ENDROOT
BRANCH   1   5
HETATM    5  C   UNL     1       8.301  29.195  58.425  1.00  0.00     0.128 C 
BRANCH   5   6
HETATM    6  C   UNL     1       7.405  30.438  58.382  1.00  0.00     0.089 C 
HETATM    7  C   UNL     1       6.054  30.156  57.719  1.00  0.00     0.032 C 
BRANCH   6   8
HETATM    8  N   UNL     1       7.236  31.024  59.712  1.00  0.00    -0.352 N 
HETATM    9  C   UNL     1       7.980  32.090  60.175  1.00  0.00     0.252 C 
HETATM   10  O   UNL     1       8.895  32.602  59.540  1.00  0.00    -0.268 OA
HETATM   11  H   UNL     1       6.372  30.803  60.189  1.00  0.00     0.163 HD
BRANCH   9  12
HETATM   12  C   UNL     1       7.570  32.652  61.494  1.00  0.00     0.032 A 
HETATM   13  C   UNL     1       6.506  33.555  61.621  1.00  0.00     0.017 A 
HETATM   14  C   UNL     1       6.175  34.075  62.875  1.00  0.00     0.001 A 
HETATM   15  C   UNL     1       6.896  33.687  64.005  1.00  0.00     0.000 A 
HETATM   16  C   UNL     1       7.941  32.772  63.887  1.00  0.00     0.001 A 
HETATM   17  C   UNL     1       8.275  32.253  62.634  1.00  0.00     0.017 A 
ENDBRANCH   9  12
ENDBRANCH   6   8
ENDBRANCH   5   6
ENDBRANCH   1   5
BRANCH   2  18
HETATM   18  C   UNL     1       7.248  26.158  56.417  1.00  0.00     0.035 A 
HETATM   19  C   UNL     1       7.852  24.896  56.438  1.00  0.00     0.042 A 
HETATM   20  C   UNL     1       7.541  23.922  55.474  1.00  0.00    -0.021 A 
HETATM   21  C   UNL     1       6.616  24.237  54.471  1.00  0.00     0.012 A 
HETATM   22  C   UNL     1       6.010  25.494  54.437  1.00  0.00     0.003 A 
HETATM   23  C   UNL     1       6.321  26.446  55.409  1.00  0.00     0.029 A 
BRANCH  20  24
HETATM   24  C   UNL     1       8.159  22.605  55.545  1.00  0.00     0.010 A 
HETATM   25  C   UNL     1       8.428  21.771  56.658  1.00  0.00     0.152 A 
HETATM   26  N   UNL     1       9.013  20.620  56.315  1.00  0.00    -0.187 NA
HETATM   27  N   UNL     1       9.133  20.716  54.983  1.00  0.00    -0.289 N 
HETATM   28  H   UNL     1       9.566  19.946  54.484  1.00  0.00     0.188 HD
HETATM   29  C   UNL     1       8.637  21.881  54.473  1.00  0.00     0.123 A 
ENDBRANCH  20  24
ENDBRANCH   2  18
TORSDOF 6
ENDMDL
MODEL 7
REMARK VINA RESULT:      -9.1      4.751      9.082
REMARK  6 active torsions:
REMARK  status: ('A' for Active; 'I' for Inactive)
REMARK    1  A    between atoms: C_2  and  N_3 
REMARK    2  A    between atoms: C_2  and  C_12 
REMARK       I    between atoms: N_3  and  C_4 
REMARK    3  A    between atoms: C_4  and  C_5 
REMARK    4  A    between atoms: C_12  and  C_13 
REMARK       I    between atoms: C_13  and  N_14 
REMARK    5  A    between atoms: N_14  and  C_15 
REMARK    6  A    between atoms: C_17  and  C_18 
ROOT
HETATM    1  C   UNL     1       4.927  27.657  54.027  1.00  0.00     0.224 C 
HETATM    2  N   UNL     1       5.397  27.189  52.815  1.00  0.00    -0.327 N 
HETATM    3  O   UNL     1       4.173  28.611  54.200  1.00  0.00    -0.273 OA
HETATM    4  H   UNL     1       5.938  26.333  52.833  1.00  0.00     0.169 HD
ENDROOT
BRANCH   1   5
HETATM    5  C   UNL     1       5.389  26.835  55.211  1.00  0.00     0.128 C 
BRANCH   5   6
HETATM    6  C   UNL     1       6.879  26.502  55.086  1.00  0.00     0.089 C 
HETATM    7  C   UNL     1       7.725  27.218  56.142  1.00  0.00     0.032 C 
BRANCH   6   8
HETATM    8  N   UNL     1       7.110  25.058  55.104  1.00  0.00    -0.352 N 
HETATM    9  C   UNL     1       7.207  24.286  53.964  1.00  0.00     0.252 C 
HETATM   10  O   UNL     1       7.043  24.729  52.833  1.00  0.00    -0.268 OA
HETATM   11  H   UNL     1       7.469  24.676  55.970  1.00  0.00     0.163 HD
BRANCH   9  12
HETATM   12  C   UNL     1       7.594  22.861  54.168  1.00  0.00     0.032 A 
HETATM   13  C   UNL     1       7.934  22.020  53.099  1.00  0.00     0.017 A 
HETATM   14  C   UNL     1       8.265  20.684  53.338  1.00  0.00     0.001 A 
HETATM   15  C   UNL     1       8.269  20.187  54.642  1.00  0.00     0.000 A 
HETATM   16  C   UNL     1       7.953  21.024  55.710  1.00  0.00     0.001 A 
HETATM   17  C   UNL     1       7.620  22.360  55.474  1.00  0.00     0.017 A 
ENDBRANCH   9  12
ENDBRANCH   6   8
ENDBRANCH   5   6
ENDBRANCH   1   5
BRANCH   2  18
HETATM   18  C   UNL     1       5.197  27.765  51.542  1.00  0.00     0.035 A 
HETATM   19  C   UNL     1       4.519  27.131  50.496  1.00  0.00     0.042 A 
HETATM   20  C   UNL     1       4.327  27.768  49.258  1.00  0.00    -0.021 A 
HETATM   21  C   UNL     1       4.839  29.059  49.077  1.00  0.00     0.012 A 
HETATM   22  C   UNL     1       5.520  29.700  50.113  1.00  0.00     0.003 A 
HETATM   23  C   UNL     1       5.692  29.059  51.340  1.00  0.00     0.029 A 
BRANCH  20  24
HETATM   24  C   UNL     1       3.584  27.095  48.201  1.00  0.00     0.010 A 
HETATM   25  C   UNL     1       3.682  25.773  47.701  1.00  0.00     0.152 A 
HETATM   26  N   UNL     1       2.817  25.525  46.715  1.00  0.00    -0.187 NA
HETATM   27  N   UNL     1       2.169  26.690  46.568  1.00  0.00    -0.289 N 
HETATM   28  H   UNL     1       1.450  26.753  45.854  1.00  0.00     0.188 HD
HETATM   29  C   UNL     1       2.588  27.660  47.432  1.00  0.00     0.123 A 
ENDBRANCH  20  24
ENDBRANCH   2  18
TORSDOF 6
ENDMDL
MODEL 8
REMARK VINA RESULT:      -9.0      2.732      3.729
REMARK  6 active torsions:
REMARK  status: ('A' for Active; 'I' for Inactive)
REMARK    1  A    between atoms: C_2  and  N_3 
REMARK    2  A    between atoms: C_2  and  C_12 
REMARK       I    between atoms: N_3  and  C_4 
REMARK    3  A    between atoms: C_4  and  C_5 
REMARK    4  A    between atoms: C_12  and  C_13 
REMARK       I    between atoms: C_13  and  N_14 
REMARK    5  A    between atoms: N_14  and  C_15 
REMARK    6  A    between atoms: C_17  and  C_18 
ROOT
HETATM    1  C   UNL     1       8.214  28.400  57.156  1.00  0.00     0.224 C 
HETATM    2  N   UNL     1       7.639  27.153  57.314  1.00  0.00    -0.327 N 
HETATM    3  O   UNL     1       8.587  28.904  56.101  1.00  0.00    -0.273 OA
HETATM    4  H   UNL     1       7.299  26.919  58.239  1.00  0.00     0.169 HD
ENDROOT
BRANCH   1   5
HETATM    5  C   UNL     1       8.317  29.184  58.446  1.00  0.00     0.128 C 
BRANCH   5   6
HETATM    6  C   UNL     1       7.429  30.432  58.389  1.00  0.00     0.089 C 
HETATM    7  C   UNL     1       6.080  30.154  57.722  1.00  0.00     0.032 C 
BRANCH   6   8
HETATM    8  N   UNL     1       7.258  31.030  59.713  1.00  0.00    -0.352 N 
HETATM    9  C   UNL     1       8.008  32.093  60.172  1.00  0.00     0.252 C 
HETATM   10  O   UNL     1       8.931  32.592  59.539  1.00  0.00    -0.268 OA
HETATM   11  H   UNL     1       6.389  30.820  60.187  1.00  0.00     0.163 HD
BRANCH   9  12
HETATM   12  C   UNL     1       7.595  32.669  61.485  1.00  0.00     0.032 A 
HETATM   13  C   UNL     1       6.544  33.589  61.597  1.00  0.00     0.017 A 
HETATM   14  C   UNL     1       6.211  34.121  62.845  1.00  0.00     0.001 A 
HETATM   15  C   UNL     1       6.915  33.728  63.984  1.00  0.00     0.000 A 
HETATM   16  C   UNL     1       7.947  32.797  63.880  1.00  0.00     0.001 A 
HETATM   17  C   UNL     1       8.284  32.265  62.634  1.00  0.00     0.017 A 
ENDBRANCH   9  12
ENDBRANCH   6   8
ENDBRANCH   5   6
ENDBRANCH   1   5
BRANCH   2  18
HETATM   18  C   UNL     1       7.458  26.164  56.322  1.00  0.00     0.035 A 
HETATM   19  C   UNL     1       6.760  26.375  55.128  1.00  0.00     0.042 A 
HETATM   20  C   UNL     1       6.638  25.359  54.165  1.00  0.00    -0.021 A 
HETATM   21  C   UNL     1       7.220  24.112  54.424  1.00  0.00     0.012 A 
HETATM   22  C   UNL     1       7.915  23.889  55.614  1.00  0.00     0.003 A 
HETATM   23  C   UNL     1       8.038  24.912  56.554  1.00  0.00     0.029 A 
BRANCH  20  24
HETATM   24  C   UNL     1       5.937  25.621  52.916  1.00  0.00     0.010 A 
HETATM   25  C   UNL     1       6.017  26.721  52.026  1.00  0.00     0.152 A 
HETATM   26  N   UNL     1       5.207  26.595  50.971  1.00  0.00    -0.187 NA
HETATM   27  N   UNL     1       4.595  25.422  51.186  1.00  0.00    -0.289 N 
HETATM   28  H   UNL     1       3.910  25.106  50.506  1.00  0.00     0.188 HD
HETATM   29  C   UNL     1       4.996  24.799  52.333  1.00  0.00     0.123 A 
ENDBRANCH  20  24
ENDBRANCH   2  18
TORSDOF 6
ENDMDL
MODEL 9
REMARK VINA RESULT:      -8.8      2.907     10.920
REMARK  6 active torsions:
REMARK  status: ('A' for Active; 'I' for Inactive)
REMARK    1  A    between atoms: C_2  and  N_3 
REMARK    2  A    between atoms: C_2  and  C_12 
REMARK       I    between atoms: N_3  and  C_4 
REMARK    3  A    between atoms: C_4  and  C_5 
REMARK    4  A    between atoms: C_12  and  C_13 
REMARK       I    between atoms: C_13  and  N_14 
REMARK    5  A    between atoms: N_14  and  C_15 
REMARK    6  A    between atoms: C_17  and  C_18 
ROOT
HETATM    1  C   UNL     1       8.471  31.079  59.227  1.00  0.00     0.224 C 
HETATM    2  N   UNL     1       7.764  30.780  60.377  1.00  0.00    -0.327 N 
HETATM    3  O   UNL     1       9.004  32.151  58.955  1.00  0.00    -0.273 OA
HETATM    4  H   UNL     1       7.464  29.820  60.493  1.00  0.00     0.169 HD
ENDROOT
BRANCH   1   5
HETATM    5  C   UNL     1       8.601  29.908  58.278  1.00  0.00     0.128 C 
BRANCH   5   6
HETATM    6  C   UNL     1       7.219  29.348  57.922  1.00  0.00     0.089 C 
HETATM    7  C   UNL     1       6.251  30.442  57.465  1.00  0.00     0.032 C 
BRANCH   6   8
HETATM    8  N   UNL     1       7.314  28.272  56.936  1.00  0.00    -0.352 N 
HETATM    9  C   UNL     1       7.553  26.953  57.268  1.00  0.00     0.252 C 
HETATM   10  O   UNL     1       7.771  26.574  58.412  1.00  0.00    -0.268 OA
HETATM   11  H   UNL     1       6.931  28.471  56.021  1.00  0.00     0.163 HD
BRANCH   9  12
HETATM   12  C   UNL     1       7.466  25.970  56.150  1.00  0.00     0.032 A 
HETATM   13  C   UNL     1       7.337  24.593  56.376  1.00  0.00     0.017 A 
HETATM   14  C   UNL     1       7.287  23.708  55.296  1.00  0.00     0.001 A 
HETATM   15  C   UNL     1       7.352  24.195  53.990  1.00  0.00     0.000 A 
HETATM   16  C   UNL     1       7.459  25.566  53.759  1.00  0.00     0.001 A 
HETATM   17  C   UNL     1       7.512  26.452  54.837  1.00  0.00     0.017 A 
ENDBRANCH   9  12
ENDBRANCH   6   8
ENDBRANCH   5   6
ENDBRANCH   1   5
BRANCH   2  18
HETATM   18  C   UNL     1       7.420  31.665  61.422  1.00  0.00     0.035 A 
HETATM   19  C   UNL     1       6.228  32.395  61.465  1.00  0.00     0.042 A 
HETATM   20  C   UNL     1       5.928  33.240  62.547  1.00  0.00    -0.021 A 
HETATM   21  C   UNL     1       6.855  33.353  63.591  1.00  0.00     0.012 A 
HETATM   22  C   UNL     1       8.050  32.633  63.556  1.00  0.00     0.003 A 
HETATM   23  C   UNL     1       8.327  31.789  62.480  1.00  0.00     0.029 A 
BRANCH  20  24
HETATM   24  C   UNL     1       4.661  33.958  62.581  1.00  0.00     0.010 A 
HETATM   25  C   UNL     1       4.384  35.332  62.783  1.00  0.00     0.152 A 
HETATM   26  N   UNL     1       3.078  35.611  62.742  1.00  0.00    -0.187 NA
HETATM   27  N   UNL     1       2.511  34.414  62.527  1.00  0.00    -0.289 N 
HETATM   28  H   UNL     1       1.499  34.368  62.464  1.00  0.00     0.188 HD
HETATM   29  C   UNL     1       3.413  33.395  62.421  1.00  0.00     0.123 A 
ENDBRANCH  20  24
ENDBRANCH   2  18
TORSDOF 6
ENDMDL
MODEL 10
REMARK VINA RESULT:      -8.8      5.484     10.978
REMARK  6 active torsions:
REMARK  status: ('A' for Active; 'I' for Inactive)
REMARK    1  A    between atoms: C_2  and  N_3 
REMARK    2  A    between atoms: C_2  and  C_12 
REMARK       I    between atoms: N_3  and  C_4 
REMARK    3  A    between atoms: C_4  and  C_5 
REMARK    4  A    between atoms: C_12  and  C_13 
REMARK       I    between atoms: C_13  and  N_14 
REMARK    5  A    between atoms: N_14  and  C_15 
REMARK    6  A    between atoms: C_17  and  C_18 
ROOT
HETATM    1  C   UNL     1       4.876  32.285  59.868  1.00  0.00     0.224 C 
HETATM    2  N   UNL     1       5.009  31.751  61.137  1.00  0.00    -0.327 N 
HETATM    3  O   UNL     1       5.550  33.188  59.382  1.00  0.00    -0.273 OA
HETATM    4  H   UNL     1       4.437  30.944  61.356  1.00  0.00     0.169 HD
ENDROOT
BRANCH   1   5
HETATM    5  C   UNL     1       3.808  31.607  59.038  1.00  0.00     0.128 C 
BRANCH   5   6
HETATM    6  C   UNL     1       4.437  30.588  58.081  1.00  0.00     0.089 C 
HETATM    7  C   UNL     1       3.879  30.703  56.661  1.00  0.00     0.032 C 
BRANCH   6   8
HETATM    8  N   UNL     1       5.897  30.674  58.090  1.00  0.00    -0.352 N 
HETATM    9  C   UNL     1       6.726  29.605  57.815  1.00  0.00     0.252 C 
HETATM   10  O   UNL     1       6.316  28.470  57.601  1.00  0.00    -0.268 OA
HETATM   11  H   UNL     1       6.289  31.605  58.038  1.00  0.00     0.163 HD
BRANCH   9  12
HETATM   12  C   UNL     1       8.182  29.912  57.721  1.00  0.00     0.032 A 
HETATM   13  C   UNL     1       8.776  30.943  58.462  1.00  0.00     0.017 A 
HETATM   14  C   UNL     1      10.141  31.210  58.320  1.00  0.00     0.001 A 
HETATM   15  C   UNL     1      10.917  30.442  57.451  1.00  0.00     0.000 A 
HETATM   16  C   UNL     1      10.335  29.402  56.728  1.00  0.00     0.001 A 
HETATM   17  C   UNL     1       8.971  29.134  56.866  1.00  0.00     0.017 A 
ENDBRANCH   9  12
ENDBRANCH   6   8
ENDBRANCH   5   6
ENDBRANCH   1   5
BRANCH   2  18
HETATM   18  C   UNL     1       5.867  32.198  62.165  1.00  0.00     0.035 A 
HETATM   19  C   UNL     1       5.420  32.770  63.361  1.00  0.00     0.042 A 
HETATM   20  C   UNL     1       6.322  33.170  64.361  1.00  0.00    -0.021 A 
HETATM   21  C   UNL     1       7.694  32.998  64.139  1.00  0.00     0.012 A 
HETATM   22  C   UNL     1       8.152  32.432  62.948  1.00  0.00     0.003 A 
HETATM   23  C   UNL     1       7.242  32.029  61.970  1.00  0.00     0.029 A 
BRANCH  20  24
HETATM   24  C   UNL     1       5.823  33.727  65.610  1.00  0.00     0.010 A 
HETATM   25  C   UNL     1       6.513  34.146  66.775  1.00  0.00     0.152 A 
HETATM   26  N   UNL     1       5.695  34.610  67.724  1.00  0.00    -0.187 NA
HETATM   27  N   UNL     1       4.477  34.478  67.178  1.00  0.00    -0.289 N 
HETATM   28  H   UNL     1       3.673  34.764  67.727  1.00  0.00     0.188 HD
HETATM   29  C   UNL     1       4.499  33.958  65.916  1.00  0.00     0.123 A 
ENDBRANCH  20  24
ENDBRANCH   2  18
TORSDOF 6
ENDMDL
