MODEL 1
REMARK VINA RESULT:      -9.4      0.000      0.000
REMARK  5 active torsions:
REMARK  status: ('A' for Active; 'I' for Inactive)
REMARK    1  A    between atoms: C_5  and  O_6 
REMARK    2  A    between atoms: O_6  and  C_7 
REMARK    3  A    between atoms: C_7  and  C_8 
REMARK       I    between atoms: C_8  and  N_9 
REMARK    4  A    between atoms: N_9  and  N_10 
REMARK    5  A    between atoms: C_11  and  C_12 
ROOT
HETATM    1  C   UNL     1       8.249  28.208  57.327  1.00  0.00     0.261 C 
HETATM    2  N   UNL     1       7.427  27.140  56.993  1.00  0.00    -0.246 N 
HETATM    3  O   UNL     1       9.446  28.296  57.054  1.00  0.00    -0.269 OA
HETATM    4  H   UNL     1       6.437  27.185  57.215  1.00  0.00     0.192 HD
ENDROOT
BRANCH   2   5
HETATM    5  N   UNL     1       7.941  26.087  56.297  1.00  0.00    -0.184 NA
HETATM    6  C   UNL     1       7.121  25.437  55.539  1.00  0.00     0.153 C 
BRANCH   6   7
HETATM    7  C   UNL     1       7.599  24.301  54.770  1.00  0.00     0.018 A 
HETATM    8  C   UNL     1       7.948  22.987  55.233  1.00  0.00     0.004 A 
HETATM    9  C   UNL     1       8.351  22.245  54.124  1.00  0.00     0.043 A 
HETATM   10  C   UNL     1       7.965  22.354  56.496  1.00  0.00     0.014 A 
HETATM   11  C   UNL     1       8.766  20.910  54.210  1.00  0.00     0.030 A 
HETATM   12  N   UNL     1       8.247  23.066  53.029  1.00  0.00    -0.358 N 
HETATM   13  C   UNL     1       8.774  20.311  55.473  1.00  0.00     0.002 A 
HETATM   14  C   UNL     1       8.379  21.021  56.602  1.00  0.00     0.001 A 
HETATM   15  H   UNL     1       8.471  22.779  52.085  1.00  0.00     0.166 HD
HETATM   16  C   UNL     1       7.796  24.312  53.394  1.00  0.00     0.018 A 
HETATM   17  C   UNL     1       7.582  25.377  52.381  1.00  0.00     0.069 C 
ENDBRANCH   6   7
ENDBRANCH   2   5
BRANCH   1  18
HETATM   18  C   UNL     1       7.556  29.253  58.192  1.00  0.00     0.280 C 
BRANCH  18  19
HETATM   19  O   UNL     1       8.348  30.439  58.309  1.00  0.00    -0.342 OA
BRANCH  19  20
HETATM   20  C   UNL     1       8.226  30.992  59.557  1.00  0.00     0.069 A 
HETATM   21  C   UNL     1       9.189  30.659  60.507  1.00  0.00     0.037 A 
HETATM   22  C   UNL     1       9.112  31.195  61.796  1.00  0.00     0.009 A 
HETATM   23  C   UNL     1       8.084  32.086  62.133  1.00  0.00    -0.062 A 
HETATM   24  C   UNL     1       7.974  32.649  63.520  1.00  0.00     0.048 C 
HETATM   25  C   UNL     1       7.136  32.431  61.161  1.00  0.00     0.009 A 
HETATM   26  C   UNL     1       7.211  31.894  59.875  1.00  0.00     0.037 A 
ENDBRANCH  19  20
ENDBRANCH  18  19
ENDBRANCH   1  18
TORSDOF 5
ENDMDL
MODEL 2
REMARK VINA RESULT:      -9.2      5.287      9.359
REMARK  5 active torsions:
REMARK  status: ('A' for Active; 'I' for Inactive)
REMARK    1  A    between atoms: C_5  and  O_6 
REMARK    2  A    between atoms: O_6  and  C_7 
REMARK    3  A    between atoms: C_7  and  C_8 
REMARK       I    between atoms: C_8  and  N_9 
REMARK    4  A    between atoms: N_9  and  N_10 
REMARK    5  A    between atoms: C_11  and  C_12 
ROOT
HETATM    1  C   UNL     1       5.808  27.115  51.496  1.00  0.00     0.261 C 
HETATM    2  N   UNL     1       6.369  25.867  51.268  1.00  0.00    -0.246 N 
HETATM    3  O   UNL     1       5.815  27.712  52.572  1.00  0.00    -0.269 OA
HETATM    4  H   UNL     1       6.362  25.480  50.329  1.00  0.00     0.192 HD
ENDROOT
BRANCH   2   5
HETATM    5  N   UNL     1       6.999  25.216  52.287  1.00  0.00    -0.184 NA
HETATM    6  C   UNL     1       6.282  24.394  52.980  1.00  0.00     0.153 C 
BRANCH   6   7
HETATM    7  C   UNL     1       6.885  23.668  54.084  1.00  0.00     0.018 A 
HETATM    8  C   UNL     1       7.570  22.405  54.059  1.00  0.00     0.004 A 
HETATM    9  C   UNL     1       7.970  22.119  55.364  1.00  0.00     0.043 A 
HETATM   10  C   UNL     1       7.886  21.469  53.050  1.00  0.00     0.014 A 
HETATM   11  C   UNL     1       8.667  20.955  55.711  1.00  0.00     0.030 A 
HETATM   12  N   UNL     1       7.554  23.164  56.152  1.00  0.00    -0.358 N 
HETATM   13  C   UNL     1       8.964  20.047  54.691  1.00  0.00     0.002 A 
HETATM   14  C   UNL     1       8.580  20.298  53.377  1.00  0.00     0.001 A 
HETATM   15  H   UNL     1       7.719  23.221  57.148  1.00  0.00     0.166 HD
HETATM   16  C   UNL     1       6.897  24.109  55.402  1.00  0.00     0.018 A 
HETATM   17  C   UNL     1       6.366  25.349  56.025  1.00  0.00     0.069 C 
ENDBRANCH   6   7
ENDBRANCH   2   5
BRANCH   1  18
HETATM   18  C   UNL     1       5.052  27.664  50.291  1.00  0.00     0.280 C 
BRANCH  18  19
HETATM   19  O   UNL     1       4.823  26.644  49.314  1.00  0.00    -0.342 OA
BRANCH  19  20
HETATM   20  C   UNL     1       3.662  26.876  48.623  1.00  0.00     0.069 A 
HETATM   21  C   UNL     1       3.367  26.032  47.556  1.00  0.00     0.037 A 
HETATM   22  C   UNL     1       2.196  26.225  46.816  1.00  0.00     0.009 A 
HETATM   23  C   UNL     1       1.302  27.247  47.158  1.00  0.00    -0.062 A 
HETATM   24  C   UNL     1       0.054  27.482  46.359  1.00  0.00     0.048 C 
HETATM   25  C   UNL     1       1.599  28.075  48.250  1.00  0.00     0.009 A 
HETATM   26  C   UNL     1       2.769  27.884  48.987  1.00  0.00     0.037 A 
ENDBRANCH  19  20
ENDBRANCH  18  19
ENDBRANCH   1  18
TORSDOF 5
ENDMDL
MODEL 3
REMARK VINA RESULT:      -9.1      2.115      9.907
REMARK  5 active torsions:
REMARK  status: ('A' for Active; 'I' for Inactive)
REMARK    1  A    between atoms: C_5  and  O_6 
REMARK    2  A    between atoms: O_6  and  C_7 
REMARK    3  A    between atoms: C_7  and  C_8 
REMARK       I    between atoms: C_8  and  N_9 
REMARK    4  A    between atoms: N_9  and  N_10 
REMARK    5  A    between atoms: C_11  and  C_12 
ROOT
HETATM    1  C   UNL     1       6.909  26.683  56.737  1.00  0.00     0.261 C 
HETATM    2  N   UNL     1       7.922  27.446  57.302  1.00  0.00    -0.246 N 
HETATM    3  O   UNL     1       5.709  26.802  56.981  1.00  0.00    -0.269 OA
HETATM    4  H   UNL     1       8.880  27.310  56.995  1.00  0.00     0.192 HD
ENDROOT
BRANCH   2   5
HETATM    5  N   UNL     1       7.607  28.424  58.199  1.00  0.00    -0.184 NA
HETATM    6  C   UNL     1       7.611  29.637  57.756  1.00  0.00     0.153 C 
BRANCH   6   7
HETATM    7  C   UNL     1       7.288  30.732  58.655  1.00  0.00     0.018 A 
HETATM    8  C   UNL     1       7.900  31.073  59.909  1.00  0.00     0.004 A 
HETATM    9  C   UNL     1       7.247  32.203  60.401  1.00  0.00     0.043 A 
HETATM   10  C   UNL     1       8.949  30.526  60.681  1.00  0.00     0.014 A 
HETATM   11  C   UNL     1       7.586  32.812  61.616  1.00  0.00     0.030 A 
HETATM   12  N   UNL     1       6.281  32.542  59.485  1.00  0.00    -0.358 N 
HETATM   13  C   UNL     1       8.627  32.246  62.358  1.00  0.00     0.002 A 
HETATM   14  C   UNL     1       9.301  31.119  61.899  1.00  0.00     0.001 A 
HETATM   15  H   UNL     1       5.659  33.333  59.588  1.00  0.00     0.166 HD
HETATM   16  C   UNL     1       6.287  31.668  58.425  1.00  0.00     0.018 A 
HETATM   17  C   UNL     1       5.343  31.836  57.289  1.00  0.00     0.069 C 
ENDBRANCH   6   7
ENDBRANCH   2   5
BRANCH   1  18
HETATM   18  C   UNL     1       7.428  25.566  55.839  1.00  0.00     0.280 C 
BRANCH  18  19
HETATM   19  O   UNL     1       7.107  24.279  56.373  1.00  0.00    -0.342 OA
BRANCH  19  20
HETATM   20  C   UNL     1       7.419  23.284  55.484  1.00  0.00     0.069 A 
HETATM   21  C   UNL     1       7.510  23.628  54.138  1.00  0.00     0.037 A 
HETATM   22  C   UNL     1       7.826  22.652  53.187  1.00  0.00     0.009 A 
HETATM   23  C   UNL     1       8.075  21.332  53.584  1.00  0.00    -0.062 A 
HETATM   24  C   UNL     1       8.389  20.268  52.573  1.00  0.00     0.048 C 
HETATM   25  C   UNL     1       8.003  21.004  54.944  1.00  0.00     0.009 A 
HETATM   26  C   UNL     1       7.686  21.978  55.893  1.00  0.00     0.037 A 
ENDBRANCH  19  20
ENDBRANCH  18  19
ENDBRANCH   1  18
TORSDOF 5
ENDMDL
MODEL 4
REMARK VINA RESULT:      -8.9      1.594      2.172
REMARK  5 active torsions:
REMARK  status: ('A' for Active; 'I' for Inactive)
REMARK    1  A    between atoms: C_5  and  O_6 
REMARK    2  A    between atoms: O_6  and  C_7 
REMARK    3  A    between atoms: C_7  and  C_8 
REMARK       I    between atoms: C_8  and  N_9 
REMARK    4  A    between atoms: N_9  and  N_10 
REMARK    5  A    between atoms: C_11  and  C_12 
ROOT
HETATM    1  C   UNL     1       5.429  27.650  56.362  1.00  0.00     0.261 C 
HETATM    2  N   UNL     1       6.345  26.666  56.708  1.00  0.00    -0.246 N 
HETATM    3  O   UNL     1       4.669  27.606  55.395  1.00  0.00    -0.269 OA
HETATM    4  H   UNL     1       6.890  26.769  57.559  1.00  0.00     0.192 HD
ENDROOT
BRANCH   2   5
HETATM    5  N   UNL     1       6.438  25.537  55.950  1.00  0.00    -0.184 NA
HETATM    6  C   UNL     1       7.577  25.312  55.383  1.00  0.00     0.153 C 
BRANCH   6   7
HETATM    7  C   UNL     1       7.749  24.130  54.557  1.00  0.00     0.018 A 
HETATM    8  C   UNL     1       7.989  22.775  54.969  1.00  0.00     0.004 A 
HETATM    9  C   UNL     1       8.082  21.996  53.816  1.00  0.00     0.043 A 
HETATM   10  C   UNL     1       8.141  22.132  56.217  1.00  0.00     0.014 A 
HETATM   11  C   UNL     1       8.318  20.616  53.845  1.00  0.00     0.030 A 
HETATM   12  N   UNL     1       7.901  22.836  52.745  1.00  0.00    -0.358 N 
HETATM   13  C   UNL     1       8.466  20.008  55.095  1.00  0.00     0.002 A 
HETATM   14  C   UNL     1       8.379  20.753  56.267  1.00  0.00     0.001 A 
HETATM   15  H   UNL     1       7.913  22.532  51.781  1.00  0.00     0.166 HD
HETATM   16  C   UNL     1       7.699  24.128  53.168  1.00  0.00     0.018 A 
HETATM   17  C   UNL     1       7.459  25.224  52.194  1.00  0.00     0.069 C 
ENDBRANCH   6   7
ENDBRANCH   2   5
BRANCH   1  18
HETATM   18  C   UNL     1       5.518  28.891  57.242  1.00  0.00     0.280 C 
BRANCH  18  19
HETATM   19  O   UNL     1       6.500  29.808  56.749  1.00  0.00    -0.342 OA
BRANCH  19  20
HETATM   20  C   UNL     1       7.260  30.313  57.772  1.00  0.00     0.069 A 
HETATM   21  C   UNL     1       6.695  31.309  58.564  1.00  0.00     0.037 A 
HETATM   22  C   UNL     1       7.427  31.860  59.621  1.00  0.00     0.009 A 
HETATM   23  C   UNL     1       8.718  31.398  59.904  1.00  0.00    -0.062 A 
HETATM   24  C   UNL     1       9.526  31.997  61.019  1.00  0.00     0.048 C 
HETATM   25  C   UNL     1       9.266  30.379  59.114  1.00  0.00     0.009 A 
HETATM   26  C   UNL     1       8.537  29.830  58.058  1.00  0.00     0.037 A 
ENDBRANCH  19  20
ENDBRANCH  18  19
ENDBRANCH   1  18
TORSDOF 5
ENDMDL
MODEL 5
REMARK VINA RESULT:      -8.8      1.653      2.302
REMARK  5 active torsions:
REMARK  status: ('A' for Active; 'I' for Inactive)
REMARK    1  A    between atoms: C_5  and  O_6 
REMARK    2  A    between atoms: O_6  and  C_7 
REMARK    3  A    between atoms: C_7  and  C_8 
REMARK       I    between atoms: C_8  and  N_9 
REMARK    4  A    between atoms: N_9  and  N_10 
REMARK    5  A    between atoms: C_11  and  C_12 
ROOT
HETATM    1  C   UNL     1       9.751  30.335  57.698  1.00  0.00     0.261 C 
HETATM    2  N   UNL     1       8.785  29.363  57.919  1.00  0.00    -0.246 N 
HETATM    3  O   UNL     1      10.632  30.280  56.841  1.00  0.00    -0.269 OA
HETATM    4  H   UNL     1       8.064  29.525  58.615  1.00  0.00     0.192 HD
ENDROOT
BRANCH   2   5
HETATM    5  N   UNL     1       8.766  28.245  57.140  1.00  0.00    -0.184 NA
HETATM    6  C   UNL     1       7.670  28.002  56.501  1.00  0.00     0.153 C 
BRANCH   6   7
HETATM    7  C   UNL     1       7.577  26.825  55.654  1.00  0.00     0.018 A 
HETATM    8  C   UNL     1       7.840  25.454  55.990  1.00  0.00     0.004 A 
HETATM    9  C   UNL     1       7.612  24.690  54.846  1.00  0.00     0.043 A 
HETATM   10  C   UNL     1       8.258  24.785  57.162  1.00  0.00     0.014 A 
HETATM   11  C   UNL     1       7.778  23.299  54.812  1.00  0.00     0.030 A 
HETATM   12  N   UNL     1       7.220  25.555  53.855  1.00  0.00    -0.358 N 
HETATM   13  C   UNL     1       8.194  22.665  55.987  1.00  0.00     0.002 A 
HETATM   14  C   UNL     1       8.431  23.396  57.147  1.00  0.00     0.001 A 
HETATM   15  H   UNL     1       6.982  25.266  52.915  1.00  0.00     0.166 HD
HETATM   16  C   UNL     1       7.192  26.848  54.318  1.00  0.00     0.018 A 
HETATM   17  C   UNL     1       6.778  27.969  53.436  1.00  0.00     0.069 C 
ENDBRANCH   6   7
ENDBRANCH   2   5
BRANCH   1  18
HETATM   18  C   UNL     1       9.705  31.470  58.714  1.00  0.00     0.280 C 
BRANCH  18  19
HETATM   19  O   UNL     1       8.371  31.956  58.890  1.00  0.00    -0.342 OA
BRANCH  19  20
HETATM   20  C   UNL     1       8.113  32.222  60.210  1.00  0.00     0.069 A 
HETATM   21  C   UNL     1       9.069  31.833  61.144  1.00  0.00     0.037 A 
HETATM   22  C   UNL     1       8.856  32.080  62.504  1.00  0.00     0.009 A 
HETATM   23  C   UNL     1       7.698  32.740  62.932  1.00  0.00    -0.062 A 
HETATM   24  C   UNL     1       7.444  32.990  64.390  1.00  0.00     0.048 C 
HETATM   25  C   UNL     1       6.755  33.148  61.979  1.00  0.00     0.009 A 
HETATM   26  C   UNL     1       6.966  32.900  60.621  1.00  0.00     0.037 A 
ENDBRANCH  19  20
ENDBRANCH  18  19
ENDBRANCH   1  18
TORSDOF 5
ENDMDL
MODEL 6
REMARK VINA RESULT:      -8.8      2.142      9.645
REMARK  5 active torsions:
REMARK  status: ('A' for Active; 'I' for Inactive)
REMARK    1  A    between atoms: C_5  and  O_6 
REMARK    2  A    between atoms: O_6  and  C_7 
REMARK    3  A    between atoms: C_7  and  C_8 
REMARK       I    between atoms: C_8  and  N_9 
REMARK    4  A    between atoms: N_9  and  N_10 
REMARK    5  A    between atoms: C_11  and  C_12 
ROOT
HETATM    1  C   UNL     1       7.155  27.963  54.843  1.00  0.00     0.261 C 
HETATM    2  N   UNL     1       8.090  28.326  55.803  1.00  0.00    -0.246 N 
HETATM    3  O   UNL     1       6.136  28.594  54.569  1.00  0.00    -0.269 OA
HETATM    4  H   UNL     1       8.930  27.768  55.918  1.00  0.00     0.192 HD
ENDROOT
BRANCH   2   5
HETATM    5  N   UNL     1       7.910  29.474  56.517  1.00  0.00    -0.184 NA
HETATM    6  C   UNL     1       7.416  29.347  57.703  1.00  0.00     0.153 C 
BRANCH   6   7
HETATM    7  C   UNL     1       7.193  30.527  58.520  1.00  0.00     0.018 A 
HETATM    8  C   UNL     1       7.890  30.942  59.706  1.00  0.00     0.004 A 
HETATM    9  C   UNL     1       7.316  32.139  60.133  1.00  0.00     0.043 A 
HETATM   10  C   UNL     1       8.955  30.410  60.466  1.00  0.00     0.014 A 
HETATM   11  C   UNL     1       7.750  32.830  61.271  1.00  0.00     0.030 A 
HETATM   12  N   UNL     1       6.317  32.448  59.243  1.00  0.00    -0.358 N 
HETATM   13  C   UNL     1       8.805  32.278  62.004  1.00  0.00     0.002 A 
HETATM   14  C   UNL     1       9.402  31.085  61.608  1.00  0.00     0.001 A 
HETATM   15  H   UNL     1       5.737  33.274  59.309  1.00  0.00     0.166 HD
HETATM   16  C   UNL     1       6.223  31.489  58.263  1.00  0.00     0.018 A 
HETATM   17  C   UNL     1       5.226  31.607  57.168  1.00  0.00     0.069 C 
ENDBRANCH   6   7
ENDBRANCH   2   5
BRANCH   1  18
HETATM   18  C   UNL     1       7.442  26.607  54.208  1.00  0.00     0.280 C 
BRANCH  18  19
HETATM   19  O   UNL     1       7.676  25.606  55.204  1.00  0.00    -0.342 OA
BRANCH  19  20
HETATM   20  C   UNL     1       7.886  24.380  54.629  1.00  0.00     0.069 A 
HETATM   21  C   UNL     1       8.625  23.447  55.353  1.00  0.00     0.037 A 
HETATM   22  C   UNL     1       8.870  22.181  54.814  1.00  0.00     0.009 A 
HETATM   23  C   UNL     1       8.356  21.834  53.558  1.00  0.00    -0.062 A 
HETATM   24  C   UNL     1       8.632  20.487  52.955  1.00  0.00     0.048 C 
HETATM   25  C   UNL     1       7.595  22.773  52.850  1.00  0.00     0.009 A 
HETATM   26  C   UNL     1       7.352  24.039  53.387  1.00  0.00     0.037 A 
ENDBRANCH  19  20
ENDBRANCH  18  19
ENDBRANCH   1  18
TORSDOF 5
ENDMDL
MODEL 7
REMARK VINA RESULT:      -8.7      2.105      3.382
REMARK  5 active torsions:
REMARK  status: ('A' for Active; 'I' for Inactive)
REMARK    1  A    between atoms: C_5  and  O_6 
REMARK    2  A    between atoms: O_6  and  C_7 
REMARK    3  A    between atoms: C_7  and  C_8 
REMARK       I    between atoms: C_8  and  N_9 
REMARK    4  A    between atoms: N_9  and  N_10 
REMARK    5  A    between atoms: C_11  and  C_12 
ROOT
HETATM    1  C   UNL     1       9.543  29.978  57.208  1.00  0.00     0.261 C 
HETATM    2  N   UNL     1       8.857  28.856  57.649  1.00  0.00    -0.246 N 
HETATM    3  O   UNL     1      10.053  30.109  56.096  1.00  0.00    -0.269 OA
HETATM    4  H   UNL     1       8.423  28.864  58.567  1.00  0.00     0.192 HD
ENDROOT
BRANCH   2   5
HETATM    5  N   UNL     1       8.701  27.791  56.812  1.00  0.00    -0.184 NA
HETATM    6  C   UNL     1       7.569  27.170  56.868  1.00  0.00     0.153 C 
BRANCH   6   7
HETATM    7  C   UNL     1       7.333  26.024  56.008  1.00  0.00     0.018 A 
HETATM    8  C   UNL     1       6.491  25.931  54.848  1.00  0.00     0.004 A 
HETATM    9  C   UNL     1       6.592  24.630  54.359  1.00  0.00     0.043 A 
HETATM   10  C   UNL     1       5.643  26.832  54.165  1.00  0.00     0.014 A 
HETATM   11  C   UNL     1       5.895  24.183  53.228  1.00  0.00     0.030 A 
HETATM   12  N   UNL     1       7.463  23.956  55.179  1.00  0.00    -0.358 N 
HETATM   13  C   UNL     1       5.063  25.096  52.575  1.00  0.00     0.002 A 
HETATM   14  C   UNL     1       4.937  26.404  53.035  1.00  0.00     0.001 A 
HETATM   15  H   UNL     1       7.726  22.989  55.050  1.00  0.00     0.166 HD
HETATM   16  C   UNL     1       7.922  24.777  56.181  1.00  0.00     0.018 A 
HETATM   17  C   UNL     1       8.895  24.284  57.190  1.00  0.00     0.069 C 
ENDBRANCH   6   7
ENDBRANCH   2   5
BRANCH   1  18
HETATM   18  C   UNL     1       9.723  31.036  58.290  1.00  0.00     0.280 C 
BRANCH  18  19
HETATM   19  O   UNL     1       8.503  31.742  58.534  1.00  0.00    -0.342 OA
BRANCH  19  20
HETATM   20  C   UNL     1       8.337  31.993  59.871  1.00  0.00     0.069 A 
HETATM   21  C   UNL     1       7.092  32.453  60.291  1.00  0.00     0.037 A 
HETATM   22  C   UNL     1       6.868  32.724  61.644  1.00  0.00     0.009 A 
HETATM   23  C   UNL     1       7.883  32.514  62.586  1.00  0.00    -0.062 A 
HETATM   24  C   UNL     1       7.666  32.825  64.038  1.00  0.00     0.048 C 
HETATM   25  C   UNL     1       9.124  32.028  62.154  1.00  0.00     0.009 A 
HETATM   26  C   UNL     1       9.348  31.759  60.802  1.00  0.00     0.037 A 
ENDBRANCH  19  20
ENDBRANCH  18  19
ENDBRANCH   1  18
TORSDOF 5
ENDMDL
MODEL 8
REMARK VINA RESULT:      -8.6      1.812      3.196
REMARK  5 active torsions:
REMARK  status: ('A' for Active; 'I' for Inactive)
REMARK    1  A    between atoms: C_5  and  O_6 
REMARK    2  A    between atoms: O_6  and  C_7 
REMARK    3  A    between atoms: C_7  and  C_8 
REMARK       I    between atoms: C_8  and  N_9 
REMARK    4  A    between atoms: N_9  and  N_10 
REMARK    5  A    between atoms: C_11  and  C_12 
ROOT
HETATM    1  C   UNL     1       8.553  29.720  58.162  1.00  0.00     0.261 C 
HETATM    2  N   UNL     1       7.816  28.543  58.138  1.00  0.00    -0.246 N 
HETATM    3  O   UNL     1       9.594  29.919  57.538  1.00  0.00    -0.269 OA
HETATM    4  H   UNL     1       6.938  28.494  58.644  1.00  0.00     0.192 HD
ENDROOT
BRANCH   2   5
HETATM    5  N   UNL     1       8.239  27.501  57.366  1.00  0.00    -0.184 NA
HETATM    6  C   UNL     1       7.321  26.792  56.797  1.00  0.00     0.153 C 
BRANCH   6   7
HETATM    7  C   UNL     1       7.697  25.664  55.963  1.00  0.00     0.018 A 
HETATM    8  C   UNL     1       7.518  25.496  54.548  1.00  0.00     0.004 A 
HETATM    9  C   UNL     1       8.039  24.249  54.204  1.00  0.00     0.043 A 
HETATM   10  C   UNL     1       6.956  26.285  53.520  1.00  0.00     0.014 A 
HETATM   11  C   UNL     1       8.029  23.752  52.894  1.00  0.00     0.030 A 
HETATM   12  N   UNL     1       8.521  23.681  55.357  1.00  0.00    -0.358 N 
HETATM   13  C   UNL     1       7.464  24.556  51.899  1.00  0.00     0.002 A 
HETATM   14  C   UNL     1       6.935  25.806  52.205  1.00  0.00     0.001 A 
HETATM   15  H   UNL     1       8.963  22.773  55.397  1.00  0.00     0.166 HD
HETATM   16  C   UNL     1       8.325  24.516  56.431  1.00  0.00     0.018 A 
HETATM   17  C   UNL     1       8.780  24.133  57.793  1.00  0.00     0.069 C 
ENDBRANCH   6   7
ENDBRANCH   2   5
BRANCH   1  18
HETATM   18  C   UNL     1       8.011  30.748  59.148  1.00  0.00     0.280 C 
BRANCH  18  19
HETATM   19  O   UNL     1       8.747  30.729  60.375  1.00  0.00    -0.342 OA
BRANCH  19  20
HETATM   20  C   UNL     1       8.199  31.588  61.292  1.00  0.00     0.069 A 
HETATM   21  C   UNL     1       7.283  32.528  60.827  1.00  0.00     0.037 A 
HETATM   22  C   UNL     1       6.694  33.429  61.719  1.00  0.00     0.009 A 
HETATM   23  C   UNL     1       7.002  33.377  63.085  1.00  0.00    -0.062 A 
HETATM   24  C   UNL     1       6.398  34.354  64.051  1.00  0.00     0.048 C 
HETATM   25  C   UNL     1       7.907  32.411  63.543  1.00  0.00     0.009 A 
HETATM   26  C   UNL     1       8.497  31.512  62.652  1.00  0.00     0.037 A 
ENDBRANCH  19  20
ENDBRANCH  18  19
ENDBRANCH   1  18
TORSDOF 5
ENDMDL
MODEL 9
REMARK VINA RESULT:      -8.3      2.398      3.573
REMARK  5 active torsions:
REMARK  status: ('A' for Active; 'I' for Inactive)
REMARK    1  A    between atoms: C_5  and  O_6 
REMARK    2  A    between atoms: O_6  and  C_7 
REMARK    3  A    between atoms: C_7  and  C_8 
REMARK       I    between atoms: C_8  and  N_9 
REMARK    4  A    between atoms: N_9  and  N_10 
REMARK    5  A    between atoms: C_11  and  C_12 
ROOT
HETATM    1  C   UNL     1       8.056  29.408  57.948  1.00  0.00     0.261 C 
HETATM    2  N   UNL     1       6.830  29.603  57.325  1.00  0.00    -0.246 N 
HETATM    3  O   UNL     1       8.726  28.378  57.891  1.00  0.00    -0.269 OA
HETATM    4  H   UNL     1       6.379  30.511  57.385  1.00  0.00     0.192 HD
ENDROOT
BRANCH   2   5
HETATM    5  N   UNL     1       6.292  28.602  56.572  1.00  0.00    -0.184 NA
HETATM    6  C   UNL     1       6.190  28.823  55.303  1.00  0.00     0.153 C 
BRANCH   6   7
HETATM    7  C   UNL     1       5.623  27.803  54.439  1.00  0.00     0.018 A 
HETATM    8  C   UNL     1       6.149  26.507  54.115  1.00  0.00     0.004 A 
HETATM    9  C   UNL     1       5.248  25.892  53.247  1.00  0.00     0.043 A 
HETATM   10  C   UNL     1       7.314  25.793  54.475  1.00  0.00     0.014 A 
HETATM   11  C   UNL     1       5.449  24.608  52.722  1.00  0.00     0.030 A 
HETATM   12  N   UNL     1       4.212  26.771  53.051  1.00  0.00    -0.358 N 
HETATM   13  C   UNL     1       6.611  23.928  53.096  1.00  0.00     0.002 A 
HETATM   14  C   UNL     1       7.533  24.510  53.961  1.00  0.00     0.001 A 
HETATM   15  H   UNL     1       3.411  26.578  52.466  1.00  0.00     0.166 HD
HETATM   16  C   UNL     1       4.416  27.931  53.759  1.00  0.00     0.018 A 
HETATM   17  C   UNL     1       3.422  29.034  53.727  1.00  0.00     0.069 C 
ENDBRANCH   6   7
ENDBRANCH   2   5
BRANCH   1  18
HETATM   18  C   UNL     1       8.472  30.575  58.835  1.00  0.00     0.280 C 
BRANCH  18  19
HETATM   19  O   UNL     1       8.619  30.165  60.197  1.00  0.00    -0.342 OA
BRANCH  19  20
HETATM   20  C   UNL     1       8.138  31.120  61.055  1.00  0.00     0.069 A 
HETATM   21  C   UNL     1       7.148  31.975  60.578  1.00  0.00     0.037 A 
HETATM   22  C   UNL     1       6.622  32.968  61.410  1.00  0.00     0.009 A 
HETATM   23  C   UNL     1       7.069  33.094  62.732  1.00  0.00    -0.062 A 
HETATM   24  C   UNL     1       6.532  34.170  63.629  1.00  0.00     0.048 C 
HETATM   25  C   UNL     1       8.049  32.212  63.207  1.00  0.00     0.009 A 
HETATM   26  C   UNL     1       8.575  31.222  62.375  1.00  0.00     0.037 A 
ENDBRANCH  19  20
ENDBRANCH  18  19
ENDBRANCH   1  18
TORSDOF 5
ENDMDL
MODEL 10
REMARK VINA RESULT:      -8.2      2.544      9.146
REMARK  5 active torsions:
REMARK  status: ('A' for Active; 'I' for Inactive)
REMARK    1  A    between atoms: C_5  and  O_6 
REMARK    2  A    between atoms: O_6  and  C_7 
REMARK    3  A    between atoms: C_7  and  C_8 
REMARK       I    between atoms: C_8  and  N_9 
REMARK    4  A    between atoms: N_9  and  N_10 
REMARK    5  A    between atoms: C_11  and  C_12 
ROOT
HETATM    1  C   UNL     1       6.009  28.026  54.344  1.00  0.00     0.261 C 
HETATM    2  N   UNL     1       7.356  28.312  54.514  1.00  0.00    -0.246 N 
HETATM    3  O   UNL     1       5.084  28.579  54.938  1.00  0.00    -0.269 OA
HETATM    4  H   UNL     1       8.044  27.839  53.936  1.00  0.00     0.192 HD
ENDROOT
BRANCH   2   5
HETATM    5  N   UNL     1       7.732  29.284  55.393  1.00  0.00    -0.184 NA
HETATM    6  C   UNL     1       8.382  28.899  56.440  1.00  0.00     0.153 C 
BRANCH   6   7
HETATM    7  C   UNL     1       8.811  29.880  57.422  1.00  0.00     0.018 A 
HETATM    8  C   UNL     1       8.005  30.701  58.282  1.00  0.00     0.004 A 
HETATM    9  C   UNL     1       8.870  31.483  59.047  1.00  0.00     0.043 A 
HETATM   10  C   UNL     1       6.616  30.860  58.482  1.00  0.00     0.014 A 
HETATM   11  C   UNL     1       8.422  32.409  59.997  1.00  0.00     0.030 A 
HETATM   12  N   UNL     1      10.150  31.150  58.677  1.00  0.00    -0.358 N 
HETATM   13  C   UNL     1       7.042  32.546  60.171  1.00  0.00     0.002 A 
HETATM   14  C   UNL     1       6.149  31.783  59.426  1.00  0.00     0.001 A 
HETATM   15  H   UNL     1      10.980  31.563  59.080  1.00  0.00     0.166 HD
HETATM   16  C   UNL     1      10.139  30.186  57.697  1.00  0.00     0.018 A 
HETATM   17  C   UNL     1      11.406  29.644  57.142  1.00  0.00     0.069 C 
ENDBRANCH   6   7
ENDBRANCH   2   5
BRANCH   1  18
HETATM   18  C   UNL     1       5.757  26.848  53.410  1.00  0.00     0.280 C 
BRANCH  18  19
HETATM   19  O   UNL     1       5.241  25.721  54.123  1.00  0.00    -0.342 OA
BRANCH  19  20
HETATM   20  C   UNL     1       6.151  24.696  54.153  1.00  0.00     0.069 A 
HETATM   21  C   UNL     1       6.602  24.271  55.400  1.00  0.00     0.037 A 
HETATM   22  C   UNL     1       7.531  23.230  55.488  1.00  0.00     0.009 A 
HETATM   23  C   UNL     1       7.995  22.594  54.329  1.00  0.00    -0.062 A 
HETATM   24  C   UNL     1       9.011  21.492  54.405  1.00  0.00     0.048 C 
HETATM   25  C   UNL     1       7.515  23.016  53.082  1.00  0.00     0.009 A 
HETATM   26  C   UNL     1       6.589  24.057  52.994  1.00  0.00     0.037 A 
ENDBRANCH  19  20
ENDBRANCH  18  19
ENDBRANCH   1  18
TORSDOF 5
ENDMDL
