MODEL 1
REMARK VINA RESULT:      -9.2      0.000      0.000
REMARK  11 active torsions:
REMARK  status: ('A' for Active; 'I' for Inactive)
REMARK    1  A    between atoms: C_2  and  O_3 
REMARK    2  A    between atoms: O_3  and  C_4 
REMARK    3  A    between atoms: C_7  and  N_8 
REMARK    4  A    between atoms: C_9  and  S_10 
REMARK    5  A    between atoms: S_10  and  C_11 
REMARK    6  A    between atoms: C_11  and  C_12 
REMARK       I    between atoms: C_12  and  N_13 
REMARK    7  A    between atoms: N_13  and  C_14 
REMARK    8  A    between atoms: C_15  and  C_16 
REMARK    9  A    between atoms: C_16  and  O_17 
REMARK   10  A    between atoms: O_17  and  C_18 
REMARK   11  A    between atoms: C_29  and  N_30 
ROOT
HETATM    1  N   UNL     1       5.977  26.683  54.865  1.00  0.00    -0.276 N 
HETATM    2  C   UNL     1       6.546  27.744  55.618  1.00  0.00     0.177 C 
HETATM    3  N   UNL     1       6.300  29.015  55.447  1.00  0.00    -0.204 NA
HETATM    4  C   UNL     1       5.373  29.283  54.505  1.00  0.00     0.162 A 
HETATM    5  C   UNL     1       4.619  28.413  53.771  1.00  0.00     0.081 A 
HETATM    6  C   UNL     1       4.898  27.020  53.937  1.00  0.00     0.124 C 
HETATM    7  N   UNL     1       4.935  30.529  54.160  1.00  0.00    -0.260 N 
HETATM    8  H   UNL     1       5.257  31.423  54.516  1.00  0.00     0.191 HD
HETATM    9  N   UNL     1       3.917  30.494  53.270  1.00  0.00    -0.177 NA
HETATM   10  C   UNL     1       3.720  29.188  53.025  1.00  0.00     0.068 A 
HETATM   11  C   UNL     1       2.649  28.774  52.090  1.00  0.00     0.073 C 
ENDROOT
BRANCH   2  12
HETATM   12  S   UNL     1       7.534  27.383  57.047  1.00  0.00    -0.082 SA
BRANCH  12  13
HETATM   13  C   UNL     1       8.942  28.521  56.901  1.00  0.00     0.185 C 
BRANCH  13  14
HETATM   14  C   UNL     1       9.090  29.624  57.950  1.00  0.00     0.231 C 
HETATM   15  N   UNL     1       8.205  29.602  59.019  1.00  0.00    -0.326 N 
HETATM   16  H   UNL     1       7.363  29.076  58.828  1.00  0.00     0.169 HD
HETATM   17  O   UNL     1       9.944  30.497  57.788  1.00  0.00    -0.272 OA
BRANCH  15  18
HETATM   18  C   UNL     1       8.070  30.708  59.895  1.00  0.00     0.051 A 
HETATM   19  C   UNL     1       7.005  31.625  59.872  1.00  0.00     0.066 A 
HETATM   20  C   UNL     1       6.886  32.572  60.907  1.00  0.00     0.020 A 
HETATM   21  C   UNL     1       7.827  32.626  61.935  1.00  0.00     0.001 A 
HETATM   22  C   UNL     1       8.925  31.772  61.912  1.00  0.00     0.002 A 
HETATM   23  C   UNL     1       9.057  30.834  60.888  1.00  0.00     0.030 A 
BRANCH  19  24
HETATM   24  C   UNL     1       6.128  31.759  58.677  1.00  0.00     0.295 C 
HETATM   25  O   UNL     1       5.630  30.808  58.093  1.00  0.00    -0.259 OA
BRANCH  24  26
HETATM   26  O   UNL     1       6.069  33.059  58.288  1.00  0.00    -0.318 OA
BRANCH  26  27
HETATM   27  C   UNL     1       4.778  33.520  57.868  1.00  0.00     0.174 C 
HETATM   28  C   UNL     1       3.850  33.706  59.053  1.00  0.00     0.034 C 
ENDBRANCH  26  27
ENDBRANCH  24  26
ENDBRANCH  19  24
ENDBRANCH  15  18
ENDBRANCH  13  14
ENDBRANCH  12  13
ENDBRANCH   2  12
BRANCH   1  29
HETATM   29  C   UNL     1       6.662  25.438  54.692  1.00  0.00     0.043 A 
HETATM   30  C   UNL     1       7.563  25.216  53.646  1.00  0.00     0.033 A 
HETATM   31  C   UNL     1       8.305  24.030  53.596  1.00  0.00     0.039 A 
HETATM   32  C   UNL     1       8.189  23.071  54.604  1.00  0.00     0.068 A 
HETATM   33  C   UNL     1       7.271  23.266  55.632  1.00  0.00     0.039 A 
HETATM   34  C   UNL     1       6.515  24.439  55.673  1.00  0.00     0.033 A 
BRANCH  32  35
HETATM   35  O   UNL     1       8.990  21.971  54.478  1.00  0.00    -0.352 OA
BRANCH  35  36
HETATM   36  C   UNL     1       8.298  20.733  54.291  1.00  0.00     0.171 C 
HETATM   37  C   UNL     1       8.286  20.414  52.807  1.00  0.00     0.034 C 
ENDBRANCH  35  36
ENDBRANCH  32  35
ENDBRANCH   1  29
BRANCH   6  38
HETATM   38  N   UNL     1       4.211  26.097  53.292  1.00  0.00    -0.384 N 
HETATM   39  H   UNL     1       4.581  25.174  53.119  1.00  0.00     0.157 HD
HETATM   40  H   UNL     1       3.290  26.321  52.933  1.00  0.00     0.157 HD
ENDBRANCH   6  38
TORSDOF 11
ENDMDL
MODEL 2
REMARK VINA RESULT:      -9.1      2.203      3.706
REMARK  11 active torsions:
REMARK  status: ('A' for Active; 'I' for Inactive)
REMARK    1  A    between atoms: C_2  and  O_3 
REMARK    2  A    between atoms: O_3  and  C_4 
REMARK    3  A    between atoms: C_7  and  N_8 
REMARK    4  A    between atoms: C_9  and  S_10 
REMARK    5  A    between atoms: S_10  and  C_11 
REMARK    6  A    between atoms: C_11  and  C_12 
REMARK       I    between atoms: C_12  and  N_13 
REMARK    7  A    between atoms: N_13  and  C_14 
REMARK    8  A    between atoms: C_15  and  C_16 
REMARK    9  A    between atoms: C_16  and  O_17 
REMARK   10  A    between atoms: O_17  and  C_18 
REMARK   11  A    between atoms: C_29  and  N_30 
ROOT
HETATM    1  N   UNL     1       5.824  26.524  52.412  1.00  0.00    -0.276 N 
HETATM    2  C   UNL     1       6.171  27.886  52.619  1.00  0.00     0.177 C 
HETATM    3  N   UNL     1       5.953  28.863  51.779  1.00  0.00    -0.204 NA
HETATM    4  C   UNL     1       5.281  28.503  50.666  1.00  0.00     0.162 A 
HETATM    5  C   UNL     1       4.747  27.289  50.341  1.00  0.00     0.081 A 
HETATM    6  C   UNL     1       5.002  26.210  51.245  1.00  0.00     0.124 C 
HETATM    7  N   UNL     1       4.920  29.345  49.655  1.00  0.00    -0.260 N 
HETATM    8  H   UNL     1       5.128  30.335  49.564  1.00  0.00     0.191 HD
HETATM    9  N   UNL     1       4.153  28.737  48.721  1.00  0.00    -0.177 NA
HETATM   10  C   UNL     1       4.046  27.466  49.140  1.00  0.00     0.068 A 
HETATM   11  C   UNL     1       3.246  26.502  48.350  1.00  0.00     0.073 C 
ENDROOT
BRANCH   2  12
HETATM   12  S   UNL     1       6.783  28.413  54.199  1.00  0.00    -0.082 SA
BRANCH  12  13
HETATM   13  C   UNL     1       5.292  28.949  55.087  1.00  0.00     0.185 C 
BRANCH  13  14
HETATM   14  C   UNL     1       5.449  29.442  56.526  1.00  0.00     0.231 C 
HETATM   15  N   UNL     1       6.241  30.564  56.726  1.00  0.00    -0.326 N 
HETATM   16  H   UNL     1       6.887  30.735  55.968  1.00  0.00     0.169 HD
HETATM   17  O   UNL     1       4.911  28.813  57.439  1.00  0.00    -0.272 OA
BRANCH  15  18
HETATM   18  C   UNL     1       6.674  30.946  58.021  1.00  0.00     0.051 A 
HETATM   19  C   UNL     1       7.909  30.592  58.591  1.00  0.00     0.066 A 
HETATM   20  C   UNL     1       8.303  31.183  59.807  1.00  0.00     0.020 A 
HETATM   21  C   UNL     1       7.470  32.089  60.463  1.00  0.00     0.001 A 
HETATM   22  C   UNL     1       6.213  32.375  59.939  1.00  0.00     0.002 A 
HETATM   23  C   UNL     1       5.809  31.791  58.737  1.00  0.00     0.030 A 
BRANCH  19  24
HETATM   24  C   UNL     1       8.710  29.459  58.055  1.00  0.00     0.295 C 
HETATM   25  O   UNL     1       9.750  29.599  57.430  1.00  0.00    -0.259 OA
BRANCH  24  26
HETATM   26  O   UNL     1       8.054  28.287  58.266  1.00  0.00    -0.318 OA
BRANCH  26  27
HETATM   27  C   UNL     1       8.316  27.252  57.309  1.00  0.00     0.174 C 
HETATM   28  C   UNL     1       7.429  26.046  57.549  1.00  0.00     0.034 C 
ENDBRANCH  26  27
ENDBRANCH  24  26
ENDBRANCH  19  24
ENDBRANCH  15  18
ENDBRANCH  13  14
ENDBRANCH  12  13
ENDBRANCH   2  12
BRANCH   1  29
HETATM   29  C   UNL     1       6.553  25.464  53.039  1.00  0.00     0.043 A 
HETATM   30  C   UNL     1       6.097  24.819  54.192  1.00  0.00     0.033 A 
HETATM   31  C   UNL     1       6.779  23.703  54.692  1.00  0.00     0.039 A 
HETATM   32  C   UNL     1       7.898  23.194  54.029  1.00  0.00     0.068 A 
HETATM   33  C   UNL     1       8.381  23.847  52.899  1.00  0.00     0.039 A 
HETATM   34  C   UNL     1       7.714  24.973  52.411  1.00  0.00     0.033 A 
BRANCH  32  35
HETATM   35  O   UNL     1       8.461  22.077  54.579  1.00  0.00    -0.352 OA
BRANCH  35  36
HETATM   36  C   UNL     1       7.833  20.841  54.226  1.00  0.00     0.171 C 
HETATM   37  C   UNL     1       8.364  20.408  52.872  1.00  0.00     0.034 C 
ENDBRANCH  35  36
ENDBRANCH  32  35
ENDBRANCH   1  29
BRANCH   6  38
HETATM   38  N   UNL     1       4.511  25.003  51.034  1.00  0.00    -0.384 N 
HETATM   39  H   UNL     1       3.853  24.574  51.666  1.00  0.00     0.157 HD
HETATM   40  H   UNL     1       4.820  24.474  50.228  1.00  0.00     0.157 HD
ENDBRANCH   6  38
TORSDOF 11
ENDMDL
MODEL 3
REMARK VINA RESULT:      -9.0      1.995      8.456
REMARK  11 active torsions:
REMARK  status: ('A' for Active; 'I' for Inactive)
REMARK    1  A    between atoms: C_2  and  O_3 
REMARK    2  A    between atoms: O_3  and  C_4 
REMARK    3  A    between atoms: C_7  and  N_8 
REMARK    4  A    between atoms: C_9  and  S_10 
REMARK    5  A    between atoms: S_10  and  C_11 
REMARK    6  A    between atoms: C_11  and  C_12 
REMARK       I    between atoms: C_12  and  N_13 
REMARK    7  A    between atoms: N_13  and  C_14 
REMARK    8  A    between atoms: C_15  and  C_16 
REMARK    9  A    between atoms: C_16  and  O_17 
REMARK   10  A    between atoms: O_17  and  C_18 
REMARK   11  A    between atoms: C_29  and  N_30 
ROOT
HETATM    1  N   UNL     1       6.221  29.887  56.654  1.00  0.00    -0.276 N 
HETATM    2  C   UNL     1       6.420  28.481  56.710  1.00  0.00     0.177 C 
HETATM    3  N   UNL     1       5.792  27.594  55.987  1.00  0.00    -0.204 NA
HETATM    4  C   UNL     1       4.938  28.115  55.082  1.00  0.00     0.162 A 
HETATM    5  C   UNL     1       4.703  29.426  54.779  1.00  0.00     0.081 A 
HETATM    6  C   UNL     1       5.372  30.402  55.582  1.00  0.00     0.124 C 
HETATM    7  N   UNL     1       4.184  27.394  54.201  1.00  0.00    -0.260 N 
HETATM    8  H   UNL     1       4.117  26.385  54.120  1.00  0.00     0.191 HD
HETATM    9  N   UNL     1       3.509  28.180  53.331  1.00  0.00    -0.177 NA
HETATM   10  C   UNL     1       3.825  29.435  53.686  1.00  0.00     0.068 A 
HETATM   11  C   UNL     1       3.265  30.573  52.921  1.00  0.00     0.073 C 
ENDROOT
BRANCH   2  12
HETATM   12  S   UNL     1       7.746  27.814  57.683  1.00  0.00    -0.082 SA
BRANCH  12  13
HETATM   13  C   UNL     1       7.324  26.055  57.848  1.00  0.00     0.185 C 
BRANCH  13  14
HETATM   14  C   UNL     1       7.900  25.076  56.825  1.00  0.00     0.231 C 
HETATM   15  N   UNL     1       7.061  24.668  55.798  1.00  0.00    -0.326 N 
HETATM   16  H   UNL     1       6.081  24.790  56.013  1.00  0.00     0.169 HD
HETATM   17  O   UNL     1       9.052  24.662  56.972  1.00  0.00    -0.272 OA
BRANCH  15  18
HETATM   18  C   UNL     1       7.389  23.572  54.961  1.00  0.00     0.051 A 
HETATM   19  C   UNL     1       7.787  23.681  53.617  1.00  0.00     0.066 A 
HETATM   20  C   UNL     1       8.264  22.540  52.944  1.00  0.00     0.020 A 
HETATM   21  C   UNL     1       8.316  21.303  53.586  1.00  0.00     0.001 A 
HETATM   22  C   UNL     1       7.844  21.181  54.888  1.00  0.00     0.002 A 
HETATM   23  C   UNL     1       7.364  22.304  55.564  1.00  0.00     0.030 A 
BRANCH  19  24
HETATM   24  C   UNL     1       7.521  24.915  52.830  1.00  0.00     0.295 C 
HETATM   25  O   UNL     1       8.366  25.486  52.158  1.00  0.00    -0.259 OA
BRANCH  24  26
HETATM   26  O   UNL     1       6.257  25.353  53.069  1.00  0.00    -0.318 OA
BRANCH  26  27
HETATM   27  C   UNL     1       5.252  24.857  52.175  1.00  0.00     0.174 C 
HETATM   28  C   UNL     1       5.043  25.801  51.007  1.00  0.00     0.034 C 
ENDBRANCH  26  27
ENDBRANCH  24  26
ENDBRANCH  19  24
ENDBRANCH  15  18
ENDBRANCH  13  14
ENDBRANCH  12  13
ENDBRANCH   2  12
BRANCH   1  29
HETATM   29  C   UNL     1       6.474  30.723  57.788  1.00  0.00     0.043 A 
HETATM   30  C   UNL     1       5.451  31.377  58.481  1.00  0.00     0.033 A 
HETATM   31  C   UNL     1       5.734  32.077  59.660  1.00  0.00     0.039 A 
HETATM   32  C   UNL     1       7.029  32.100  60.183  1.00  0.00     0.068 A 
HETATM   33  C   UNL     1       8.061  31.481  59.485  1.00  0.00     0.039 A 
HETATM   34  C   UNL     1       7.784  30.800  58.297  1.00  0.00     0.033 A 
BRANCH  32  35
HETATM   35  O   UNL     1       7.185  32.777  61.360  1.00  0.00    -0.352 OA
BRANCH  35  36
HETATM   36  C   UNL     1       8.221  32.281  62.214  1.00  0.00     0.171 C 
HETATM   37  C   UNL     1       7.905  32.703  63.637  1.00  0.00     0.034 C 
ENDBRANCH  35  36
ENDBRANCH  32  35
ENDBRANCH   1  29
BRANCH   6  38
HETATM   38  N   UNL     1       5.231  31.695  55.356  1.00  0.00    -0.384 N 
HETATM   39  H   UNL     1       4.371  32.088  55.005  1.00  0.00     0.157 HD
HETATM   40  H   UNL     1       6.015  32.316  55.514  1.00  0.00     0.157 HD
ENDBRANCH   6  38
TORSDOF 11
ENDMDL
MODEL 4
REMARK VINA RESULT:      -8.8      4.134      9.416
REMARK  11 active torsions:
REMARK  status: ('A' for Active; 'I' for Inactive)
REMARK    1  A    between atoms: C_2  and  O_3 
REMARK    2  A    between atoms: O_3  and  C_4 
REMARK    3  A    between atoms: C_7  and  N_8 
REMARK    4  A    between atoms: C_9  and  S_10 
REMARK    5  A    between atoms: S_10  and  C_11 
REMARK    6  A    between atoms: C_11  and  C_12 
REMARK       I    between atoms: C_12  and  N_13 
REMARK    7  A    between atoms: N_13  and  C_14 
REMARK    8  A    between atoms: C_15  and  C_16 
REMARK    9  A    between atoms: C_16  and  O_17 
REMARK   10  A    between atoms: O_17  and  C_18 
REMARK   11  A    between atoms: C_29  and  N_30 
ROOT
HETATM    1  N   UNL     1       7.289  26.011  55.592  1.00  0.00    -0.276 N 
HETATM    2  C   UNL     1       7.339  26.124  54.176  1.00  0.00     0.177 C 
HETATM    3  N   UNL     1       7.749  25.197  53.353  1.00  0.00    -0.204 NA
HETATM    4  C   UNL     1       8.082  24.032  53.945  1.00  0.00     0.162 A 
HETATM    5  C   UNL     1       7.980  23.677  55.260  1.00  0.00     0.081 A 
HETATM    6  C   UNL     1       7.552  24.695  56.170  1.00  0.00     0.124 C 
HETATM    7  N   UNL     1       8.518  22.914  53.296  1.00  0.00    -0.260 N 
HETATM    8  H   UNL     1       8.695  22.799  52.303  1.00  0.00     0.191 HD
HETATM    9  N   UNL     1       8.665  21.856  54.126  1.00  0.00    -0.177 NA
HETATM   10  C   UNL     1       8.336  22.324  55.341  1.00  0.00     0.068 A 
HETATM   11  C   UNL     1       8.369  21.414  56.508  1.00  0.00     0.073 C 
ENDROOT
BRANCH   2  12
HETATM   12  S   UNL     1       6.626  27.539  53.377  1.00  0.00    -0.082 SA
BRANCH  12  13
HETATM   13  C   UNL     1       5.316  26.836  52.333  1.00  0.00     0.185 C 
BRANCH  13  14
HETATM   14  C   UNL     1       4.782  27.684  51.178  1.00  0.00     0.231 C 
HETATM   15  N   UNL     1       5.643  27.921  50.116  1.00  0.00    -0.326 N 
HETATM   16  H   UNL     1       6.617  27.797  50.358  1.00  0.00     0.169 HD
HETATM   17  O   UNL     1       3.644  28.152  51.253  1.00  0.00    -0.272 OA
BRANCH  15  18
HETATM   18  C   UNL     1       5.359  28.901  49.132  1.00  0.00     0.051 A 
HETATM   19  C   UNL     1       4.690  28.653  47.921  1.00  0.00     0.066 A 
HETATM   20  C   UNL     1       4.304  29.737  47.111  1.00  0.00     0.020 A 
HETATM   21  C   UNL     1       4.603  31.047  47.482  1.00  0.00     0.001 A 
HETATM   22  C   UNL     1       5.337  31.286  48.640  1.00  0.00     0.002 A 
HETATM   23  C   UNL     1       5.731  30.219  49.448  1.00  0.00     0.030 A 
BRANCH  19  24
HETATM   24  C   UNL     1       4.570  27.274  47.375  1.00  0.00     0.295 C 
HETATM   25  O   UNL     1       5.518  26.518  47.228  1.00  0.00    -0.259 OA
BRANCH  24  26
HETATM   26  O   UNL     1       3.293  27.045  46.972  1.00  0.00    -0.318 OA
BRANCH  26  27
HETATM   27  C   UNL     1       2.404  26.554  47.985  1.00  0.00     0.174 C 
HETATM   28  C   UNL     1       1.076  27.285  47.950  1.00  0.00     0.034 C 
ENDBRANCH  26  27
ENDBRANCH  24  26
ENDBRANCH  19  24
ENDBRANCH  15  18
ENDBRANCH  13  14
ENDBRANCH  12  13
ENDBRANCH   2  12
BRANCH   1  29
HETATM   29  C   UNL     1       7.391  27.161  56.437  1.00  0.00     0.043 A 
HETATM   30  C   UNL     1       8.617  27.750  56.759  1.00  0.00     0.033 A 
HETATM   31  C   UNL     1       8.655  28.949  57.482  1.00  0.00     0.039 A 
HETATM   32  C   UNL     1       7.474  29.595  57.856  1.00  0.00     0.068 A 
HETATM   33  C   UNL     1       6.249  29.002  57.570  1.00  0.00     0.039 A 
HETATM   34  C   UNL     1       6.210  27.795  56.868  1.00  0.00     0.033 A 
BRANCH  32  35
HETATM   35  O   UNL     1       7.627  30.779  58.521  1.00  0.00    -0.352 OA
BRANCH  35  36
HETATM   36  C   UNL     1       8.217  30.677  59.820  1.00  0.00     0.171 C 
HETATM   37  C   UNL     1       9.242  31.787  59.966  1.00  0.00     0.034 C 
ENDBRANCH  35  36
ENDBRANCH  32  35
ENDBRANCH   1  29
BRANCH   6  38
HETATM   38  N   UNL     1       7.399  24.448  57.457  1.00  0.00    -0.384 N 
HETATM   39  H   UNL     1       7.727  25.084  58.168  1.00  0.00     0.157 HD
HETATM   40  H   UNL     1       6.962  23.583  57.750  1.00  0.00     0.157 HD
ENDBRANCH   6  38
TORSDOF 11
ENDMDL
MODEL 5
REMARK VINA RESULT:      -8.7      4.280      9.451
REMARK  11 active torsions:
REMARK  status: ('A' for Active; 'I' for Inactive)
REMARK    1  A    between atoms: C_2  and  O_3 
REMARK    2  A    between atoms: O_3  and  C_4 
REMARK    3  A    between atoms: C_7  and  N_8 
REMARK    4  A    between atoms: C_9  and  S_10 
REMARK    5  A    between atoms: S_10  and  C_11 
REMARK    6  A    between atoms: C_11  and  C_12 
REMARK       I    between atoms: C_12  and  N_13 
REMARK    7  A    between atoms: N_13  and  C_14 
REMARK    8  A    between atoms: C_15  and  C_16 
REMARK    9  A    between atoms: C_16  and  O_17 
REMARK   10  A    between atoms: O_17  and  C_18 
REMARK   11  A    between atoms: C_29  and  N_30 
ROOT
HETATM    1  N   UNL     1       6.613  24.702  55.241  1.00  0.00    -0.276 N 
HETATM    2  C   UNL     1       6.253  24.584  53.872  1.00  0.00     0.177 C 
HETATM    3  N   UNL     1       6.663  23.650  53.055  1.00  0.00    -0.204 NA
HETATM    4  C   UNL     1       7.440  22.709  53.629  1.00  0.00     0.162 A 
HETATM    5  C   UNL     1       7.790  22.567  54.941  1.00  0.00     0.081 A 
HETATM    6  C   UNL     1       7.363  23.598  55.837  1.00  0.00     0.124 C 
HETATM    7  N   UNL     1       7.971  21.627  52.989  1.00  0.00    -0.260 N 
HETATM    8  H   UNL     1       7.902  21.389  52.004  1.00  0.00     0.191 HD
HETATM    9  N   UNL     1       8.610  20.785  53.834  1.00  0.00    -0.177 NA
HETATM   10  C   UNL     1       8.502  21.364  55.041  1.00  0.00     0.068 A 
HETATM   11  C   UNL     1       9.087  20.695  56.226  1.00  0.00     0.073 C 
ENDROOT
BRANCH   2  12
HETATM   12  S   UNL     1       5.003  25.643  53.191  1.00  0.00    -0.082 SA
BRANCH  12  13
HETATM   13  C   UNL     1       5.938  26.824  52.175  1.00  0.00     0.185 C 
BRANCH  13  14
HETATM   14  C   UNL     1       5.171  27.654  51.145  1.00  0.00     0.231 C 
HETATM   15  N   UNL     1       5.800  27.895  49.932  1.00  0.00    -0.326 N 
HETATM   16  H   UNL     1       6.804  27.788  49.977  1.00  0.00     0.169 HD
HETATM   17  O   UNL     1       4.063  28.105  51.442  1.00  0.00    -0.272 OA
BRANCH  15  18
HETATM   18  C   UNL     1       5.310  28.863  49.020  1.00  0.00     0.051 A 
HETATM   19  C   UNL     1       4.494  28.580  47.911  1.00  0.00     0.066 A 
HETATM   20  C   UNL     1       3.921  29.642  47.186  1.00  0.00     0.020 A 
HETATM   21  C   UNL     1       4.178  30.967  47.539  1.00  0.00     0.001 A 
HETATM   22  C   UNL     1       5.051  31.245  48.585  1.00  0.00     0.002 A 
HETATM   23  C   UNL     1       5.630  30.201  49.307  1.00  0.00     0.030 A 
BRANCH  19  24
HETATM   24  C   UNL     1       4.394  27.202  47.359  1.00  0.00     0.295 C 
HETATM   25  O   UNL     1       5.336  26.426  47.296  1.00  0.00    -0.259 OA
BRANCH  24  26
HETATM   26  O   UNL     1       3.153  26.998  46.845  1.00  0.00    -0.318 OA
BRANCH  26  27
HETATM   27  C   UNL     1       2.214  26.371  47.730  1.00  0.00     0.174 C 
HETATM   28  C   UNL     1       1.016  27.266  47.980  1.00  0.00     0.034 C 
ENDBRANCH  26  27
ENDBRANCH  24  26
ENDBRANCH  19  24
ENDBRANCH  15  18
ENDBRANCH  13  14
ENDBRANCH  12  13
ENDBRANCH   2  12
BRANCH   1  29
HETATM   29  C   UNL     1       6.625  25.971  55.903  1.00  0.00     0.043 A 
HETATM   30  C   UNL     1       7.678  26.880  55.767  1.00  0.00     0.033 A 
HETATM   31  C   UNL     1       7.582  28.159  56.329  1.00  0.00     0.039 A 
HETATM   32  C   UNL     1       6.423  28.561  56.997  1.00  0.00     0.068 A 
HETATM   33  C   UNL     1       5.382  27.654  57.168  1.00  0.00     0.039 A 
HETATM   34  C   UNL     1       5.484  26.371  56.625  1.00  0.00     0.033 A 
BRANCH  32  35
HETATM   35  O   UNL     1       6.421  29.843  57.469  1.00  0.00    -0.352 OA
BRANCH  35  36
HETATM   36  C   UNL     1       7.632  30.258  58.108  1.00  0.00     0.171 C 
HETATM   37  C   UNL     1       7.317  31.451  58.994  1.00  0.00     0.034 C 
ENDBRANCH  35  36
ENDBRANCH  32  35
ENDBRANCH   1  29
BRANCH   6  38
HETATM   38  N   UNL     1       7.628  23.543  57.128  1.00  0.00    -0.384 N 
HETATM   39  H   UNL     1       7.502  22.701  57.667  1.00  0.00     0.157 HD
HETATM   40  H   UNL     1       7.946  24.378  57.607  1.00  0.00     0.157 HD
ENDBRANCH   6  38
TORSDOF 11
ENDMDL
MODEL 6
REMARK VINA RESULT:      -8.6      2.450      5.057
REMARK  11 active torsions:
REMARK  status: ('A' for Active; 'I' for Inactive)
REMARK    1  A    between atoms: C_2  and  O_3 
REMARK    2  A    between atoms: O_3  and  C_4 
REMARK    3  A    between atoms: C_7  and  N_8 
REMARK    4  A    between atoms: C_9  and  S_10 
REMARK    5  A    between atoms: S_10  and  C_11 
REMARK    6  A    between atoms: C_11  and  C_12 
REMARK       I    between atoms: C_12  and  N_13 
REMARK    7  A    between atoms: N_13  and  C_14 
REMARK    8  A    between atoms: C_15  and  C_16 
REMARK    9  A    between atoms: C_16  and  O_17 
REMARK   10  A    between atoms: O_17  and  C_18 
REMARK   11  A    between atoms: C_29  and  N_30 
ROOT
HETATM    1  N   UNL     1       7.151  26.980  55.016  1.00  0.00    -0.276 N 
HETATM    2  C   UNL     1       7.848  27.508  56.136  1.00  0.00     0.177 C 
HETATM    3  N   UNL     1       8.352  26.809  57.117  1.00  0.00    -0.204 NA
HETATM    4  C   UNL     1       8.227  25.474  56.974  1.00  0.00     0.162 A 
HETATM    5  C   UNL     1       7.716  24.768  55.922  1.00  0.00     0.081 A 
HETATM    6  C   UNL     1       7.143  25.527  54.854  1.00  0.00     0.124 C 
HETATM    7  N   UNL     1       8.689  24.538  57.853  1.00  0.00    -0.260 N 
HETATM    8  H   UNL     1       9.147  24.695  58.746  1.00  0.00     0.191 HD
HETATM    9  N   UNL     1       8.530  23.274  57.398  1.00  0.00    -0.177 NA
HETATM   10  C   UNL     1       7.927  23.412  56.207  1.00  0.00     0.068 A 
HETATM   11  C   UNL     1       7.611  22.207  55.405  1.00  0.00     0.073 C 
ENDROOT
BRANCH   2  12
HETATM   12  S   UNL     1       8.273  29.230  56.181  1.00  0.00    -0.082 SA
BRANCH  12  13
HETATM   13  C   UNL     1       9.519  29.337  57.498  1.00  0.00     0.185 C 
BRANCH  13  14
HETATM   14  C   UNL     1       9.352  30.421  58.563  1.00  0.00     0.231 C 
HETATM   15  N   UNL     1       8.449  30.169  59.586  1.00  0.00    -0.326 N 
HETATM   16  H   UNL     1       7.766  29.462  59.348  1.00  0.00     0.169 HD
HETATM   17  O   UNL     1       9.981  31.476  58.452  1.00  0.00    -0.272 OA
BRANCH  15  18
HETATM   18  C   UNL     1       8.015  31.193  60.464  1.00  0.00     0.051 A 
HETATM   19  C   UNL     1       6.862  31.975  60.277  1.00  0.00     0.066 A 
HETATM   20  C   UNL     1       6.435  32.833  61.308  1.00  0.00     0.020 A 
HETATM   21  C   UNL     1       7.159  32.936  62.496  1.00  0.00     0.001 A 
HETATM   22  C   UNL     1       8.344  32.224  62.646  1.00  0.00     0.002 A 
HETATM   23  C   UNL     1       8.780  31.374  61.628  1.00  0.00     0.030 A 
BRANCH  19  24
HETATM   24  C   UNL     1       6.206  32.076  58.946  1.00  0.00     0.295 C 
HETATM   25  O   UNL     1       5.890  33.135  58.425  1.00  0.00    -0.259 OA
BRANCH  24  26
HETATM   26  O   UNL     1       5.919  30.835  58.474  1.00  0.00    -0.318 OA
BRANCH  26  27
HETATM   27  C   UNL     1       4.730  30.736  57.679  1.00  0.00     0.174 C 
HETATM   28  C   UNL     1       3.485  30.824  58.540  1.00  0.00     0.034 C 
ENDBRANCH  26  27
ENDBRANCH  24  26
ENDBRANCH  19  24
ENDBRANCH  15  18
ENDBRANCH  13  14
ENDBRANCH  12  13
ENDBRANCH   2  12
BRANCH   1  29
HETATM   29  C   UNL     1       6.169  27.751  54.316  1.00  0.00     0.043 A 
HETATM   30  C   UNL     1       6.366  28.208  53.010  1.00  0.00     0.033 A 
HETATM   31  C   UNL     1       5.325  28.845  52.322  1.00  0.00     0.039 A 
HETATM   32  C   UNL     1       4.068  28.998  52.912  1.00  0.00     0.068 A 
HETATM   33  C   UNL     1       3.871  28.577  54.223  1.00  0.00     0.039 A 
HETATM   34  C   UNL     1       4.914  27.960  54.917  1.00  0.00     0.033 A 
BRANCH  32  35
HETATM   35  O   UNL     1       3.114  29.595  52.137  1.00  0.00    -0.352 OA
BRANCH  35  36
HETATM   36  C   UNL     1       2.855  28.951  50.886  1.00  0.00     0.171 C 
HETATM   37  C   UNL     1       2.938  29.995  49.787  1.00  0.00     0.034 C 
ENDBRANCH  35  36
ENDBRANCH  32  35
ENDBRANCH   1  29
BRANCH   6  38
HETATM   38  N   UNL     1       6.644  24.942  53.781  1.00  0.00    -0.384 N 
HETATM   39  H   UNL     1       5.795  24.398  53.812  1.00  0.00     0.157 HD
HETATM   40  H   UNL     1       7.137  25.015  52.899  1.00  0.00     0.157 HD
ENDBRANCH   6  38
TORSDOF 11
ENDMDL
MODEL 7
REMARK VINA RESULT:      -8.5      3.005      7.765
REMARK  11 active torsions:
REMARK  status: ('A' for Active; 'I' for Inactive)
REMARK    1  A    between atoms: C_2  and  O_3 
REMARK    2  A    between atoms: O_3  and  C_4 
REMARK    3  A    between atoms: C_7  and  N_8 
REMARK    4  A    between atoms: C_9  and  S_10 
REMARK    5  A    between atoms: S_10  and  C_11 
REMARK    6  A    between atoms: C_11  and  C_12 
REMARK       I    between atoms: C_12  and  N_13 
REMARK    7  A    between atoms: N_13  and  C_14 
REMARK    8  A    between atoms: C_15  and  C_16 
REMARK    9  A    between atoms: C_16  and  O_17 
REMARK   10  A    between atoms: O_17  and  C_18 
REMARK   11  A    between atoms: C_29  and  N_30 
ROOT
HETATM    1  N   UNL     1       6.709  28.040  56.149  1.00  0.00    -0.276 N 
HETATM    2  C   UNL     1       5.468  28.725  56.061  1.00  0.00     0.177 C 
HETATM    3  N   UNL     1       5.093  29.721  56.818  1.00  0.00    -0.204 NA
HETATM    4  C   UNL     1       6.026  30.135  57.699  1.00  0.00     0.162 A 
HETATM    5  C   UNL     1       7.313  29.704  57.852  1.00  0.00     0.081 A 
HETATM    6  C   UNL     1       7.723  28.600  57.041  1.00  0.00     0.124 C 
HETATM    7  N   UNL     1       5.877  31.166  58.580  1.00  0.00    -0.260 N 
HETATM    8  H   UNL     1       5.053  31.739  58.736  1.00  0.00     0.191 HD
HETATM    9  N   UNL     1       7.015  31.437  59.260  1.00  0.00    -0.177 NA
HETATM   10  C   UNL     1       7.903  30.534  58.815  1.00  0.00     0.068 A 
HETATM   11  C   UNL     1       9.287  30.549  59.344  1.00  0.00     0.073 C 
ENDROOT
BRANCH   2  12
HETATM   12  S   UNL     1       4.362  28.381  54.716  1.00  0.00    -0.082 SA
BRANCH  12  13
HETATM   13  C   UNL     1       3.826  30.026  54.161  1.00  0.00     0.185 C 
BRANCH  13  14
HETATM   14  C   UNL     1       3.491  30.214  52.681  1.00  0.00     0.231 C 
HETATM   15  N   UNL     1       2.690  29.249  52.087  1.00  0.00    -0.326 N 
HETATM   16  H   UNL     1       2.688  28.371  52.587  1.00  0.00     0.169 HD
HETATM   17  O   UNL     1       3.971  31.173  52.073  1.00  0.00    -0.272 OA
BRANCH  15  18
HETATM   18  C   UNL     1       2.540  29.171  50.679  1.00  0.00     0.051 A 
HETATM   19  C   UNL     1       3.360  28.414  49.825  1.00  0.00     0.066 A 
HETATM   20  C   UNL     1       3.000  28.270  48.472  1.00  0.00     0.020 A 
HETATM   21  C   UNL     1       1.859  28.893  47.967  1.00  0.00     0.001 A 
HETATM   22  C   UNL     1       1.095  29.709  48.795  1.00  0.00     0.002 A 
HETATM   23  C   UNL     1       1.445  29.864  50.136  1.00  0.00     0.030 A 
BRANCH  19  24
HETATM   24  C   UNL     1       4.701  27.941  50.262  1.00  0.00     0.295 C 
HETATM   25  O   UNL     1       5.733  28.171  49.652  1.00  0.00    -0.259 OA
BRANCH  24  26
HETATM   26  O   UNL     1       4.577  27.138  51.351  1.00  0.00    -0.318 OA
BRANCH  26  27
HETATM   27  C   UNL     1       5.405  25.967  51.353  1.00  0.00     0.174 C 
HETATM   28  C   UNL     1       4.819  24.882  52.235  1.00  0.00     0.034 C 
ENDBRANCH  26  27
ENDBRANCH  24  26
ENDBRANCH  19  24
ENDBRANCH  15  18
ENDBRANCH  13  14
ENDBRANCH  12  13
ENDBRANCH   2  12
BRANCH   1  29
HETATM   29  C   UNL     1       6.841  26.676  55.736  1.00  0.00     0.043 A 
HETATM   30  C   UNL     1       7.481  26.311  54.548  1.00  0.00     0.033 A 
HETATM   31  C   UNL     1       7.699  24.959  54.253  1.00  0.00     0.039 A 
HETATM   32  C   UNL     1       7.319  23.961  55.152  1.00  0.00     0.068 A 
HETATM   33  C   UNL     1       6.652  24.311  56.322  1.00  0.00     0.039 A 
HETATM   34  C   UNL     1       6.415  25.657  56.609  1.00  0.00     0.033 A 
BRANCH  32  35
HETATM   35  O   UNL     1       7.618  22.679  54.783  1.00  0.00    -0.352 OA
BRANCH  35  36
HETATM   36  C   UNL     1       7.917  22.500  53.396  1.00  0.00     0.171 C 
HETATM   37  C   UNL     1       7.887  21.013  53.092  1.00  0.00     0.034 C 
ENDBRANCH  35  36
ENDBRANCH  32  35
ENDBRANCH   1  29
BRANCH   6  38
HETATM   38  N   UNL     1       8.952  28.123  57.096  1.00  0.00    -0.384 N 
HETATM   39  H   UNL     1       9.603  28.396  57.817  1.00  0.00     0.157 HD
HETATM   40  H   UNL     1       9.270  27.481  56.379  1.00  0.00     0.157 HD
ENDBRANCH   6  38
TORSDOF 11
ENDMDL
MODEL 8
REMARK VINA RESULT:      -8.5      1.966      3.130
REMARK  11 active torsions:
REMARK  status: ('A' for Active; 'I' for Inactive)
REMARK    1  A    between atoms: C_2  and  O_3 
REMARK    2  A    between atoms: O_3  and  C_4 
REMARK    3  A    between atoms: C_7  and  N_8 
REMARK    4  A    between atoms: C_9  and  S_10 
REMARK    5  A    between atoms: S_10  and  C_11 
REMARK    6  A    between atoms: C_11  and  C_12 
REMARK       I    between atoms: C_12  and  N_13 
REMARK    7  A    between atoms: N_13  and  C_14 
REMARK    8  A    between atoms: C_15  and  C_16 
REMARK    9  A    between atoms: C_16  and  O_17 
REMARK   10  A    between atoms: O_17  and  C_18 
REMARK   11  A    between atoms: C_29  and  N_30 
ROOT
HETATM    1  N   UNL     1       6.173  26.307  53.186  1.00  0.00    -0.276 N 
HETATM    2  C   UNL     1       6.662  27.532  53.713  1.00  0.00     0.177 C 
HETATM    3  N   UNL     1       6.539  28.705  53.152  1.00  0.00    -0.204 NA
HETATM    4  C   UNL     1       5.823  28.705  52.009  1.00  0.00     0.162 A 
HETATM    5  C   UNL     1       5.162  27.670  51.411  1.00  0.00     0.081 A 
HETATM    6  C   UNL     1       5.311  26.379  52.008  1.00  0.00     0.124 C 
HETATM    7  N   UNL     1       5.541  29.806  51.254  1.00  0.00    -0.260 N 
HETATM    8  H   UNL     1       5.851  30.761  51.405  1.00  0.00     0.191 HD
HETATM    9  N   UNL     1       4.706  29.531  50.226  1.00  0.00    -0.177 NA
HETATM   10  C   UNL     1       4.471  28.212  50.318  1.00  0.00     0.068 A 
HETATM   11  C   UNL     1       3.567  27.561  49.342  1.00  0.00     0.073 C 
ENDROOT
BRANCH   2  12
HETATM   12  S   UNL     1       7.342  27.581  55.352  1.00  0.00    -0.082 SA
BRANCH  12  13
HETATM   13  C   UNL     1       7.293  29.343  55.791  1.00  0.00     0.185 C 
BRANCH  13  14
HETATM   14  C   UNL     1       6.433  29.765  56.983  1.00  0.00     0.231 C 
HETATM   15  N   UNL     1       6.403  31.118  57.293  1.00  0.00    -0.326 N 
HETATM   16  H   UNL     1       7.192  31.628  56.922  1.00  0.00     0.169 HD
HETATM   17  O   UNL     1       5.846  28.901  57.636  1.00  0.00    -0.272 OA
BRANCH  15  18
HETATM   18  C   UNL     1       5.868  31.588  58.519  1.00  0.00     0.051 A 
HETATM   19  C   UNL     1       6.633  31.947  59.641  1.00  0.00     0.066 A 
HETATM   20  C   UNL     1       6.004  32.573  60.734  1.00  0.00     0.020 A 
HETATM   21  C   UNL     1       4.629  32.810  60.726  1.00  0.00     0.001 A 
HETATM   22  C   UNL     1       3.862  32.378  59.649  1.00  0.00     0.002 A 
HETATM   23  C   UNL     1       4.474  31.753  58.562  1.00  0.00     0.030 A 
BRANCH  19  24
HETATM   24  C   UNL     1       8.043  31.496  59.792  1.00  0.00     0.295 C 
HETATM   25  O   UNL     1       8.407  30.672  60.617  1.00  0.00    -0.259 OA
BRANCH  24  26
HETATM   26  O   UNL     1       8.850  32.214  58.967  1.00  0.00    -0.318 OA
BRANCH  26  27
HETATM   27  C   UNL     1      10.170  31.684  58.781  1.00  0.00     0.174 C 
HETATM   28  C   UNL     1      10.202  30.677  57.648  1.00  0.00     0.034 C 
ENDBRANCH  26  27
ENDBRANCH  24  26
ENDBRANCH  19  24
ENDBRANCH  15  18
ENDBRANCH  13  14
ENDBRANCH  12  13
ENDBRANCH   2  12
BRANCH   1  29
HETATM   29  C   UNL     1       6.794  25.057  53.503  1.00  0.00     0.043 A 
HETATM   30  C   UNL     1       6.542  24.375  54.698  1.00  0.00     0.033 A 
HETATM   31  C   UNL     1       7.072  23.095  54.903  1.00  0.00     0.039 A 
HETATM   32  C   UNL     1       7.822  22.464  53.908  1.00  0.00     0.068 A 
HETATM   33  C   UNL     1       8.106  23.145  52.729  1.00  0.00     0.039 A 
HETATM   34  C   UNL     1       7.596  24.430  52.530  1.00  0.00     0.033 A 
BRANCH  32  35
HETATM   35  O   UNL     1       8.254  21.200  54.198  1.00  0.00    -0.352 OA
BRANCH  35  36
HETATM   36  C   UNL     1       7.828  20.687  55.463  1.00  0.00     0.171 C 
HETATM   37  C   UNL     1       9.063  20.388  56.294  1.00  0.00     0.034 C 
ENDBRANCH  35  36
ENDBRANCH  32  35
ENDBRANCH   1  29
BRANCH   6  38
HETATM   38  N   UNL     1       4.695  25.318  51.521  1.00  0.00    -0.384 N 
HETATM   39  H   UNL     1       3.876  25.394  50.937  1.00  0.00     0.157 HD
HETATM   40  H   UNL     1       5.034  24.393  51.758  1.00  0.00     0.157 HD
ENDBRANCH   6  38
TORSDOF 11
ENDMDL
MODEL 9
REMARK VINA RESULT:      -8.5      3.556      8.913
REMARK  11 active torsions:
REMARK  status: ('A' for Active; 'I' for Inactive)
REMARK    1  A    between atoms: C_2  and  O_3 
REMARK    2  A    between atoms: O_3  and  C_4 
REMARK    3  A    between atoms: C_7  and  N_8 
REMARK    4  A    between atoms: C_9  and  S_10 
REMARK    5  A    between atoms: S_10  and  C_11 
REMARK    6  A    between atoms: C_11  and  C_12 
REMARK       I    between atoms: C_12  and  N_13 
REMARK    7  A    between atoms: N_13  and  C_14 
REMARK    8  A    between atoms: C_15  and  C_16 
REMARK    9  A    between atoms: C_16  and  O_17 
REMARK   10  A    between atoms: O_17  and  C_18 
REMARK   11  A    between atoms: C_29  and  N_30 
ROOT
HETATM    1  N   UNL     1       7.470  26.804  56.410  1.00  0.00    -0.276 N 
HETATM    2  C   UNL     1       6.814  26.994  55.164  1.00  0.00     0.177 C 
HETATM    3  N   UNL     1       6.647  26.081  54.245  1.00  0.00    -0.204 NA
HETATM    4  C   UNL     1       7.099  24.856  54.585  1.00  0.00     0.162 A 
HETATM    5  C   UNL     1       7.633  24.437  55.771  1.00  0.00     0.081 A 
HETATM    6  C   UNL     1       7.838  25.436  56.774  1.00  0.00     0.124 C 
HETATM    7  N   UNL     1       7.021  23.741  53.804  1.00  0.00    -0.260 N 
HETATM    8  H   UNL     1       6.660  23.667  52.857  1.00  0.00     0.191 HD
HETATM    9  N   UNL     1       7.445  22.627  54.444  1.00  0.00    -0.177 NA
HETATM   10  C   UNL     1       7.826  23.054  55.659  1.00  0.00     0.068 A 
HETATM   11  C   UNL     1       8.339  22.078  56.648  1.00  0.00     0.073 C 
ENDROOT
BRANCH   2  12
HETATM   12  S   UNL     1       5.960  28.515  54.837  1.00  0.00    -0.082 SA
BRANCH  12  13
HETATM   13  C   UNL     1       4.631  28.032  53.696  1.00  0.00     0.185 C 
BRANCH  13  14
HETATM   14  C   UNL     1       4.818  28.324  52.207  1.00  0.00     0.231 C 
HETATM   15  N   UNL     1       3.785  27.957  51.356  1.00  0.00    -0.326 N 
HETATM   16  H   UNL     1       3.178  27.251  51.750  1.00  0.00     0.169 HD
HETATM   17  O   UNL     1       5.877  28.824  51.821  1.00  0.00    -0.272 OA
BRANCH  15  18
HETATM   18  C   UNL     1       3.955  27.928  49.949  1.00  0.00     0.051 A 
HETATM   19  C   UNL     1       3.749  29.024  49.094  1.00  0.00     0.066 A 
HETATM   20  C   UNL     1       4.127  28.925  47.741  1.00  0.00     0.020 A 
HETATM   21  C   UNL     1       4.673  27.744  47.238  1.00  0.00     0.001 A 
HETATM   22  C   UNL     1       4.799  26.634  48.067  1.00  0.00     0.002 A 
HETATM   23  C   UNL     1       4.423  26.719  49.408  1.00  0.00     0.030 A 
BRANCH  19  24
HETATM   24  C   UNL     1       2.953  30.204  49.529  1.00  0.00     0.295 C 
HETATM   25  O   UNL     1       1.841  30.467  49.098  1.00  0.00    -0.259 OA
BRANCH  24  26
HETATM   26  O   UNL     1       3.691  30.978  50.367  1.00  0.00    -0.318 OA
BRANCH  26  27
HETATM   27  C   UNL     1       4.416  32.046  49.743  1.00  0.00     0.174 C 
HETATM   28  C   UNL     1       5.911  31.882  49.940  1.00  0.00     0.034 C 
ENDBRANCH  26  27
ENDBRANCH  24  26
ENDBRANCH  19  24
ENDBRANCH  15  18
ENDBRANCH  13  14
ENDBRANCH  12  13
ENDBRANCH   2  12
BRANCH   1  29
HETATM   29  C   UNL     1       8.111  27.888  57.089  1.00  0.00     0.043 A 
HETATM   30  C   UNL     1       9.365  28.375  56.708  1.00  0.00     0.033 A 
HETATM   31  C   UNL     1       9.891  29.520  57.320  1.00  0.00     0.039 A 
HETATM   32  C   UNL     1       9.160  30.213  58.287  1.00  0.00     0.068 A 
HETATM   33  C   UNL     1       7.926  29.719  58.697  1.00  0.00     0.039 A 
HETATM   34  C   UNL     1       7.408  28.566  58.103  1.00  0.00     0.033 A 
BRANCH  32  35
HETATM   35  O   UNL     1       9.750  31.340  58.787  1.00  0.00    -0.352 OA
BRANCH  35  36
HETATM   36  C   UNL     1       8.973  32.057  59.751  1.00  0.00     0.171 C 
HETATM   37  C   UNL     1       9.653  31.927  61.101  1.00  0.00     0.034 C 
ENDBRANCH  35  36
ENDBRANCH  32  35
ENDBRANCH   1  29
BRANCH   6  38
HETATM   38  N   UNL     1       8.326  25.132  57.961  1.00  0.00    -0.384 N 
HETATM   39  H   UNL     1       9.297  24.899  58.099  1.00  0.00     0.157 HD
HETATM   40  H   UNL     1       7.706  25.104  58.762  1.00  0.00     0.157 HD
ENDBRANCH   6  38
TORSDOF 11
ENDMDL
MODEL 10
REMARK VINA RESULT:      -8.4      1.737      2.052
REMARK  11 active torsions:
REMARK  status: ('A' for Active; 'I' for Inactive)
REMARK    1  A    between atoms: C_2  and  O_3 
REMARK    2  A    between atoms: O_3  and  C_4 
REMARK    3  A    between atoms: C_7  and  N_8 
REMARK    4  A    between atoms: C_9  and  S_10 
REMARK    5  A    between atoms: S_10  and  C_11 
REMARK    6  A    between atoms: C_11  and  C_12 
REMARK       I    between atoms: C_12  and  N_13 
REMARK    7  A    between atoms: N_13  and  C_14 
REMARK    8  A    between atoms: C_15  and  C_16 
REMARK    9  A    between atoms: C_16  and  O_17 
REMARK   10  A    between atoms: O_17  and  C_18 
REMARK   11  A    between atoms: C_29  and  N_30 
ROOT
HETATM    1  N   UNL     1       6.298  26.100  53.512  1.00  0.00    -0.276 N 
HETATM    2  C   UNL     1       6.803  27.294  54.094  1.00  0.00     0.177 C 
HETATM    3  N   UNL     1       6.676  28.495  53.598  1.00  0.00    -0.204 NA
HETATM    4  C   UNL     1       5.939  28.558  52.470  1.00  0.00     0.162 A 
HETATM    5  C   UNL     1       5.262  27.560  51.830  1.00  0.00     0.081 A 
HETATM    6  C   UNL     1       5.415  26.238  52.355  1.00  0.00     0.124 C 
HETATM    7  N   UNL     1       5.649  29.699  51.779  1.00  0.00    -0.260 N 
HETATM    8  H   UNL     1       5.967  30.643  51.974  1.00  0.00     0.191 HD
HETATM    9  N   UNL     1       4.794  29.482  50.753  1.00  0.00    -0.177 NA
HETATM   10  C   UNL     1       4.554  28.161  50.780  1.00  0.00     0.068 A 
HETATM   11  C   UNL     1       3.629  27.567  49.788  1.00  0.00     0.073 C 
ENDROOT
BRANCH   2  12
HETATM   12  S   UNL     1       7.513  27.253  55.720  1.00  0.00    -0.082 SA
BRANCH  12  13
HETATM   13  C   UNL     1       7.940  28.987  56.052  1.00  0.00     0.185 C 
BRANCH  13  14
HETATM   14  C   UNL     1       7.884  29.479  57.499  1.00  0.00     0.231 C 
HETATM   15  N   UNL     1       7.831  30.851  57.698  1.00  0.00    -0.326 N 
HETATM   16  H   UNL     1       8.166  31.382  56.906  1.00  0.00     0.169 HD
HETATM   17  O   UNL     1       7.929  28.656  58.416  1.00  0.00    -0.272 OA
BRANCH  15  18
HETATM   18  C   UNL     1       8.048  31.426  58.977  1.00  0.00     0.051 A 
HETATM   19  C   UNL     1       7.031  31.877  59.836  1.00  0.00     0.066 A 
HETATM   20  C   UNL     1       7.357  32.257  61.151  1.00  0.00     0.020 A 
HETATM   21  C   UNL     1       8.678  32.218  61.598  1.00  0.00     0.001 A 
HETATM   22  C   UNL     1       9.693  31.850  60.721  1.00  0.00     0.002 A 
HETATM   23  C   UNL     1       9.382  31.477  59.413  1.00  0.00     0.030 A 
BRANCH  19  24
HETATM   24  C   UNL     1       5.662  32.163  59.328  1.00  0.00     0.295 C 
HETATM   25  O   UNL     1       5.224  31.724  58.276  1.00  0.00    -0.259 OA
BRANCH  24  26
HETATM   26  O   UNL     1       5.043  33.057  60.143  1.00  0.00    -0.318 OA
BRANCH  26  27
HETATM   27  C   UNL     1       3.721  32.695  60.565  1.00  0.00     0.174 C 
HETATM   28  C   UNL     1       3.692  32.355  62.043  1.00  0.00     0.034 C 
ENDBRANCH  26  27
ENDBRANCH  24  26
ENDBRANCH  19  24
ENDBRANCH  15  18
ENDBRANCH  13  14
ENDBRANCH  12  13
ENDBRANCH   2  12
BRANCH   1  29
HETATM   29  C   UNL     1       6.918  24.833  53.751  1.00  0.00     0.043 A 
HETATM   30  C   UNL     1       6.667  24.079  54.901  1.00  0.00     0.033 A 
HETATM   31  C   UNL     1       7.195  22.788  55.027  1.00  0.00     0.039 A 
HETATM   32  C   UNL     1       7.945  22.219  53.995  1.00  0.00     0.068 A 
HETATM   33  C   UNL     1       8.229  22.971  52.860  1.00  0.00     0.039 A 
HETATM   34  C   UNL     1       7.720  24.267  52.741  1.00  0.00     0.033 A 
BRANCH  32  35
HETATM   35  O   UNL     1       8.376  20.940  54.206  1.00  0.00    -0.352 OA
BRANCH  35  36
HETATM   36  C   UNL     1       7.959  20.353  55.443  1.00  0.00     0.171 C 
HETATM   37  C   UNL     1       9.153  20.318  56.379  1.00  0.00     0.034 C 
ENDBRANCH  35  36
ENDBRANCH  32  35
ENDBRANCH   1  29
BRANCH   6  38
HETATM   38  N   UNL     1       4.785  25.207  51.824  1.00  0.00    -0.384 N 
HETATM   39  H   UNL     1       4.350  24.495  52.390  1.00  0.00     0.157 HD
HETATM   40  H   UNL     1       4.755  25.107  50.817  1.00  0.00     0.157 HD
ENDBRANCH   6  38
TORSDOF 11
ENDMDL
