MODEL 1
REMARK VINA RESULT:     -10.7      0.000      0.000
REMARK  8 active torsions:
REMARK  status: ('A' for Active; 'I' for Inactive)
REMARK    1  A    between atoms: C_4  and  C_5 
REMARK    2  A    between atoms: C_5  and  N_6 
REMARK    3  A    between atoms: C_5  and  C_31 
REMARK       I    between atoms: N_6  and  C_7 
REMARK    4  A    between atoms: N_6  and  C_21 
REMARK    5  A    between atoms: C_7  and  C_8 
REMARK    6  A    between atoms: C_11  and  C_12 
REMARK    7  A    between atoms: C_21  and  C_22 
REMARK       I    between atoms: C_31  and  N_32 
REMARK    8  A    between atoms: N_32  and  C_33 
ROOT
HETATM    1  N   UNL     1       7.252  28.345  57.365  1.00  0.00    -0.323 N 
HETATM    2  C   UNL     1       8.414  27.590  57.196  1.00  0.00     0.271 C 
HETATM    3  O   UNL     1       9.489  28.133  56.936  1.00  0.00    -0.266 OA
ENDROOT
BRANCH   1   4
HETATM    4  C   UNL     1       7.342  29.823  57.471  1.00  0.00     0.237 C 
BRANCH   4   5
HETATM    5  C   UNL     1       6.041  30.450  57.871  1.00  0.00     0.085 A 
HETATM    6  O   UNL     1       6.127  31.562  58.665  1.00  0.00    -0.317 OA
HETATM    7  C   UNL     1       4.856  31.965  58.938  1.00  0.00     0.049 A 
HETATM    8  C   UNL     1       4.709  33.157  59.795  1.00  0.00     0.076 C 
HETATM    9  C   UNL     1       3.951  31.126  58.329  1.00  0.00     0.035 A 
HETATM   10  C   UNL     1       4.711  30.151  57.642  1.00  0.00     0.038 A 
ENDBRANCH   4   5
BRANCH   4  11
HETATM   11  C   UNL     1       8.512  30.371  58.337  1.00  0.00     0.247 C 
HETATM   12  N   UNL     1       8.367  30.235  59.706  1.00  0.00    -0.354 N 
HETATM   13  H   UNL     1       7.402  30.152  60.021  1.00  0.00     0.162 HD
HETATM   14  O   UNL     1       9.475  30.957  57.840  1.00  0.00    -0.271 OA
BRANCH  12  15
HETATM   15  C   UNL     1       9.312  30.802  60.658  1.00  0.00     0.084 C 
HETATM   16  C   UNL     1       9.267  32.336  60.638  1.00  0.00     0.025 C 
HETATM   17  C   UNL     1       7.986  32.895  61.259  1.00  0.00     0.002 C 
HETATM   18  C   UNL     1       7.751  32.346  62.663  1.00  0.00     0.000 C 
HETATM   19  C   UNL     1       7.759  30.822  62.685  1.00  0.00     0.002 C 
HETATM   20  C   UNL     1       9.037  30.256  62.065  1.00  0.00     0.025 C 
ENDBRANCH  12  15
ENDBRANCH   4  11
ENDBRANCH   1   4
BRANCH   1  21
HETATM   21  C   UNL     1       5.956  27.837  56.907  1.00  0.00     0.166 C 
BRANCH  21  22
HETATM   22  C   UNL     1       5.849  27.526  55.429  1.00  0.00    -0.037 A 
HETATM   23  C   UNL     1       5.344  26.265  55.059  1.00  0.00     0.048 A 
HETATM   24  C   UNL     1       5.224  25.969  53.718  1.00  0.00     0.105 A 
HETATM   25  C   UNL     1       5.581  26.868  52.744  1.00  0.00     0.105 A 
HETATM   26  O   UNL     1       4.756  24.801  53.202  1.00  0.00    -0.323 OA
HETATM   27  O   UNL     1       5.388  26.380  51.490  1.00  0.00    -0.323 OA
HETATM   28  C   UNL     1       6.070  28.116  53.059  1.00  0.00     0.040 A 
HETATM   29  C   UNL     1       4.867  25.067  51.789  1.00  0.00     0.352 A 
HETATM   30  C   UNL     1       6.195  28.447  54.414  1.00  0.00     0.012 A 
ENDBRANCH  21  22
ENDBRANCH   1  21
BRANCH   2  31
HETATM   31  C   UNL     1       8.323  26.146  57.192  1.00  0.00     0.101 C 
HETATM   32  N   UNL     1       8.435  25.433  56.019  1.00  0.00    -0.351 N 
HETATM   33  H   UNL     1       8.586  25.865  55.116  1.00  0.00     0.166 HD
HETATM   34  C   UNL     1       8.180  24.096  56.222  1.00  0.00     0.043 C 
HETATM   35  C   UNL     1       8.054  23.937  57.591  1.00  0.00     0.033 C 
HETATM   36  C   UNL     1       8.165  25.213  58.199  1.00  0.00     0.037 C 
BRANCH  34  37
HETATM   37  C   UNL     1       8.050  23.138  55.122  1.00  0.00    -0.009 A 
HETATM   38  C   UNL     1       7.981  21.757  55.362  1.00  0.00     0.013 A 
HETATM   39  C   UNL     1       7.913  20.851  54.300  1.00  0.00     0.001 A 
HETATM   40  C   UNL     1       7.910  21.313  52.986  1.00  0.00     0.000 A 
HETATM   41  C   UNL     1       7.966  22.682  52.733  1.00  0.00     0.001 A 
HETATM   42  C   UNL     1       8.034  23.587  53.795  1.00  0.00     0.013 A 
ENDBRANCH  34  37
ENDBRANCH   2  31
TORSDOF 8
ENDMDL
MODEL 2
REMARK VINA RESULT:     -10.6      2.947      7.362
REMARK  8 active torsions:
REMARK  status: ('A' for Active; 'I' for Inactive)
REMARK    1  A    between atoms: C_4  and  C_5 
REMARK    2  A    between atoms: C_5  and  N_6 
REMARK    3  A    between atoms: C_5  and  C_31 
REMARK       I    between atoms: N_6  and  C_7 
REMARK    4  A    between atoms: N_6  and  C_21 
REMARK    5  A    between atoms: C_7  and  C_8 
REMARK    6  A    between atoms: C_11  and  C_12 
REMARK    7  A    between atoms: C_21  and  C_22 
REMARK       I    between atoms: C_31  and  N_32 
REMARK    8  A    between atoms: N_32  and  C_33 
ROOT
HETATM    1  N   UNL     1       5.260  27.115  53.557  1.00  0.00    -0.323 N 
HETATM    2  C   UNL     1       5.369  26.073  52.635  1.00  0.00     0.271 C 
HETATM    3  O   UNL     1       4.475  25.857  51.814  1.00  0.00    -0.266 OA
ENDROOT
BRANCH   1   4
HETATM    4  C   UNL     1       4.180  28.122  53.405  1.00  0.00     0.237 C 
BRANCH   4   5
HETATM    5  C   UNL     1       4.063  29.022  54.598  1.00  0.00     0.085 A 
HETATM    6  O   UNL     1       4.613  30.268  54.470  1.00  0.00    -0.317 OA
HETATM    7  C   UNL     1       4.429  30.917  55.652  1.00  0.00     0.049 A 
HETATM    8  C   UNL     1       4.957  32.292  55.742  1.00  0.00     0.076 C 
HETATM    9  C   UNL     1       3.766  30.104  56.542  1.00  0.00     0.035 A 
HETATM   10  C   UNL     1       3.529  28.884  55.866  1.00  0.00     0.038 A 
ENDBRANCH   4   5
BRANCH   4  11
HETATM   11  C   UNL     1       4.202  28.948  52.088  1.00  0.00     0.247 C 
HETATM   12  N   UNL     1       3.300  28.558  51.114  1.00  0.00    -0.354 N 
HETATM   13  H   UNL     1       2.997  27.589  51.185  1.00  0.00     0.162 HD
HETATM   14  O   UNL     1       5.020  29.848  51.893  1.00  0.00    -0.271 OA
BRANCH  12  15
HETATM   15  C   UNL     1       3.275  29.148  49.783  1.00  0.00     0.084 C 
HETATM   16  C   UNL     1       4.245  28.426  48.837  1.00  0.00     0.025 C 
HETATM   17  C   UNL     1       3.760  27.027  48.454  1.00  0.00     0.002 C 
HETATM   18  C   UNL     1       2.343  27.053  47.889  1.00  0.00     0.000 C 
HETATM   19  C   UNL     1       1.366  27.738  48.839  1.00  0.00     0.002 C 
HETATM   20  C   UNL     1       1.845  29.137  49.227  1.00  0.00     0.025 C 
ENDBRANCH  12  15
ENDBRANCH   4  11
ENDBRANCH   1   4
BRANCH   1  21
HETATM   21  C   UNL     1       5.780  26.967  54.919  1.00  0.00     0.166 C 
BRANCH  21  22
HETATM   22  C   UNL     1       7.011  27.783  55.253  1.00  0.00    -0.037 A 
HETATM   23  C   UNL     1       7.238  28.105  56.604  1.00  0.00     0.048 A 
HETATM   24  C   UNL     1       8.362  28.834  56.930  1.00  0.00     0.105 A 
HETATM   25  C   UNL     1       9.258  29.247  55.975  1.00  0.00     0.105 A 
HETATM   26  O   UNL     1       8.719  29.223  58.183  1.00  0.00    -0.323 OA
HETATM   27  O   UNL     1      10.292  29.952  56.505  1.00  0.00    -0.323 OA
HETATM   28  C   UNL     1       9.082  28.946  54.644  1.00  0.00     0.040 A 
HETATM   29  C   UNL     1       9.942  29.936  57.905  1.00  0.00     0.352 A 
HETATM   30  C   UNL     1       7.953  28.200  54.284  1.00  0.00     0.012 A 
ENDBRANCH  21  22
ENDBRANCH   1  21
BRANCH   2  31
HETATM   31  C   UNL     1       6.482  25.154  52.737  1.00  0.00     0.101 C 
HETATM   32  N   UNL     1       6.422  24.056  53.566  1.00  0.00    -0.351 N 
HETATM   33  H   UNL     1       5.616  23.833  54.136  1.00  0.00     0.166 HD
HETATM   34  C   UNL     1       7.631  23.403  53.617  1.00  0.00     0.043 C 
HETATM   35  C   UNL     1       8.435  24.016  52.671  1.00  0.00     0.033 C 
HETATM   36  C   UNL     1       7.711  25.096  52.106  1.00  0.00     0.037 C 
BRANCH  34  37
HETATM   37  C   UNL     1       7.906  22.314  54.557  1.00  0.00    -0.009 A 
HETATM   38  C   UNL     1       7.982  22.544  55.938  1.00  0.00     0.013 A 
HETATM   39  C   UNL     1       8.298  21.506  56.818  1.00  0.00     0.001 A 
HETATM   40  C   UNL     1       8.540  20.223  56.329  1.00  0.00     0.000 A 
HETATM   41  C   UNL     1       8.457  19.977  54.961  1.00  0.00     0.001 A 
HETATM   42  C   UNL     1       8.139  21.016  54.081  1.00  0.00     0.013 A 
ENDBRANCH  34  37
ENDBRANCH   2  31
TORSDOF 8
ENDMDL
MODEL 3
REMARK VINA RESULT:     -10.6      1.939      8.379
REMARK  8 active torsions:
REMARK  status: ('A' for Active; 'I' for Inactive)
REMARK    1  A    between atoms: C_4  and  C_5 
REMARK    2  A    between atoms: C_5  and  N_6 
REMARK    3  A    between atoms: C_5  and  C_31 
REMARK       I    between atoms: N_6  and  C_7 
REMARK    4  A    between atoms: N_6  and  C_21 
REMARK    5  A    between atoms: C_7  and  C_8 
REMARK    6  A    between atoms: C_11  and  C_12 
REMARK    7  A    between atoms: C_21  and  C_22 
REMARK       I    between atoms: C_31  and  N_32 
REMARK    8  A    between atoms: N_32  and  C_33 
ROOT
HETATM    1  N   UNL     1       6.148  28.257  56.736  1.00  0.00    -0.323 N 
HETATM    2  C   UNL     1       7.460  28.080  57.179  1.00  0.00     0.271 C 
HETATM    3  O   UNL     1       8.012  26.981  57.103  1.00  0.00    -0.266 OA
ENDROOT
BRANCH   1   4
HETATM    4  C   UNL     1       5.485  27.185  55.952  1.00  0.00     0.237 C 
BRANCH   4   5
HETATM    5  C   UNL     1       5.751  27.301  54.481  1.00  0.00     0.085 A 
HETATM    6  O   UNL     1       5.215  26.320  53.692  1.00  0.00    -0.317 OA
HETATM    7  C   UNL     1       5.583  26.584  52.409  1.00  0.00     0.049 A 
HETATM    8  C   UNL     1       5.116  25.638  51.377  1.00  0.00     0.076 C 
HETATM    9  C   UNL     1       6.350  27.726  52.361  1.00  0.00     0.035 A 
HETATM   10  C   UNL     1       6.459  28.189  53.693  1.00  0.00     0.038 A 
ENDBRANCH   4   5
BRANCH   4  11
HETATM   11  C   UNL     1       5.731  25.730  56.446  1.00  0.00     0.247 C 
HETATM   12  N   UNL     1       6.627  24.982  55.704  1.00  0.00    -0.354 N 
HETATM   13  H   UNL     1       6.739  25.294  54.741  1.00  0.00     0.162 HD
HETATM   14  O   UNL     1       5.113  25.249  57.396  1.00  0.00    -0.271 OA
BRANCH  12  15
HETATM   15  C   UNL     1       6.877  23.571  55.960  1.00  0.00     0.084 C 
HETATM   16  C   UNL     1       7.072  22.795  54.650  1.00  0.00     0.025 C 
HETATM   17  C   UNL     1       8.401  23.121  53.967  1.00  0.00     0.002 C 
HETATM   18  C   UNL     1       9.584  22.932  54.912  1.00  0.00     0.000 C 
HETATM   19  C   UNL     1       9.414  23.728  56.201  1.00  0.00     0.002 C 
HETATM   20  C   UNL     1       8.087  23.408  56.889  1.00  0.00     0.025 C 
ENDBRANCH  12  15
ENDBRANCH   4  11
ENDBRANCH   1   4
BRANCH   1  21
HETATM   21  C   UNL     1       5.235  29.160  57.441  1.00  0.00     0.166 C 
BRANCH  21  22
HETATM   22  C   UNL     1       4.877  30.441  56.716  1.00  0.00    -0.037 A 
HETATM   23  C   UNL     1       5.340  31.654  57.259  1.00  0.00     0.048 A 
HETATM   24  C   UNL     1       5.037  32.830  56.606  1.00  0.00     0.105 A 
HETATM   25  C   UNL     1       4.302  32.843  55.447  1.00  0.00     0.105 A 
HETATM   26  O   UNL     1       5.410  34.076  57.002  1.00  0.00    -0.323 OA
HETATM   27  O   UNL     1       4.114  34.101  54.967  1.00  0.00    -0.323 OA
HETATM   28  C   UNL     1       3.837  31.681  54.875  1.00  0.00     0.040 A 
HETATM   29  C   UNL     1       4.817  34.877  55.959  1.00  0.00     0.352 A 
HETATM   30  C   UNL     1       4.136  30.471  55.512  1.00  0.00     0.012 A 
ENDBRANCH  21  22
ENDBRANCH   1  21
BRANCH   2  31
HETATM   31  C   UNL     1       8.128  29.170  57.857  1.00  0.00     0.101 C 
HETATM   32  N   UNL     1       7.692  29.613  59.087  1.00  0.00    -0.351 N 
HETATM   33  H   UNL     1       6.902  29.212  59.574  1.00  0.00     0.166 HD
HETATM   34  C   UNL     1       8.376  30.739  59.481  1.00  0.00     0.043 C 
HETATM   35  C   UNL     1       9.380  30.922  58.546  1.00  0.00     0.033 C 
HETATM   36  C   UNL     1       9.239  29.930  57.543  1.00  0.00     0.037 C 
BRANCH  34  37
HETATM   37  C   UNL     1       7.997  31.526  60.657  1.00  0.00    -0.009 A 
HETATM   38  C   UNL     1       8.766  31.503  61.829  1.00  0.00     0.013 A 
HETATM   39  C   UNL     1       8.363  32.216  62.962  1.00  0.00     0.001 A 
HETATM   40  C   UNL     1       7.186  32.963  62.935  1.00  0.00     0.000 A 
HETATM   41  C   UNL     1       6.418  33.003  61.774  1.00  0.00     0.001 A 
HETATM   42  C   UNL     1       6.823  32.291  60.642  1.00  0.00     0.013 A 
ENDBRANCH  34  37
ENDBRANCH   2  31
TORSDOF 8
ENDMDL
MODEL 4
REMARK VINA RESULT:     -10.4      3.006      7.398
REMARK  8 active torsions:
REMARK  status: ('A' for Active; 'I' for Inactive)
REMARK    1  A    between atoms: C_4  and  C_5 
REMARK    2  A    between atoms: C_5  and  N_6 
REMARK    3  A    between atoms: C_5  and  C_31 
REMARK       I    between atoms: N_6  and  C_7 
REMARK    4  A    between atoms: N_6  and  C_21 
REMARK    5  A    between atoms: C_7  and  C_8 
REMARK    6  A    between atoms: C_11  and  C_12 
REMARK    7  A    between atoms: C_21  and  C_22 
REMARK       I    between atoms: C_31  and  N_32 
REMARK    8  A    between atoms: N_32  and  C_33 
ROOT
HETATM    1  N   UNL     1       5.099  27.638  54.044  1.00  0.00    -0.323 N 
HETATM    2  C   UNL     1       5.000  26.260  53.849  1.00  0.00     0.271 C 
HETATM    3  O   UNL     1       4.135  25.785  53.110  1.00  0.00    -0.266 OA
ENDROOT
BRANCH   1   4
HETATM    4  C   UNL     1       4.320  28.562  53.182  1.00  0.00     0.237 C 
BRANCH   4   5
HETATM    5  C   UNL     1       4.055  29.880  53.845  1.00  0.00     0.085 A 
HETATM    6  O   UNL     1       4.345  30.995  53.106  1.00  0.00    -0.317 OA
HETATM    7  C   UNL     1       4.064  32.079  53.881  1.00  0.00     0.049 A 
HETATM    8  C   UNL     1       4.312  33.404  53.280  1.00  0.00     0.076 C 
HETATM    9  C   UNL     1       3.596  31.676  55.110  1.00  0.00     0.035 A 
HETATM   10  C   UNL     1       3.589  30.261  55.089  1.00  0.00     0.038 A 
ENDBRANCH   4   5
BRANCH   4  11
HETATM   11  C   UNL     1       4.864  28.766  51.739  1.00  0.00     0.247 C 
HETATM   12  N   UNL     1       3.952  28.579  50.716  1.00  0.00    -0.354 N 
HETATM   13  H   UNL     1       3.164  27.982  50.959  1.00  0.00     0.162 HD
HETATM   14  O   UNL     1       6.051  29.008  51.516  1.00  0.00    -0.271 OA
BRANCH  12  15
HETATM   15  C   UNL     1       4.328  28.614  49.310  1.00  0.00     0.084 C 
HETATM   16  C   UNL     1       4.879  27.257  48.849  1.00  0.00     0.025 C 
HETATM   17  C   UNL     1       3.792  26.186  48.747  1.00  0.00     0.002 C 
HETATM   18  C   UNL     1       2.627  26.643  47.875  1.00  0.00     0.000 C 
HETATM   19  C   UNL     1       2.052  27.974  48.348  1.00  0.00     0.002 C 
HETATM   20  C   UNL     1       3.133  29.049  48.453  1.00  0.00     0.025 C 
ENDBRANCH  12  15
ENDBRANCH   4  11
ENDBRANCH   1   4
BRANCH   1  21
HETATM   21  C   UNL     1       5.476  28.184  55.350  1.00  0.00     0.166 C 
BRANCH  21  22
HETATM   22  C   UNL     1       6.917  28.628  55.494  1.00  0.00    -0.037 A 
HETATM   23  C   UNL     1       7.299  29.233  56.707  1.00  0.00     0.048 A 
HETATM   24  C   UNL     1       8.610  29.630  56.863  1.00  0.00     0.105 A 
HETATM   25  C   UNL     1       9.543  29.449  55.872  1.00  0.00     0.105 A 
HETATM   26  O   UNL     1       9.132  30.225  57.968  1.00  0.00    -0.323 OA
HETATM   27  O   UNL     1      10.772  29.911  56.225  1.00  0.00    -0.323 OA
HETATM   28  C   UNL     1       9.217  28.854  54.675  1.00  0.00     0.040 A 
HETATM   29  C   UNL     1      10.503  30.405  57.554  1.00  0.00     0.352 A 
HETATM   30  C   UNL     1       7.894  28.433  54.491  1.00  0.00     0.012 A 
ENDBRANCH  21  22
ENDBRANCH   1  21
BRANCH   2  31
HETATM   31  C   UNL     1       5.837  25.375  54.629  1.00  0.00     0.101 C 
HETATM   32  N   UNL     1       6.517  24.335  54.035  1.00  0.00    -0.351 N 
HETATM   33  H   UNL     1       6.474  24.137  53.044  1.00  0.00     0.166 HD
HETATM   34  C   UNL     1       7.133  23.541  54.974  1.00  0.00     0.043 C 
HETATM   35  C   UNL     1       6.966  24.187  56.187  1.00  0.00     0.033 C 
HETATM   36  C   UNL     1       6.175  25.343  55.970  1.00  0.00     0.037 C 
BRANCH  34  37
HETATM   37  C   UNL     1       7.772  22.266  54.639  1.00  0.00    -0.009 A 
HETATM   38  C   UNL     1       7.927  21.856  53.306  1.00  0.00     0.013 A 
HETATM   39  C   UNL     1       8.489  20.613  53.004  1.00  0.00     0.001 A 
HETATM   40  C   UNL     1       8.905  19.765  54.029  1.00  0.00     0.000 A 
HETATM   41  C   UNL     1       8.768  20.164  55.356  1.00  0.00     0.001 A 
HETATM   42  C   UNL     1       8.206  21.408  55.658  1.00  0.00     0.013 A 
ENDBRANCH  34  37
ENDBRANCH   2  31
TORSDOF 8
ENDMDL
MODEL 5
REMARK VINA RESULT:     -10.3      2.289      5.971
REMARK  8 active torsions:
REMARK  status: ('A' for Active; 'I' for Inactive)
REMARK    1  A    between atoms: C_4  and  C_5 
REMARK    2  A    between atoms: C_5  and  N_6 
REMARK    3  A    between atoms: C_5  and  C_31 
REMARK       I    between atoms: N_6  and  C_7 
REMARK    4  A    between atoms: N_6  and  C_21 
REMARK    5  A    between atoms: C_7  and  C_8 
REMARK    6  A    between atoms: C_11  and  C_12 
REMARK    7  A    between atoms: C_21  and  C_22 
REMARK       I    between atoms: C_31  and  N_32 
REMARK    8  A    between atoms: N_32  and  C_33 
ROOT
HETATM    1  N   UNL     1       6.325  27.766  53.284  1.00  0.00    -0.323 N 
HETATM    2  C   UNL     1       5.706  26.519  53.197  1.00  0.00     0.271 C 
HETATM    3  O   UNL     1       4.498  26.395  53.404  1.00  0.00    -0.266 OA
ENDROOT
BRANCH   1   4
HETATM    4  C   UNL     1       5.495  28.993  53.391  1.00  0.00     0.237 C 
BRANCH   4   5
HETATM    5  C   UNL     1       4.666  29.234  52.166  1.00  0.00     0.085 A 
HETATM    6  O   UNL     1       5.351  29.343  50.986  1.00  0.00    -0.317 OA
HETATM    7  C   UNL     1       4.436  29.583  50.007  1.00  0.00     0.049 A 
HETATM    8  C   UNL     1       4.961  29.743  48.636  1.00  0.00     0.076 C 
HETATM    9  C   UNL     1       3.169  29.629  50.541  1.00  0.00     0.035 A 
HETATM   10  C   UNL     1       3.314  29.405  51.930  1.00  0.00     0.038 A 
ENDBRANCH   4   5
BRANCH   4  11
HETATM   11  C   UNL     1       4.632  29.119  54.679  1.00  0.00     0.247 C 
HETATM   12  N   UNL     1       4.501  30.394  55.197  1.00  0.00    -0.354 N 
HETATM   13  H   UNL     1       5.250  31.034  54.936  1.00  0.00     0.162 HD
HETATM   14  O   UNL     1       4.154  28.135  55.245  1.00  0.00    -0.271 OA
BRANCH  12  15
HETATM   15  C   UNL     1       3.828  30.666  56.459  1.00  0.00     0.084 C 
HETATM   16  C   UNL     1       4.813  30.606  57.636  1.00  0.00     0.025 C 
HETATM   17  C   UNL     1       5.778  31.792  57.656  1.00  0.00     0.002 C 
HETATM   18  C   UNL     1       5.038  33.126  57.612  1.00  0.00     0.000 C 
HETATM   19  C   UNL     1       4.084  33.206  56.425  1.00  0.00     0.002 C 
HETATM   20  C   UNL     1       3.116  32.024  56.398  1.00  0.00     0.025 C 
ENDBRANCH  12  15
ENDBRANCH   4  11
ENDBRANCH   1   4
BRANCH   1  21
HETATM   21  C   UNL     1       7.685  27.893  53.813  1.00  0.00     0.166 C 
BRANCH  21  22
HETATM   22  C   UNL     1       7.797  28.181  55.295  1.00  0.00    -0.037 A 
HETATM   23  C   UNL     1       8.526  29.319  55.689  1.00  0.00     0.048 A 
HETATM   24  C   UNL     1       8.628  29.606  57.034  1.00  0.00     0.105 A 
HETATM   25  C   UNL     1       8.036  28.816  57.989  1.00  0.00     0.105 A 
HETATM   26  O   UNL     1       9.294  30.663  57.571  1.00  0.00    -0.323 OA
HETATM   27  O   UNL     1       8.258  29.272  59.250  1.00  0.00    -0.323 OA
HETATM   28  C   UNL     1       7.306  27.700  57.649  1.00  0.00     0.040 A 
HETATM   29  C   UNL     1       9.059  30.442  58.978  1.00  0.00     0.352 A 
HETATM   30  C   UNL     1       7.180  27.388  56.290  1.00  0.00     0.012 A 
ENDBRANCH  21  22
ENDBRANCH   1  21
BRANCH   2  31
HETATM   31  C   UNL     1       6.521  25.340  52.995  1.00  0.00     0.101 C 
HETATM   32  N   UNL     1       6.553  24.331  53.933  1.00  0.00    -0.351 N 
HETATM   33  H   UNL     1       6.021  24.355  54.794  1.00  0.00     0.166 HD
HETATM   34  C   UNL     1       7.493  23.380  53.610  1.00  0.00     0.043 C 
HETATM   35  C   UNL     1       7.959  23.718  52.351  1.00  0.00     0.033 C 
HETATM   36  C   UNL     1       7.337  24.930  51.957  1.00  0.00     0.037 C 
BRANCH  34  37
HETATM   37  C   UNL     1       7.867  22.295  54.519  1.00  0.00    -0.009 A 
HETATM   38  C   UNL     1       7.950  22.499  55.904  1.00  0.00     0.013 A 
HETATM   39  C   UNL     1       8.362  21.469  56.754  1.00  0.00     0.001 A 
HETATM   40  C   UNL     1       8.694  20.221  56.231  1.00  0.00     0.000 A 
HETATM   41  C   UNL     1       8.606  20.000  54.858  1.00  0.00     0.001 A 
HETATM   42  C   UNL     1       8.193  21.031  54.009  1.00  0.00     0.013 A 
ENDBRANCH  34  37
ENDBRANCH   2  31
TORSDOF 8
ENDMDL
MODEL 6
REMARK VINA RESULT:     -10.2      2.799      6.471
REMARK  8 active torsions:
REMARK  status: ('A' for Active; 'I' for Inactive)
REMARK    1  A    between atoms: C_4  and  C_5 
REMARK    2  A    between atoms: C_5  and  N_6 
REMARK    3  A    between atoms: C_5  and  C_31 
REMARK       I    between atoms: N_6  and  C_7 
REMARK    4  A    between atoms: N_6  and  C_21 
REMARK    5  A    between atoms: C_7  and  C_8 
REMARK    6  A    between atoms: C_11  and  C_12 
REMARK    7  A    between atoms: C_21  and  C_22 
REMARK       I    between atoms: C_31  and  N_32 
REMARK    8  A    between atoms: N_32  and  C_33 
ROOT
HETATM    1  N   UNL     1       6.262  27.568  53.365  1.00  0.00    -0.323 N 
HETATM    2  C   UNL     1       5.476  26.822  54.245  1.00  0.00     0.271 C 
HETATM    3  O   UNL     1       4.304  27.134  54.468  1.00  0.00    -0.266 OA
ENDROOT
BRANCH   1   4
HETATM    4  C   UNL     1       5.629  28.601  52.508  1.00  0.00     0.237 C 
BRANCH   4   5
HETATM    5  C   UNL     1       5.328  28.097  51.128  1.00  0.00     0.085 A 
HETATM    6  O   UNL     1       5.312  29.036  50.134  1.00  0.00    -0.317 OA
HETATM    7  C   UNL     1       4.999  28.394  48.975  1.00  0.00     0.049 A 
HETATM    8  C   UNL     1       4.918  29.225  47.758  1.00  0.00     0.076 C 
HETATM    9  C   UNL     1       4.814  27.051  49.211  1.00  0.00     0.035 A 
HETATM   10  C   UNL     1       5.025  26.857  50.596  1.00  0.00     0.038 A 
ENDBRANCH   4   5
BRANCH   4  11
HETATM   11  C   UNL     1       4.393  29.325  53.115  1.00  0.00     0.247 C 
HETATM   12  N   UNL     1       4.657  30.218  54.138  1.00  0.00    -0.354 N 
HETATM   13  H   UNL     1       5.529  30.043  54.635  1.00  0.00     0.162 HD
HETATM   14  O   UNL     1       3.243  29.066  52.759  1.00  0.00    -0.271 OA
BRANCH  12  15
HETATM   15  C   UNL     1       3.605  30.885  54.892  1.00  0.00     0.084 C 
HETATM   16  C   UNL     1       4.033  31.125  56.346  1.00  0.00     0.025 C 
HETATM   17  C   UNL     1       5.101  32.212  56.473  1.00  0.00     0.002 C 
HETATM   18  C   UNL     1       4.672  33.509  55.794  1.00  0.00     0.000 C 
HETATM   19  C   UNL     1       4.279  33.284  54.338  1.00  0.00     0.002 C 
HETATM   20  C   UNL     1       3.213  32.198  54.203  1.00  0.00     0.025 C 
ENDBRANCH  12  15
ENDBRANCH   4  11
ENDBRANCH   1   4
BRANCH   1  21
HETATM   21  C   UNL     1       7.689  27.771  53.625  1.00  0.00     0.166 C 
BRANCH  21  22
HETATM   22  C   UNL     1       8.033  28.544  54.881  1.00  0.00    -0.037 A 
HETATM   23  C   UNL     1       9.366  28.961  55.051  1.00  0.00     0.048 A 
HETATM   24  C   UNL     1       9.696  29.679  56.181  1.00  0.00     0.105 A 
HETATM   25  C   UNL     1       8.760  29.996  57.135  1.00  0.00     0.105 A 
HETATM   26  O   UNL     1      10.934  30.151  56.488  1.00  0.00    -0.323 OA
HETATM   27  O   UNL     1       9.290  30.704  58.166  1.00  0.00    -0.323 OA
HETATM   28  C   UNL     1       7.443  29.618  57.005  1.00  0.00     0.040 A 
HETATM   29  C   UNL     1      10.669  30.796  57.752  1.00  0.00     0.352 A 
HETATM   30  C   UNL     1       7.078  28.894  55.864  1.00  0.00     0.012 A 
ENDBRANCH  21  22
ENDBRANCH   1  21
BRANCH   2  31
HETATM   31  C   UNL     1       6.087  25.753  55.004  1.00  0.00     0.101 C 
HETATM   32  N   UNL     1       6.747  24.722  54.372  1.00  0.00    -0.351 N 
HETATM   33  H   UNL     1       6.843  24.656  53.367  1.00  0.00     0.166 HD
HETATM   34  C   UNL     1       7.125  23.749  55.268  1.00  0.00     0.043 C 
HETATM   35  C   UNL     1       6.832  24.253  56.524  1.00  0.00     0.033 C 
HETATM   36  C   UNL     1       6.203  25.513  56.361  1.00  0.00     0.037 C 
BRANCH  34  37
HETATM   37  C   UNL     1       7.681  22.460  54.851  1.00  0.00    -0.009 A 
HETATM   38  C   UNL     1       7.886  22.158  53.496  1.00  0.00     0.013 A 
HETATM   39  C   UNL     1       8.365  20.903  53.110  1.00  0.00     0.001 A 
HETATM   40  C   UNL     1       8.648  19.936  54.073  1.00  0.00     0.000 A 
HETATM   41  C   UNL     1       8.460  20.226  55.422  1.00  0.00     0.001 A 
HETATM   42  C   UNL     1       7.981  21.481  55.807  1.00  0.00     0.013 A 
ENDBRANCH  34  37
ENDBRANCH   2  31
TORSDOF 8
ENDMDL
MODEL 7
REMARK VINA RESULT:      -9.9      5.983     12.816
REMARK  8 active torsions:
REMARK  status: ('A' for Active; 'I' for Inactive)
REMARK    1  A    between atoms: C_4  and  C_5 
REMARK    2  A    between atoms: C_5  and  N_6 
REMARK    3  A    between atoms: C_5  and  C_31 
REMARK       I    between atoms: N_6  and  C_7 
REMARK    4  A    between atoms: N_6  and  C_21 
REMARK    5  A    between atoms: C_7  and  C_8 
REMARK    6  A    between atoms: C_11  and  C_12 
REMARK    7  A    between atoms: C_21  and  C_22 
REMARK       I    between atoms: C_31  and  N_32 
REMARK    8  A    between atoms: N_32  and  C_33 
ROOT
HETATM    1  N   UNL     1       5.272  34.253  63.142  1.00  0.00    -0.323 N 
HETATM    2  C   UNL     1       5.260  33.325  64.184  1.00  0.00     0.271 C 
HETATM    3  O   UNL     1       5.329  32.115  63.955  1.00  0.00    -0.266 OA
ENDROOT
BRANCH   1   4
HETATM    4  C   UNL     1       5.606  33.811  61.765  1.00  0.00     0.237 C 
BRANCH   4   5
HETATM    5  C   UNL     1       6.858  32.988  61.715  1.00  0.00     0.085 A 
HETATM    6  O   UNL     1       6.936  32.070  60.703  1.00  0.00    -0.317 OA
HETATM    7  C   UNL     1       8.120  31.413  60.840  1.00  0.00     0.049 A 
HETATM    8  C   UNL     1       8.413  30.361  59.848  1.00  0.00     0.076 C 
HETATM    9  C   UNL     1       8.808  31.898  61.930  1.00  0.00     0.035 A 
HETATM   10  C   UNL     1       7.998  32.911  62.494  1.00  0.00     0.038 A 
ENDBRANCH   4   5
BRANCH   4  11
HETATM   11  C   UNL     1       4.458  33.122  60.975  1.00  0.00     0.247 C 
HETATM   12  N   UNL     1       4.598  33.100  59.599  1.00  0.00    -0.354 N 
HETATM   13  H   UNL     1       5.201  33.831  59.226  1.00  0.00     0.162 HD
HETATM   14  O   UNL     1       3.449  32.687  61.532  1.00  0.00    -0.271 OA
BRANCH  12  15
HETATM   15  C   UNL     1       3.558  32.602  58.709  1.00  0.00     0.084 C 
HETATM   16  C   UNL     1       3.554  33.368  57.378  1.00  0.00     0.025 C 
HETATM   17  C   UNL     1       4.759  33.027  56.501  1.00  0.00     0.002 C 
HETATM   18  C   UNL     1       4.893  31.524  56.281  1.00  0.00     0.000 C 
HETATM   19  C   UNL     1       4.934  30.759  57.600  1.00  0.00     0.002 C 
HETATM   20  C   UNL     1       3.732  31.095  58.483  1.00  0.00     0.025 C 
ENDBRANCH  12  15
ENDBRANCH   4  11
ENDBRANCH   1   4
BRANCH   1  21
HETATM   21  C   UNL     1       4.467  35.475  63.219  1.00  0.00     0.166 C 
BRANCH  21  22
HETATM   22  C   UNL     1       5.228  36.780  63.111  1.00  0.00    -0.037 A 
HETATM   23  C   UNL     1       5.276  37.608  64.249  1.00  0.00     0.048 A 
HETATM   24  C   UNL     1       5.976  38.793  64.175  1.00  0.00     0.105 A 
HETATM   25  C   UNL     1       6.624  39.180  63.028  1.00  0.00     0.105 A 
HETATM   26  O   UNL     1       6.115  39.696  65.182  1.00  0.00    -0.323 OA
HETATM   27  O   UNL     1       7.251  40.378  63.165  1.00  0.00    -0.323 OA
HETATM   28  C   UNL     1       6.613  38.397  61.896  1.00  0.00     0.040 A 
HETATM   29  C   UNL     1       6.921  40.701  64.532  1.00  0.00     0.352 A 
HETATM   30  C   UNL     1       5.916  37.184  61.944  1.00  0.00     0.012 A 
ENDBRANCH  21  22
ENDBRANCH   1  21
BRANCH   2  31
HETATM   31  C   UNL     1       5.028  33.784  65.536  1.00  0.00     0.101 C 
HETATM   32  N   UNL     1       6.062  33.871  66.442  1.00  0.00    -0.351 N 
HETATM   33  H   UNL     1       7.019  33.628  66.220  1.00  0.00     0.166 HD
HETATM   34  C   UNL     1       5.599  34.192  67.697  1.00  0.00     0.043 C 
HETATM   35  C   UNL     1       4.251  34.467  67.546  1.00  0.00     0.033 C 
HETATM   36  C   UNL     1       3.898  34.233  66.193  1.00  0.00     0.037 C 
BRANCH  34  37
HETATM   37  C   UNL     1       6.454  34.172  68.886  1.00  0.00    -0.009 A 
HETATM   38  C   UNL     1       7.660  34.886  68.930  1.00  0.00     0.013 A 
HETATM   39  C   UNL     1       8.492  34.813  70.051  1.00  0.00     0.001 A 
HETATM   40  C   UNL     1       8.127  34.028  71.143  1.00  0.00     0.000 A 
HETATM   41  C   UNL     1       6.926  33.323  71.119  1.00  0.00     0.001 A 
HETATM   42  C   UNL     1       6.095  33.396  69.998  1.00  0.00     0.013 A 
ENDBRANCH  34  37
ENDBRANCH   2  31
TORSDOF 8
ENDMDL
MODEL 8
REMARK VINA RESULT:      -9.8      5.467     10.667
REMARK  8 active torsions:
REMARK  status: ('A' for Active; 'I' for Inactive)
REMARK    1  A    between atoms: C_4  and  C_5 
REMARK    2  A    between atoms: C_5  and  N_6 
REMARK    3  A    between atoms: C_5  and  C_31 
REMARK       I    between atoms: N_6  and  C_7 
REMARK    4  A    between atoms: N_6  and  C_21 
REMARK    5  A    between atoms: C_7  and  C_8 
REMARK    6  A    between atoms: C_11  and  C_12 
REMARK    7  A    between atoms: C_21  and  C_22 
REMARK       I    between atoms: C_31  and  N_32 
REMARK    8  A    between atoms: N_32  and  C_33 
ROOT
HETATM    1  N   UNL     1       5.675  33.974  62.889  1.00  0.00    -0.323 N 
HETATM    2  C   UNL     1       6.102  33.672  61.595  1.00  0.00     0.271 C 
HETATM    3  O   UNL     1       5.467  34.059  60.612  1.00  0.00    -0.266 OA
ENDROOT
BRANCH   1   4
HETATM    4  C   UNL     1       4.587  34.964  63.093  1.00  0.00     0.237 C 
BRANCH   4   5
HETATM    5  C   UNL     1       5.104  36.363  63.239  1.00  0.00     0.085 A 
HETATM    6  O   UNL     1       5.808  36.859  62.176  1.00  0.00    -0.317 OA
HETATM    7  C   UNL     1       6.210  38.117  62.507  1.00  0.00     0.049 A 
HETATM    8  C   UNL     1       7.001  38.847  61.497  1.00  0.00     0.076 C 
HETATM    9  C   UNL     1       5.771  38.438  63.771  1.00  0.00     0.035 A 
HETATM   10  C   UNL     1       5.059  37.311  64.244  1.00  0.00     0.038 A 
ENDBRANCH   4   5
BRANCH   4  11
HETATM   11  C   UNL     1       3.418  34.908  62.069  1.00  0.00     0.247 C 
HETATM   12  N   UNL     1       3.403  35.908  61.113  1.00  0.00    -0.354 N 
HETATM   13  H   UNL     1       3.897  36.756  61.383  1.00  0.00     0.162 HD
HETATM   14  O   UNL     1       2.519  34.070  62.147  1.00  0.00    -0.271 OA
BRANCH  12  15
HETATM   15  C   UNL     1       2.315  36.069  60.159  1.00  0.00     0.084 C 
HETATM   16  C   UNL     1       2.147  37.540  59.752  1.00  0.00     0.025 C 
HETATM   17  C   UNL     1       3.283  38.034  58.856  1.00  0.00     0.002 C 
HETATM   18  C   UNL     1       3.478  37.135  57.639  1.00  0.00     0.000 C 
HETATM   19  C   UNL     1       3.680  35.677  58.037  1.00  0.00     0.002 C 
HETATM   20  C   UNL     1       2.548  35.176  58.934  1.00  0.00     0.025 C 
ENDBRANCH  12  15
ENDBRANCH   4  11
ENDBRANCH   1   4
BRANCH   1  21
HETATM   21  C   UNL     1       5.843  33.008  63.978  1.00  0.00     0.166 C 
BRANCH  21  22
HETATM   22  C   UNL     1       5.671  33.551  65.380  1.00  0.00    -0.037 A 
HETATM   23  C   UNL     1       6.834  33.833  66.122  1.00  0.00     0.048 A 
HETATM   24  C   UNL     1       6.698  34.343  67.396  1.00  0.00     0.105 A 
HETATM   25  C   UNL     1       5.465  34.581  67.952  1.00  0.00     0.105 A 
HETATM   26  O   UNL     1       7.719  34.664  68.235  1.00  0.00    -0.323 OA
HETATM   27  O   UNL     1       5.552  35.080  69.213  1.00  0.00    -0.323 OA
HETATM   28  C   UNL     1       4.302  34.331  67.260  1.00  0.00     0.040 A 
HETATM   29  C   UNL     1       6.984  35.127  69.387  1.00  0.00     0.352 A 
HETATM   30  C   UNL     1       4.409  33.820  65.960  1.00  0.00     0.012 A 
ENDBRANCH  21  22
ENDBRANCH   1  21
BRANCH   2  31
HETATM   31  C   UNL     1       7.227  32.781  61.413  1.00  0.00     0.101 C 
HETATM   32  N   UNL     1       7.599  32.355  60.157  1.00  0.00    -0.351 N 
HETATM   33  H   UNL     1       7.120  32.636  59.311  1.00  0.00     0.166 HD
HETATM   34  C   UNL     1       8.595  31.410  60.226  1.00  0.00     0.043 C 
HETATM   35  C   UNL     1       8.972  31.350  61.557  1.00  0.00     0.033 C 
HETATM   36  C   UNL     1       8.133  32.221  62.295  1.00  0.00     0.037 C 
BRANCH  34  37
HETATM   37  C   UNL     1       9.054  30.654  59.058  1.00  0.00    -0.009 A 
HETATM   38  C   UNL     1      10.211  31.025  58.357  1.00  0.00     0.013 A 
HETATM   39  C   UNL     1      10.605  30.327  57.212  1.00  0.00     0.001 A 
HETATM   40  C   UNL     1       9.850  29.249  56.754  1.00  0.00     0.000 A 
HETATM   41  C   UNL     1       8.705  28.863  57.447  1.00  0.00     0.001 A 
HETATM   42  C   UNL     1       8.311  29.560  58.592  1.00  0.00     0.013 A 
ENDBRANCH  34  37
ENDBRANCH   2  31
TORSDOF 8
ENDMDL
MODEL 9
REMARK VINA RESULT:      -9.8      3.146      8.586
REMARK  8 active torsions:
REMARK  status: ('A' for Active; 'I' for Inactive)
REMARK    1  A    between atoms: C_4  and  C_5 
REMARK    2  A    between atoms: C_5  and  N_6 
REMARK    3  A    between atoms: C_5  and  C_31 
REMARK       I    between atoms: N_6  and  C_7 
REMARK    4  A    between atoms: N_6  and  C_21 
REMARK    5  A    between atoms: C_7  and  C_8 
REMARK    6  A    between atoms: C_11  and  C_12 
REMARK    7  A    between atoms: C_21  and  C_22 
REMARK       I    between atoms: C_31  and  N_32 
REMARK    8  A    between atoms: N_32  and  C_33 
ROOT
HETATM    1  N   UNL     1       5.226  27.411  53.657  1.00  0.00    -0.323 N 
HETATM    2  C   UNL     1       4.943  28.053  54.864  1.00  0.00     0.271 C 
HETATM    3  O   UNL     1       3.962  28.791  54.975  1.00  0.00    -0.266 OA
ENDROOT
BRANCH   1   4
HETATM    4  C   UNL     1       4.219  27.418  52.566  1.00  0.00     0.237 C 
BRANCH   4   5
HETATM    5  C   UNL     1       3.904  28.803  52.084  1.00  0.00     0.085 A 
HETATM    6  O   UNL     1       4.952  29.512  51.564  1.00  0.00    -0.317 OA
HETATM    7  C   UNL     1       4.477  30.738  51.210  1.00  0.00     0.049 A 
HETATM    8  C   UNL     1       5.449  31.682  50.626  1.00  0.00     0.076 C 
HETATM    9  C   UNL     1       3.133  30.826  51.496  1.00  0.00     0.035 A 
HETATM   10  C   UNL     1       2.763  29.582  52.058  1.00  0.00     0.038 A 
ENDBRANCH   4   5
BRANCH   4  11
HETATM   11  C   UNL     1       4.507  26.467  51.370  1.00  0.00     0.247 C 
HETATM   12  N   UNL     1       4.510  27.053  50.118  1.00  0.00    -0.354 N 
HETATM   13  H   UNL     1       3.973  27.917  50.056  1.00  0.00     0.162 HD
HETATM   14  O   UNL     1       4.651  25.253  51.520  1.00  0.00    -0.271 OA
BRANCH  12  15
HETATM   15  C   UNL     1       4.643  26.285  48.888  1.00  0.00     0.084 C 
HETATM   16  C   UNL     1       3.342  25.542  48.555  1.00  0.00     0.025 C 
HETATM   17  C   UNL     1       2.230  26.483  48.091  1.00  0.00     0.002 C 
HETATM   18  C   UNL     1       2.682  27.368  46.933  1.00  0.00     0.000 C 
HETATM   19  C   UNL     1       3.956  28.136  47.270  1.00  0.00     0.002 C 
HETATM   20  C   UNL     1       5.072  27.201  47.735  1.00  0.00     0.025 C 
ENDBRANCH  12  15
ENDBRANCH   4  11
ENDBRANCH   1   4
BRANCH   1  21
HETATM   21  C   UNL     1       6.610  27.217  53.219  1.00  0.00     0.166 C 
BRANCH  21  22
HETATM   22  C   UNL     1       7.130  25.795  53.269  1.00  0.00    -0.037 A 
HETATM   23  C   UNL     1       6.857  25.037  54.423  1.00  0.00     0.048 A 
HETATM   24  C   UNL     1       7.309  23.736  54.481  1.00  0.00     0.105 A 
HETATM   25  C   UNL     1       8.010  23.167  53.447  1.00  0.00     0.105 A 
HETATM   26  O   UNL     1       7.128  22.879  55.522  1.00  0.00    -0.323 OA
HETATM   27  O   UNL     1       8.364  21.881  53.706  1.00  0.00    -0.323 OA
HETATM   28  C   UNL     1       8.290  23.867  52.296  1.00  0.00     0.040 A 
HETATM   29  C   UNL     1       7.804  21.706  55.024  1.00  0.00     0.352 A 
HETATM   30  C   UNL     1       7.837  25.189  52.205  1.00  0.00     0.012 A 
ENDBRANCH  21  22
ENDBRANCH   1  21
BRANCH   2  31
HETATM   31  C   UNL     1       5.891  27.957  55.953  1.00  0.00     0.101 C 
HETATM   32  N   UNL     1       6.781  28.977  56.211  1.00  0.00    -0.351 N 
HETATM   33  H   UNL     1       6.821  29.830  55.669  1.00  0.00     0.166 HD
HETATM   34  C   UNL     1       7.676  28.620  57.192  1.00  0.00     0.043 C 
HETATM   35  C   UNL     1       7.243  27.398  57.677  1.00  0.00     0.033 C 
HETATM   36  C   UNL     1       6.116  26.993  56.918  1.00  0.00     0.037 C 
BRANCH  34  37
HETATM   37  C   UNL     1       8.841  29.438  57.537  1.00  0.00    -0.009 A 
HETATM   38  C   UNL     1       8.729  30.544  58.393  1.00  0.00     0.013 A 
HETATM   39  C   UNL     1       9.838  31.347  58.670  1.00  0.00     0.001 A 
HETATM   40  C   UNL     1      11.075  31.054  58.097  1.00  0.00     0.000 A 
HETATM   41  C   UNL     1      11.204  29.952  57.255  1.00  0.00     0.001 A 
HETATM   42  C   UNL     1      10.094  29.149  56.979  1.00  0.00     0.013 A 
ENDBRANCH  34  37
ENDBRANCH   2  31
TORSDOF 8
ENDMDL
MODEL 10
REMARK VINA RESULT:      -9.8      4.573      8.533
REMARK  8 active torsions:
REMARK  status: ('A' for Active; 'I' for Inactive)
REMARK    1  A    between atoms: C_4  and  C_5 
REMARK    2  A    between atoms: C_5  and  N_6 
REMARK    3  A    between atoms: C_5  and  C_31 
REMARK       I    between atoms: N_6  and  C_7 
REMARK    4  A    between atoms: N_6  and  C_21 
REMARK    5  A    between atoms: C_7  and  C_8 
REMARK    6  A    between atoms: C_11  and  C_12 
REMARK    7  A    between atoms: C_21  and  C_22 
REMARK       I    between atoms: C_31  and  N_32 
REMARK    8  A    between atoms: N_32  and  C_33 
ROOT
HETATM    1  N   UNL     1       4.934  26.888  51.783  1.00  0.00    -0.323 N 
HETATM    2  C   UNL     1       4.527  26.055  50.740  1.00  0.00     0.271 C 
HETATM    3  O   UNL     1       4.468  24.833  50.890  1.00  0.00    -0.266 OA
ENDROOT
BRANCH   1   4
HETATM    4  C   UNL     1       5.070  26.336  53.155  1.00  0.00     0.237 C 
BRANCH   4   5
HETATM    5  C   UNL     1       6.231  25.396  53.283  1.00  0.00     0.085 A 
HETATM    6  O   UNL     1       6.166  24.496  54.312  1.00  0.00    -0.317 OA
HETATM    7  C   UNL     1       7.309  23.758  54.277  1.00  0.00     0.049 A 
HETATM    8  C   UNL     1       7.458  22.718  55.313  1.00  0.00     0.076 C 
HETATM    9  C   UNL     1       8.110  24.171  53.236  1.00  0.00     0.035 A 
HETATM   10  C   UNL     1       7.417  25.225  52.595  1.00  0.00     0.038 A 
ENDBRANCH   4   5
BRANCH   4  11
HETATM   11  C   UNL     1       5.071  27.379  54.309  1.00  0.00     0.247 C 
HETATM   12  N   UNL     1       6.182  27.369  55.132  1.00  0.00    -0.354 N 
HETATM   13  H   UNL     1       6.685  26.483  55.150  1.00  0.00     0.162 HD
HETATM   14  O   UNL     1       4.110  28.119  54.523  1.00  0.00    -0.271 OA
BRANCH  12  15
HETATM   15  C   UNL     1       6.286  28.196  56.326  1.00  0.00     0.084 C 
HETATM   16  C   UNL     1       6.917  27.416  57.488  1.00  0.00     0.025 C 
HETATM   17  C   UNL     1       8.411  27.162  57.282  1.00  0.00     0.002 C 
HETATM   18  C   UNL     1       9.171  28.453  56.996  1.00  0.00     0.000 C 
HETATM   19  C   UNL     1       8.571  29.216  55.820  1.00  0.00     0.002 C 
HETATM   20  C   UNL     1       7.077  29.473  56.018  1.00  0.00     0.025 C 
ENDBRANCH  12  15
ENDBRANCH   4  11
ENDBRANCH   1   4
BRANCH   1  21
HETATM   21  C   UNL     1       5.735  28.085  51.517  1.00  0.00     0.166 C 
BRANCH  21  22
HETATM   22  C   UNL     1       4.980  29.288  50.992  1.00  0.00    -0.037 A 
HETATM   23  C   UNL     1       5.536  29.988  49.905  1.00  0.00     0.048 A 
HETATM   24  C   UNL     1       4.856  31.077  49.402  1.00  0.00     0.105 A 
HETATM   25  C   UNL     1       3.658  31.488  49.932  1.00  0.00     0.105 A 
HETATM   26  O   UNL     1       5.260  31.854  48.362  1.00  0.00    -0.323 OA
HETATM   27  O   UNL     1       3.156  32.579  49.295  1.00  0.00    -0.323 OA
HETATM   28  C   UNL     1       3.072  30.827  50.988  1.00  0.00     0.040 A 
HETATM   29  C   UNL     1       4.178  32.807  48.302  1.00  0.00     0.352 A 
HETATM   30  C   UNL     1       3.737  29.713  51.514  1.00  0.00     0.012 A 
ENDBRANCH  21  22
ENDBRANCH   1  21
BRANCH   2  31
HETATM   31  C   UNL     1       4.304  26.625  49.428  1.00  0.00     0.101 C 
HETATM   32  N   UNL     1       3.115  27.248  49.119  1.00  0.00    -0.351 N 
HETATM   33  H   UNL     1       2.350  27.343  49.774  1.00  0.00     0.166 HD
HETATM   34  C   UNL     1       3.063  27.588  47.787  1.00  0.00     0.043 C 
HETATM   35  C   UNL     1       4.319  27.311  47.274  1.00  0.00     0.033 C 
HETATM   36  C   UNL     1       5.101  26.729  48.303  1.00  0.00     0.037 C 
BRANCH  34  37
HETATM   37  C   UNL     1       1.848  28.096  47.145  1.00  0.00    -0.009 A 
HETATM   38  C   UNL     1       0.873  27.226  46.637  1.00  0.00     0.013 A 
HETATM   39  C   UNL     1      -0.254  27.725  45.979  1.00  0.00     0.001 A 
HETATM   40  C   UNL     1      -0.422  29.099  45.823  1.00  0.00     0.000 A 
HETATM   41  C   UNL     1       0.532  29.976  46.333  1.00  0.00     0.001 A 
HETATM   42  C   UNL     1       1.659  29.477  46.992  1.00  0.00     0.013 A 
ENDBRANCH  34  37
ENDBRANCH   2  31
TORSDOF 8
ENDMDL
