MODEL 1
REMARK VINA RESULT:      -9.5      0.000      0.000
REMARK  7 active torsions:
REMARK  status: ('A' for Active; 'I' for Inactive)
REMARK    1  A    between atoms: C_2  and  S_3 
REMARK    2  A    between atoms: C_2  and  C_20 
REMARK    3  A    between atoms: S_3  and  C_4 
REMARK    4  A    between atoms: C_4  and  C_5 
REMARK       I    between atoms: C_5  and  N_6 
REMARK    5  A    between atoms: N_6  and  C_7 
REMARK    6  A    between atoms: C_10  and  C_11 
REMARK       I    between atoms: C_11  and  N_12 
REMARK    7  A    between atoms: N_12  and  C_13 
ROOT
HETATM    1  C   UNL     1       8.761  31.214  59.366  1.00  0.00     0.231 C 
HETATM    2  N   UNL     1       8.022  30.803  60.465  1.00  0.00    -0.327 N 
HETATM    3  O   UNL     1       9.211  32.341  59.176  1.00  0.00    -0.272 OA
HETATM    4  H   UNL     1       7.716  29.837  60.475  1.00  0.00     0.169 HD
ENDROOT
BRANCH   1   5
HETATM    5  C   UNL     1       8.978  30.109  58.340  1.00  0.00     0.177 C 
BRANCH   5   6
HETATM    6  S   UNL     1       7.388  29.298  57.970  1.00  0.00    -0.147 SA
BRANCH   6   7
HETATM    7  C   UNL     1       7.761  28.752  56.261  1.00  0.00     0.113 C 
HETATM    8  C   UNL     1       9.097  29.343  55.815  1.00  0.00     0.029 C 
BRANCH   7   9
HETATM    9  C   UNL     1       7.750  27.258  56.174  1.00  0.00     0.118 A 
HETATM   10  N   UNL     1       7.162  26.534  55.241  1.00  0.00    -0.232 NA
HETATM   11  C   UNL     1       7.444  25.226  55.551  1.00  0.00     0.085 A 
HETATM   12  C   UNL     1       8.197  25.143  56.716  1.00  0.00     0.062 A 
HETATM   13  C   UNL     1       7.090  24.046  54.880  1.00  0.00     0.034 A 
HETATM   14  N   UNL     1       8.366  26.448  57.100  1.00  0.00    -0.342 N 
HETATM   15  C   UNL     1       8.628  23.936  57.268  1.00  0.00     0.032 A 
HETATM   16  H   UNL     1       8.861  26.766  57.922  1.00  0.00     0.167 HD
HETATM   17  C   UNL     1       8.268  22.769  56.583  1.00  0.00     0.002 A 
HETATM   18  C   UNL     1       7.513  22.820  55.408  1.00  0.00     0.002 A 
ENDBRANCH   7   9
ENDBRANCH   6   7
ENDBRANCH   5   6
ENDBRANCH   1   5
BRANCH   2  19
HETATM   19  C   UNL     1       7.613  31.590  61.563  1.00  0.00     0.034 A 
HETATM   20  C   UNL     1       8.408  31.839  62.684  1.00  0.00     0.030 A 
HETATM   21  C   UNL     1       7.945  32.657  63.724  1.00  0.00     0.019 A 
HETATM   22  C   UNL     1       6.683  33.252  63.647  1.00  0.00     0.032 A 
HETATM   23  C   UNL     1       5.871  32.978  62.540  1.00  0.00     0.019 A 
HETATM   24  C   UNL     1       6.332  32.152  61.509  1.00  0.00     0.030 A 
BRANCH  22  25
HETATM   25  C   UNL     1       6.155  34.164  64.705  1.00  0.00     0.251 C 
HETATM   26  N   UNL     1       6.193  33.689  66.001  1.00  0.00    -0.353 N 
HETATM   27  H   UNL     1       6.720  32.847  66.184  1.00  0.00     0.163 HD
HETATM   28  O   UNL     1       5.758  35.282  64.396  1.00  0.00    -0.268 OA
BRANCH  26  29
HETATM   29  C   UNL     1       5.828  34.481  67.171  1.00  0.00     0.076 C 
HETATM   30  C   UNL     1       4.476  34.062  67.740  1.00  0.00     0.032 C 
HETATM   31  C   UNL     1       6.913  34.494  68.245  1.00  0.00     0.032 C 
ENDBRANCH  26  29
ENDBRANCH  22  25
ENDBRANCH   2  19
TORSDOF 7
ENDMDL
MODEL 2
REMARK VINA RESULT:      -9.2      2.064      3.150
REMARK  7 active torsions:
REMARK  status: ('A' for Active; 'I' for Inactive)
REMARK    1  A    between atoms: C_2  and  S_3 
REMARK    2  A    between atoms: C_2  and  C_20 
REMARK    3  A    between atoms: S_3  and  C_4 
REMARK    4  A    between atoms: C_4  and  C_5 
REMARK       I    between atoms: C_5  and  N_6 
REMARK    5  A    between atoms: N_6  and  C_7 
REMARK    6  A    between atoms: C_10  and  C_11 
REMARK       I    between atoms: C_11  and  N_12 
REMARK    7  A    between atoms: N_12  and  C_13 
ROOT
HETATM    1  C   UNL     1       7.687  29.169  57.888  1.00  0.00     0.231 C 
HETATM    2  N   UNL     1       8.558  29.819  58.749  1.00  0.00    -0.327 N 
HETATM    3  O   UNL     1       6.463  29.275  57.881  1.00  0.00    -0.272 OA
HETATM    4  H   UNL     1       9.546  29.623  58.634  1.00  0.00     0.169 HD
ENDROOT
BRANCH   1   5
HETATM    5  C   UNL     1       8.392  28.246  56.901  1.00  0.00     0.177 C 
BRANCH   5   6
HETATM    6  S   UNL     1       7.970  26.513  57.278  1.00  0.00    -0.147 SA
BRANCH   6   7
HETATM    7  C   UNL     1       7.068  26.119  55.733  1.00  0.00     0.113 C 
HETATM    8  C   UNL     1       7.446  27.126  54.649  1.00  0.00     0.029 C 
BRANCH   7   9
HETATM    9  C   UNL     1       7.343  24.709  55.311  1.00  0.00     0.118 A 
HETATM   10  N   UNL     1       7.453  23.663  56.107  1.00  0.00    -0.232 NA
HETATM   11  C   UNL     1       7.672  22.588  55.281  1.00  0.00     0.085 A 
HETATM   12  C   UNL     1       7.728  22.987  53.951  1.00  0.00     0.062 A 
HETATM   13  C   UNL     1       7.834  21.230  55.595  1.00  0.00     0.034 A 
HETATM   14  N   UNL     1       7.530  24.342  53.998  1.00  0.00    -0.342 N 
HETATM   15  C   UNL     1       7.940  22.103  52.892  1.00  0.00     0.032 A 
HETATM   16  H   UNL     1       7.519  24.969  53.206  1.00  0.00     0.167 HD
HETATM   17  C   UNL     1       8.096  20.752  53.224  1.00  0.00     0.002 A 
HETATM   18  C   UNL     1       8.044  20.319  54.552  1.00  0.00     0.002 A 
ENDBRANCH   7   9
ENDBRANCH   6   7
ENDBRANCH   5   6
ENDBRANCH   1   5
BRANCH   2  19
HETATM   19  C   UNL     1       8.224  30.701  59.799  1.00  0.00     0.034 A 
HETATM   20  C   UNL     1       7.241  31.688  59.707  1.00  0.00     0.030 A 
HETATM   21  C   UNL     1       6.941  32.507  60.804  1.00  0.00     0.019 A 
HETATM   22  C   UNL     1       7.615  32.338  62.017  1.00  0.00     0.032 A 
HETATM   23  C   UNL     1       8.625  31.372  62.103  1.00  0.00     0.019 A 
HETATM   24  C   UNL     1       8.927  30.563  61.001  1.00  0.00     0.030 A 
BRANCH  22  25
HETATM   25  C   UNL     1       7.311  33.155  63.230  1.00  0.00     0.251 C 
HETATM   26  N   UNL     1       6.122  33.858  63.214  1.00  0.00    -0.353 N 
HETATM   27  H   UNL     1       5.457  33.653  62.482  1.00  0.00     0.163 HD
HETATM   28  O   UNL     1       8.084  33.137  64.180  1.00  0.00    -0.268 OA
BRANCH  26  29
HETATM   29  C   UNL     1       5.607  34.614  64.351  1.00  0.00     0.076 C 
HETATM   30  C   UNL     1       4.884  35.883  63.907  1.00  0.00     0.032 C 
HETATM   31  C   UNL     1       4.745  33.771  65.288  1.00  0.00     0.032 C 
ENDBRANCH  26  29
ENDBRANCH  22  25
ENDBRANCH   2  19
TORSDOF 7
ENDMDL
MODEL 3
REMARK VINA RESULT:      -9.1      1.684      2.394
REMARK  7 active torsions:
REMARK  status: ('A' for Active; 'I' for Inactive)
REMARK    1  A    between atoms: C_2  and  S_3 
REMARK    2  A    between atoms: C_2  and  C_20 
REMARK    3  A    between atoms: S_3  and  C_4 
REMARK    4  A    between atoms: C_4  and  C_5 
REMARK       I    between atoms: C_5  and  N_6 
REMARK    5  A    between atoms: N_6  and  C_7 
REMARK    6  A    between atoms: C_10  and  C_11 
REMARK       I    between atoms: C_11  and  N_12 
REMARK    7  A    between atoms: N_12  and  C_13 
ROOT
HETATM    1  C   UNL     1       9.866  30.893  58.414  1.00  0.00     0.231 C 
HETATM    2  N   UNL     1       9.065  30.492  59.472  1.00  0.00    -0.327 N 
HETATM    3  O   UNL     1      10.226  32.043  58.174  1.00  0.00    -0.272 OA
HETATM    4  H   UNL     1       8.850  29.504  59.533  1.00  0.00     0.169 HD
ENDROOT
BRANCH   1   5
HETATM    5  C   UNL     1      10.282  29.744  57.504  1.00  0.00     0.177 C 
BRANCH   5   6
HETATM    6  S   UNL     1       8.930  29.364  56.343  1.00  0.00    -0.147 SA
BRANCH   6   7
HETATM    7  C   UNL     1       7.925  28.302  57.447  1.00  0.00     0.113 C 
HETATM    8  C   UNL     1       6.514  28.874  57.563  1.00  0.00     0.029 C 
BRANCH   7   9
HETATM    9  C   UNL     1       7.919  26.889  56.952  1.00  0.00     0.118 A 
HETATM   10  N   UNL     1       8.377  25.833  57.597  1.00  0.00    -0.232 NA
HETATM   11  C   UNL     1       8.134  24.760  56.775  1.00  0.00     0.085 A 
HETATM   12  C   UNL     1       7.540  25.168  55.587  1.00  0.00     0.062 A 
HETATM   13  C   UNL     1       8.392  23.396  56.977  1.00  0.00     0.034 A 
HETATM   14  N   UNL     1       7.428  26.528  55.718  1.00  0.00    -0.342 N 
HETATM   15  C   UNL     1       7.181  24.288  54.565  1.00  0.00     0.032 A 
HETATM   16  H   UNL     1       7.045  27.162  55.030  1.00  0.00     0.167 HD
HETATM   17  C   UNL     1       7.444  22.931  54.785  1.00  0.00     0.002 A 
HETATM   18  C   UNL     1       8.038  22.489  55.970  1.00  0.00     0.002 A 
ENDBRANCH   7   9
ENDBRANCH   6   7
ENDBRANCH   5   6
ENDBRANCH   1   5
BRANCH   2  19
HETATM   19  C   UNL     1       8.481  31.311  60.462  1.00  0.00     0.034 A 
HETATM   20  C   UNL     1       7.327  32.072  60.265  1.00  0.00     0.030 A 
HETATM   21  C   UNL     1       6.786  32.839  61.307  1.00  0.00     0.019 A 
HETATM   22  C   UNL     1       7.388  32.841  62.568  1.00  0.00     0.032 A 
HETATM   23  C   UNL     1       8.565  32.106  62.760  1.00  0.00     0.019 A 
HETATM   24  C   UNL     1       9.107  31.350  61.714  1.00  0.00     0.030 A 
BRANCH  22  25
HETATM   25  C   UNL     1       6.835  33.607  63.725  1.00  0.00     0.251 C 
HETATM   26  N   UNL     1       5.643  34.270  63.508  1.00  0.00    -0.353 N 
HETATM   27  H   UNL     1       5.133  34.068  62.660  1.00  0.00     0.163 HD
HETATM   28  O   UNL     1       7.421  33.583  64.801  1.00  0.00    -0.268 OA
BRANCH  26  29
HETATM   29  C   UNL     1       4.899  34.971  64.550  1.00  0.00     0.076 C 
HETATM   30  C   UNL     1       4.996  36.486  64.393  1.00  0.00     0.032 C 
HETATM   31  C   UNL     1       3.450  34.506  64.665  1.00  0.00     0.032 C 
ENDBRANCH  26  29
ENDBRANCH  22  25
ENDBRANCH   2  19
TORSDOF 7
ENDMDL
MODEL 4
REMARK VINA RESULT:      -9.1      2.800     11.528
REMARK  7 active torsions:
REMARK  status: ('A' for Active; 'I' for Inactive)
REMARK    1  A    between atoms: C_2  and  S_3 
REMARK    2  A    between atoms: C_2  and  C_20 
REMARK    3  A    between atoms: S_3  and  C_4 
REMARK    4  A    between atoms: C_4  and  C_5 
REMARK       I    between atoms: C_5  and  N_6 
REMARK    5  A    between atoms: N_6  and  C_7 
REMARK    6  A    between atoms: C_10  and  C_11 
REMARK       I    between atoms: C_11  and  N_12 
REMARK    7  A    between atoms: N_12  and  C_13 
ROOT
HETATM    1  C   UNL     1       7.605  29.722  57.818  1.00  0.00     0.231 C 
HETATM    2  N   UNL     1       8.452  28.761  57.289  1.00  0.00    -0.327 N 
HETATM    3  O   UNL     1       6.377  29.709  57.773  1.00  0.00    -0.272 OA
HETATM    4  H   UNL     1       9.447  28.916  57.403  1.00  0.00     0.169 HD
ENDROOT
BRANCH   1   5
HETATM    5  C   UNL     1       8.344  30.875  58.487  1.00  0.00     0.177 C 
BRANCH   5   6
HETATM    6  S   UNL     1       7.230  31.717  59.658  1.00  0.00    -0.147 SA
BRANCH   6   7
HETATM    7  C   UNL     1       8.182  31.413  61.193  1.00  0.00     0.113 C 
HETATM    8  C   UNL     1       9.615  31.910  61.014  1.00  0.00     0.029 C 
BRANCH   7   9
HETATM    9  C   UNL     1       7.508  32.056  62.365  1.00  0.00     0.118 A 
HETATM   10  N   UNL     1       8.101  32.547  63.436  1.00  0.00    -0.232 NA
HETATM   11  C   UNL     1       7.095  33.058  64.219  1.00  0.00     0.085 A 
HETATM   12  C   UNL     1       5.853  32.849  63.630  1.00  0.00     0.062 A 
HETATM   13  C   UNL     1       7.164  33.720  65.453  1.00  0.00     0.034 A 
HETATM   14  N   UNL     1       6.142  32.197  62.459  1.00  0.00    -0.342 N 
HETATM   15  C   UNL     1       4.651  33.264  64.204  1.00  0.00     0.032 A 
HETATM   16  H   UNL     1       5.470  31.877  61.776  1.00  0.00     0.167 HD
HETATM   17  C   UNL     1       4.739  33.926  65.435  1.00  0.00     0.002 A 
HETATM   18  C   UNL     1       5.973  34.152  66.051  1.00  0.00     0.002 A 
ENDBRANCH   7   9
ENDBRANCH   6   7
ENDBRANCH   5   6
ENDBRANCH   1   5
BRANCH   2  19
HETATM   19  C   UNL     1       8.088  27.600  56.574  1.00  0.00     0.034 A 
HETATM   20  C   UNL     1       7.577  27.610  55.275  1.00  0.00     0.030 A 
HETATM   21  C   UNL     1       7.267  26.413  54.615  1.00  0.00     0.019 A 
HETATM   22  C   UNL     1       7.480  25.184  55.246  1.00  0.00     0.032 A 
HETATM   23  C   UNL     1       7.961  25.170  56.561  1.00  0.00     0.019 A 
HETATM   24  C   UNL     1       8.259  26.369  57.219  1.00  0.00     0.030 A 
BRANCH  22  25
HETATM   25  C   UNL     1       7.206  23.877  54.578  1.00  0.00     0.251 C 
HETATM   26  N   UNL     1       7.931  22.792  55.031  1.00  0.00    -0.353 N 
HETATM   27  H   UNL     1       8.465  22.897  55.881  1.00  0.00     0.163 HD
HETATM   28  O   UNL     1       6.344  23.811  53.709  1.00  0.00    -0.268 OA
BRANCH  26  29
HETATM   29  C   UNL     1       7.715  21.421  54.578  1.00  0.00     0.076 C 
HETATM   30  C   UNL     1       8.483  21.122  53.293  1.00  0.00     0.032 C 
HETATM   31  C   UNL     1       7.999  20.383  55.660  1.00  0.00     0.032 C 
ENDBRANCH  26  29
ENDBRANCH  22  25
ENDBRANCH   2  19
TORSDOF 7
ENDMDL
MODEL 5
REMARK VINA RESULT:      -9.0      2.936      4.986
REMARK  7 active torsions:
REMARK  status: ('A' for Active; 'I' for Inactive)
REMARK    1  A    between atoms: C_2  and  S_3 
REMARK    2  A    between atoms: C_2  and  C_20 
REMARK    3  A    between atoms: S_3  and  C_4 
REMARK    4  A    between atoms: C_4  and  C_5 
REMARK       I    between atoms: C_5  and  N_6 
REMARK    5  A    between atoms: N_6  and  C_7 
REMARK    6  A    between atoms: C_10  and  C_11 
REMARK       I    between atoms: C_11  and  N_12 
REMARK    7  A    between atoms: N_12  and  C_13 
ROOT
HETATM    1  C   UNL     1       7.265  28.110  54.444  1.00  0.00     0.231 C 
HETATM    2  N   UNL     1       6.526  28.406  55.579  1.00  0.00    -0.327 N 
HETATM    3  O   UNL     1       8.401  28.506  54.196  1.00  0.00    -0.272 OA
HETATM    4  H   UNL     1       5.597  28.006  55.637  1.00  0.00     0.169 HD
ENDROOT
BRANCH   1   5
HETATM    5  C   UNL     1       6.522  27.216  53.458  1.00  0.00     0.177 C 
BRANCH   5   6
HETATM    6  S   UNL     1       5.311  26.192  54.356  1.00  0.00    -0.147 SA
BRANCH   6   7
HETATM    7  C   UNL     1       6.449  25.456  55.589  1.00  0.00     0.113 C 
HETATM    8  C   UNL     1       5.736  25.333  56.934  1.00  0.00     0.029 C 
BRANCH   7   9
HETATM    9  C   UNL     1       6.965  24.138  55.104  1.00  0.00     0.118 A 
HETATM   10  N   UNL     1       7.069  23.754  53.846  1.00  0.00    -0.232 NA
HETATM   11  C   UNL     1       7.618  22.495  53.884  1.00  0.00     0.085 A 
HETATM   12  C   UNL     1       7.828  22.085  55.195  1.00  0.00     0.062 A 
HETATM   13  C   UNL     1       7.969  21.635  52.833  1.00  0.00     0.034 A 
HETATM   14  N   UNL     1       7.391  23.141  55.952  1.00  0.00    -0.342 N 
HETATM   15  C   UNL     1       8.375  20.846  55.534  1.00  0.00     0.032 A 
HETATM   16  H   UNL     1       7.385  23.186  56.961  1.00  0.00     0.167 HD
HETATM   17  C   UNL     1       8.722  20.002  54.473  1.00  0.00     0.002 A 
HETATM   18  C   UNL     1       8.524  20.387  53.144  1.00  0.00     0.002 A 
ENDBRANCH   7   9
ENDBRANCH   6   7
ENDBRANCH   5   6
ENDBRANCH   1   5
BRANCH   2  19
HETATM   19  C   UNL     1       6.907  29.236  56.655  1.00  0.00     0.034 A 
HETATM   20  C   UNL     1       7.913  28.918  57.569  1.00  0.00     0.030 A 
HETATM   21  C   UNL     1       8.259  29.808  58.595  1.00  0.00     0.019 A 
HETATM   22  C   UNL     1       7.609  31.040  58.710  1.00  0.00     0.032 A 
HETATM   23  C   UNL     1       6.577  31.348  57.816  1.00  0.00     0.019 A 
HETATM   24  C   UNL     1       6.228  30.452  56.799  1.00  0.00     0.030 A 
BRANCH  22  25
HETATM   25  C   UNL     1       7.962  32.043  59.758  1.00  0.00     0.251 C 
HETATM   26  N   UNL     1       7.059  32.196  60.792  1.00  0.00    -0.353 N 
HETATM   27  H   UNL     1       6.314  31.518  60.878  1.00  0.00     0.163 HD
HETATM   28  O   UNL     1       9.027  32.645  59.685  1.00  0.00    -0.268 OA
BRANCH  26  29
HETATM   29  C   UNL     1       7.290  33.042  61.958  1.00  0.00     0.076 C 
HETATM   30  C   UNL     1       5.999  33.688  62.454  1.00  0.00     0.032 C 
HETATM   31  C   UNL     1       8.028  32.321  63.083  1.00  0.00     0.032 C 
ENDBRANCH  26  29
ENDBRANCH  22  25
ENDBRANCH   2  19
TORSDOF 7
ENDMDL
MODEL 6
REMARK VINA RESULT:      -8.9      3.803     10.931
REMARK  7 active torsions:
REMARK  status: ('A' for Active; 'I' for Inactive)
REMARK    1  A    between atoms: C_2  and  S_3 
REMARK    2  A    between atoms: C_2  and  C_20 
REMARK    3  A    between atoms: S_3  and  C_4 
REMARK    4  A    between atoms: C_4  and  C_5 
REMARK       I    between atoms: C_5  and  N_6 
REMARK    5  A    between atoms: N_6  and  C_7 
REMARK    6  A    between atoms: C_10  and  C_11 
REMARK       I    between atoms: C_11  and  N_12 
REMARK    7  A    between atoms: N_12  and  C_13 
ROOT
HETATM    1  C   UNL     1       4.973  29.244  55.963  1.00  0.00     0.231 C 
HETATM    2  N   UNL     1       4.538  27.933  55.841  1.00  0.00    -0.327 N 
HETATM    3  O   UNL     1       6.140  29.626  55.919  1.00  0.00    -0.272 OA
HETATM    4  H   UNL     1       3.539  27.776  55.904  1.00  0.00     0.169 HD
ENDROOT
BRANCH   1   5
HETATM    5  C   UNL     1       3.839  30.237  56.183  1.00  0.00     0.177 C 
BRANCH   5   6
HETATM    6  S   UNL     1       3.733  30.661  57.952  1.00  0.00    -0.147 SA
BRANCH   6   7
HETATM    7  C   UNL     1       4.743  32.189  57.919  1.00  0.00     0.113 C 
HETATM    8  C   UNL     1       3.849  33.400  58.175  1.00  0.00     0.029 C 
BRANCH   7   9
HETATM    9  C   UNL     1       5.863  32.098  58.908  1.00  0.00     0.118 A 
HETATM   10  N   UNL     1       7.153  32.074  58.629  1.00  0.00    -0.232 NA
HETATM   11  C   UNL     1       7.796  32.018  59.841  1.00  0.00     0.085 A 
HETATM   12  C   UNL     1       6.881  31.977  60.887  1.00  0.00     0.062 A 
HETATM   13  C   UNL     1       9.168  32.001  60.131  1.00  0.00     0.034 A 
HETATM   14  N   UNL     1       5.660  32.014  60.266  1.00  0.00    -0.342 N 
HETATM   15  C   UNL     1       7.253  31.916  62.231  1.00  0.00     0.032 A 
HETATM   16  H   UNL     1       4.760  31.989  60.725  1.00  0.00     0.167 HD
HETATM   17  C   UNL     1       8.627  31.902  62.501  1.00  0.00     0.002 A 
HETATM   18  C   UNL     1       9.570  31.945  61.472  1.00  0.00     0.002 A 
ENDBRANCH   7   9
ENDBRANCH   6   7
ENDBRANCH   5   6
ENDBRANCH   1   5
BRANCH   2  19
HETATM   19  C   UNL     1       5.333  26.780  55.674  1.00  0.00     0.034 A 
HETATM   20  C   UNL     1       5.466  26.090  54.467  1.00  0.00     0.030 A 
HETATM   21  C   UNL     1       6.301  24.968  54.369  1.00  0.00     0.019 A 
HETATM   22  C   UNL     1       7.029  24.531  55.479  1.00  0.00     0.032 A 
HETATM   23  C   UNL     1       6.873  25.200  56.699  1.00  0.00     0.019 A 
HETATM   24  C   UNL     1       6.030  26.313  56.795  1.00  0.00     0.030 A 
BRANCH  22  25
HETATM   25  C   UNL     1       7.963  23.367  55.423  1.00  0.00     0.251 C 
HETATM   26  N   UNL     1       7.578  22.308  54.625  1.00  0.00    -0.353 N 
HETATM   27  H   UNL     1       6.794  22.442  54.001  1.00  0.00     0.163 HD
HETATM   28  O   UNL     1       9.023  23.413  56.036  1.00  0.00    -0.268 OA
BRANCH  26  29
HETATM   29  C   UNL     1       8.413  21.141  54.359  1.00  0.00     0.076 C 
HETATM   30  C   UNL     1       8.290  20.093  55.462  1.00  0.00     0.032 C 
HETATM   31  C   UNL     1       8.176  20.538  52.977  1.00  0.00     0.032 C 
ENDBRANCH  26  29
ENDBRANCH  22  25
ENDBRANCH   2  19
TORSDOF 7
ENDMDL
MODEL 7
REMARK VINA RESULT:      -8.9      1.404      2.260
REMARK  7 active torsions:
REMARK  status: ('A' for Active; 'I' for Inactive)
REMARK    1  A    between atoms: C_2  and  S_3 
REMARK    2  A    between atoms: C_2  and  C_20 
REMARK    3  A    between atoms: S_3  and  C_4 
REMARK    4  A    between atoms: C_4  and  C_5 
REMARK       I    between atoms: C_5  and  N_6 
REMARK    5  A    between atoms: N_6  and  C_7 
REMARK    6  A    between atoms: C_10  and  C_11 
REMARK       I    between atoms: C_11  and  N_12 
REMARK    7  A    between atoms: N_12  and  C_13 
ROOT
HETATM    1  C   UNL     1       8.152  31.355  59.708  1.00  0.00     0.231 C 
HETATM    2  N   UNL     1       8.073  31.009  61.048  1.00  0.00    -0.327 N 
HETATM    3  O   UNL     1       7.708  32.381  59.197  1.00  0.00    -0.272 OA
HETATM    4  H   UNL     1       8.484  30.122  61.316  1.00  0.00     0.169 HD
ENDROOT
BRANCH   1   5
HETATM    5  C   UNL     1       8.856  30.306  58.856  1.00  0.00     0.177 C 
BRANCH   5   6
HETATM    6  S   UNL     1       7.614  29.274  58.009  1.00  0.00    -0.147 SA
BRANCH   6   7
HETATM    7  C   UNL     1       8.270  29.416  56.304  1.00  0.00     0.113 C 
HETATM    8  C   UNL     1       9.794  29.506  56.348  1.00  0.00     0.029 C 
BRANCH   7   9
HETATM    9  C   UNL     1       7.799  28.271  55.464  1.00  0.00     0.118 A 
HETATM   10  N   UNL     1       7.707  27.010  55.843  1.00  0.00    -0.232 NA
HETATM   11  C   UNL     1       7.202  26.332  54.760  1.00  0.00     0.085 A 
HETATM   12  C   UNL     1       7.007  27.189  53.684  1.00  0.00     0.062 A 
HETATM   13  C   UNL     1       6.879  24.974  54.620  1.00  0.00     0.034 A 
HETATM   14  N   UNL     1       7.408  28.413  54.152  1.00  0.00    -0.342 N 
HETATM   15  C   UNL     1       6.504  26.772  52.451  1.00  0.00     0.032 A 
HETATM   16  H   UNL     1       7.414  29.277  53.628  1.00  0.00     0.167 HD
HETATM   17  C   UNL     1       6.185  25.414  52.330  1.00  0.00     0.002 A 
HETATM   18  C   UNL     1       6.368  24.528  53.395  1.00  0.00     0.002 A 
ENDBRANCH   7   9
ENDBRANCH   6   7
ENDBRANCH   5   6
ENDBRANCH   1   5
BRANCH   2  19
HETATM   19  C   UNL     1       7.451  31.737  62.084  1.00  0.00     0.034 A 
HETATM   20  C   UNL     1       6.070  31.913  62.195  1.00  0.00     0.030 A 
HETATM   21  C   UNL     1       5.521  32.624  63.271  1.00  0.00     0.019 A 
HETATM   22  C   UNL     1       6.350  33.156  64.263  1.00  0.00     0.032 A 
HETATM   23  C   UNL     1       7.736  33.010  64.138  1.00  0.00     0.019 A 
HETATM   24  C   UNL     1       8.281  32.308  63.056  1.00  0.00     0.030 A 
BRANCH  22  25
HETATM   25  C   UNL     1       5.819  33.887  65.452  1.00  0.00     0.251 C 
HETATM   26  N   UNL     1       6.585  33.833  66.599  1.00  0.00    -0.353 N 
HETATM   27  H   UNL     1       7.522  33.461  66.529  1.00  0.00     0.163 HD
HETATM   28  O   UNL     1       4.775  34.522  65.354  1.00  0.00    -0.268 OA
BRANCH  26  29
HETATM   29  C   UNL     1       6.284  34.578  67.817  1.00  0.00     0.076 C 
HETATM   30  C   UNL     1       5.104  33.973  68.574  1.00  0.00     0.032 C 
HETATM   31  C   UNL     1       7.500  34.762  68.721  1.00  0.00     0.032 C 
ENDBRANCH  26  29
ENDBRANCH  22  25
ENDBRANCH   2  19
TORSDOF 7
ENDMDL
MODEL 8
REMARK VINA RESULT:      -8.8      2.309      3.512
REMARK  7 active torsions:
REMARK  status: ('A' for Active; 'I' for Inactive)
REMARK    1  A    between atoms: C_2  and  S_3 
REMARK    2  A    between atoms: C_2  and  C_20 
REMARK    3  A    between atoms: S_3  and  C_4 
REMARK    4  A    between atoms: C_4  and  C_5 
REMARK       I    between atoms: C_5  and  N_6 
REMARK    5  A    between atoms: N_6  and  C_7 
REMARK    6  A    between atoms: C_10  and  C_11 
REMARK       I    between atoms: C_11  and  N_12 
REMARK    7  A    between atoms: N_12  and  C_13 
ROOT
HETATM    1  C   UNL     1       7.041  29.096  56.944  1.00  0.00     0.231 C 
HETATM    2  N   UNL     1       7.960  29.975  57.498  1.00  0.00    -0.327 N 
HETATM    3  O   UNL     1       5.931  28.829  57.397  1.00  0.00    -0.272 OA
HETATM    4  H   UNL     1       8.840  30.086  57.007  1.00  0.00     0.169 HD
ENDROOT
BRANCH   1   5
HETATM    5  C   UNL     1       7.538  28.433  55.665  1.00  0.00     0.177 C 
BRANCH   5   6
HETATM    6  S   UNL     1       6.664  26.852  55.419  1.00  0.00    -0.147 SA
BRANCH   6   7
HETATM    7  C   UNL     1       7.829  25.763  56.318  1.00  0.00     0.113 C 
HETATM    8  C   UNL     1       7.382  25.623  57.771  1.00  0.00     0.029 C 
BRANCH   7   9
HETATM    9  C   UNL     1       7.940  24.436  55.634  1.00  0.00     0.118 A 
HETATM   10  N   UNL     1       7.522  24.147  54.416  1.00  0.00    -0.232 NA
HETATM   11  C   UNL     1       7.861  22.833  54.207  1.00  0.00     0.085 A 
HETATM   12  C   UNL     1       8.475  22.294  55.331  1.00  0.00     0.062 A 
HETATM   13  C   UNL     1       7.678  22.026  53.075  1.00  0.00     0.034 A 
HETATM   14  N   UNL     1       8.500  23.329  56.229  1.00  0.00    -0.342 N 
HETATM   15  C   UNL     1       8.926  20.975  55.403  1.00  0.00     0.032 A 
HETATM   16  H   UNL     1       8.870  23.291  57.169  1.00  0.00     0.167 HD
HETATM   17  C   UNL     1       8.738  20.185  54.262  1.00  0.00     0.002 A 
HETATM   18  C   UNL     1       8.125  20.699  53.116  1.00  0.00     0.002 A 
ENDBRANCH   7   9
ENDBRANCH   6   7
ENDBRANCH   5   6
ENDBRANCH   1   5
BRANCH   2  19
HETATM   19  C   UNL     1       7.826  30.711  58.695  1.00  0.00     0.034 A 
HETATM   20  C   UNL     1       6.834  31.669  58.915  1.00  0.00     0.030 A 
HETATM   21  C   UNL     1       6.744  32.339  60.143  1.00  0.00     0.019 A 
HETATM   22  C   UNL     1       7.639  32.045  61.176  1.00  0.00     0.032 A 
HETATM   23  C   UNL     1       8.655  31.109  60.947  1.00  0.00     0.019 A 
HETATM   24  C   UNL     1       8.748  30.450  59.715  1.00  0.00     0.030 A 
BRANCH  22  25
HETATM   25  C   UNL     1       7.566  32.697  62.517  1.00  0.00     0.251 C 
HETATM   26  N   UNL     1       6.560  33.628  62.693  1.00  0.00    -0.353 N 
HETATM   27  H   UNL     1       5.840  33.690  61.987  1.00  0.00     0.163 HD
HETATM   28  O   UNL     1       8.351  32.362  63.396  1.00  0.00    -0.268 OA
BRANCH  26  29
HETATM   29  C   UNL     1       6.266  34.279  63.965  1.00  0.00     0.076 C 
HETATM   30  C   UNL     1       5.732  35.695  63.768  1.00  0.00     0.032 C 
HETATM   31  C   UNL     1       5.349  33.450  64.862  1.00  0.00     0.032 C 
ENDBRANCH  26  29
ENDBRANCH  22  25
ENDBRANCH   2  19
TORSDOF 7
ENDMDL
MODEL 9
REMARK VINA RESULT:      -8.7      7.240     11.513
REMARK  7 active torsions:
REMARK  status: ('A' for Active; 'I' for Inactive)
REMARK    1  A    between atoms: C_2  and  S_3 
REMARK    2  A    between atoms: C_2  and  C_20 
REMARK    3  A    between atoms: S_3  and  C_4 
REMARK    4  A    between atoms: C_4  and  C_5 
REMARK       I    between atoms: C_5  and  N_6 
REMARK    5  A    between atoms: N_6  and  C_7 
REMARK    6  A    between atoms: C_10  and  C_11 
REMARK       I    between atoms: C_11  and  N_12 
REMARK    7  A    between atoms: N_12  and  C_13 
ROOT
HETATM    1  C   UNL     1       6.897  27.897  55.095  1.00  0.00     0.231 C 
HETATM    2  N   UNL     1       5.665  27.525  54.578  1.00  0.00    -0.327 N 
HETATM    3  O   UNL     1       7.860  28.305  54.450  1.00  0.00    -0.272 OA
HETATM    4  H   UNL     1       4.969  27.203  55.240  1.00  0.00     0.169 HD
ENDROOT
BRANCH   1   5
HETATM    5  C   UNL     1       6.986  27.742  56.608  1.00  0.00     0.177 C 
BRANCH   5   6
HETATM    6  S   UNL     1       8.272  26.519  57.022  1.00  0.00    -0.147 SA
BRANCH   6   7
HETATM    7  C   UNL     1       7.180  25.082  57.333  1.00  0.00     0.113 C 
HETATM    8  C   UNL     1       5.720  25.524  57.266  1.00  0.00     0.029 C 
BRANCH   7   9
HETATM    9  C   UNL     1       7.477  23.978  56.367  1.00  0.00     0.118 A 
HETATM   10  N   UNL     1       7.900  22.766  56.671  1.00  0.00    -0.232 NA
HETATM   11  C   UNL     1       8.004  22.097  55.475  1.00  0.00     0.085 A 
HETATM   12  C   UNL     1       7.666  22.925  54.412  1.00  0.00     0.062 A 
HETATM   13  C   UNL     1       8.382  20.771  55.217  1.00  0.00     0.034 A 
HETATM   14  N   UNL     1       7.349  24.119  55.004  1.00  0.00    -0.342 N 
HETATM   15  C   UNL     1       7.681  22.509  53.079  1.00  0.00     0.032 A 
HETATM   16  H   UNL     1       7.064  24.963  54.525  1.00  0.00     0.167 HD
HETATM   17  C   UNL     1       8.058  21.182  52.841  1.00  0.00     0.002 A 
HETATM   18  C   UNL     1       8.402  20.325  53.890  1.00  0.00     0.002 A 
ENDBRANCH   7   9
ENDBRANCH   6   7
ENDBRANCH   5   6
ENDBRANCH   1   5
BRANCH   2  19
HETATM   19  C   UNL     1       5.276  27.510  53.221  1.00  0.00     0.034 A 
HETATM   20  C   UNL     1       4.753  28.614  52.545  1.00  0.00     0.030 A 
HETATM   21  C   UNL     1       4.419  28.533  51.187  1.00  0.00     0.019 A 
HETATM   22  C   UNL     1       4.619  27.343  50.480  1.00  0.00     0.032 A 
HETATM   23  C   UNL     1       5.112  26.224  51.162  1.00  0.00     0.019 A 
HETATM   24  C   UNL     1       5.435  26.308  52.522  1.00  0.00     0.030 A 
BRANCH  22  25
HETATM   25  C   UNL     1       4.319  27.210  49.023  1.00  0.00     0.251 C 
HETATM   26  N   UNL     1       3.076  26.705  48.697  1.00  0.00    -0.353 N 
HETATM   27  H   UNL     1       2.388  26.619  49.432  1.00  0.00     0.163 HD
HETATM   28  O   UNL     1       5.146  27.581  48.199  1.00  0.00    -0.268 OA
BRANCH  26  29
HETATM   29  C   UNL     1       2.566  26.613  47.332  1.00  0.00     0.076 C 
HETATM   30  C   UNL     1       2.676  25.193  46.782  1.00  0.00     0.032 C 
HETATM   31  C   UNL     1       1.153  27.168  47.183  1.00  0.00     0.032 C 
ENDBRANCH  26  29
ENDBRANCH  22  25
ENDBRANCH   2  19
TORSDOF 7
ENDMDL
MODEL 10
REMARK VINA RESULT:      -8.6      3.016     11.659
REMARK  7 active torsions:
REMARK  status: ('A' for Active; 'I' for Inactive)
REMARK    1  A    between atoms: C_2  and  S_3 
REMARK    2  A    between atoms: C_2  and  C_20 
REMARK    3  A    between atoms: S_3  and  C_4 
REMARK    4  A    between atoms: C_4  and  C_5 
REMARK       I    between atoms: C_5  and  N_6 
REMARK    5  A    between atoms: N_6  and  C_7 
REMARK    6  A    between atoms: C_10  and  C_11 
REMARK       I    between atoms: C_11  and  N_12 
REMARK    7  A    between atoms: N_12  and  C_13 
ROOT
HETATM    1  C   UNL     1       7.066  29.153  57.663  1.00  0.00     0.231 C 
HETATM    2  N   UNL     1       6.408  28.534  56.612  1.00  0.00    -0.327 N 
HETATM    3  O   UNL     1       7.961  28.662  58.347  1.00  0.00    -0.272 OA
HETATM    4  H   UNL     1       5.685  29.070  56.146  1.00  0.00     0.169 HD
ENDROOT
BRANCH   1   5
HETATM    5  C   UNL     1       6.564  30.565  57.940  1.00  0.00     0.177 C 
BRANCH   5   6
HETATM    6  S   UNL     1       7.442  31.254  59.382  1.00  0.00    -0.147 SA
BRANCH   6   7
HETATM    7  C   UNL     1       6.237  32.561  59.825  1.00  0.00     0.113 C 
HETATM    8  C   UNL     1       4.842  32.150  59.360  1.00  0.00     0.029 C 
BRANCH   7   9
HETATM    9  C   UNL     1       6.282  32.838  61.295  1.00  0.00     0.118 A 
HETATM   10  N   UNL     1       7.365  32.914  62.044  1.00  0.00    -0.232 NA
HETATM   11  C   UNL     1       6.924  33.214  63.309  1.00  0.00     0.085 A 
HETATM   12  C   UNL     1       5.537  33.295  63.345  1.00  0.00     0.062 A 
HETATM   13  C   UNL     1       7.653  33.436  64.487  1.00  0.00     0.034 A 
HETATM   14  N   UNL     1       5.152  33.038  62.055  1.00  0.00    -0.342 N 
HETATM   15  C   UNL     1       4.814  33.587  64.503  1.00  0.00     0.032 A 
HETATM   16  H   UNL     1       4.201  33.003  61.715  1.00  0.00     0.167 HD
HETATM   17  C   UNL     1       5.559  33.808  65.668  1.00  0.00     0.002 A 
HETATM   18  C   UNL     1       6.954  33.735  65.663  1.00  0.00     0.002 A 
ENDBRANCH   7   9
ENDBRANCH   6   7
ENDBRANCH   5   6
ENDBRANCH   1   5
BRANCH   2  19
HETATM   19  C   UNL     1       6.605  27.220  56.135  1.00  0.00     0.034 A 
HETATM   20  C   UNL     1       6.217  26.071  56.827  1.00  0.00     0.030 A 
HETATM   21  C   UNL     1       6.417  24.799  56.275  1.00  0.00     0.019 A 
HETATM   22  C   UNL     1       6.996  24.660  55.010  1.00  0.00     0.032 A 
HETATM   23  C   UNL     1       7.415  25.808  54.327  1.00  0.00     0.019 A 
HETATM   24  C   UNL     1       7.223  27.077  54.887  1.00  0.00     0.030 A 
BRANCH  22  25
HETATM   25  C   UNL     1       7.196  23.333  54.356  1.00  0.00     0.251 C 
HETATM   26  N   UNL     1       7.717  22.330  55.149  1.00  0.00    -0.353 N 
HETATM   27  H   UNL     1       7.770  22.489  56.145  1.00  0.00     0.163 HD
HETATM   28  O   UNL     1       6.863  23.179  53.187  1.00  0.00    -0.268 OA
BRANCH  26  29
HETATM   29  C   UNL     1       7.873  20.946  54.715  1.00  0.00     0.076 C 
HETATM   30  C   UNL     1       8.813  20.830  53.518  1.00  0.00     0.032 C 
HETATM   31  C   UNL     1       8.283  20.007  55.847  1.00  0.00     0.032 C 
ENDBRANCH  26  29
ENDBRANCH  22  25
ENDBRANCH   2  19
TORSDOF 7
ENDMDL
