MODEL 1
REMARK VINA RESULT:      -8.9      0.000      0.000
REMARK  8 active torsions:
REMARK  status: ('A' for Active; 'I' for Inactive)
REMARK    1  A    between atoms: N_4  and  C_6 
REMARK    2  A    between atoms: C_6  and  C_7 
REMARK       I    between atoms: C_7  and  N_8 
REMARK    3  A    between atoms: N_8  and  C_9 
REMARK    4  A    between atoms: C_15  and  C_16 
REMARK    5  A    between atoms: C_21  and  C_22 
REMARK       I    between atoms: C_22  and  N_23 
REMARK    6  A    between atoms: N_23  and  C_24 
REMARK    7  A    between atoms: C_25  and  O_26 
REMARK    8  A    between atoms: C_29  and  O_30 
ROOT
HETATM    1  C   UNL     1       5.222  28.099  53.872  1.00  0.00     0.093 C 
HETATM    2  S   UNL     1       4.476  29.025  52.664  1.00  0.00    -0.075 SA
HETATM    3  C   UNL     1       3.857  30.116  53.800  1.00  0.00    -0.008 C 
HETATM    4  C   UNL     1       4.106  29.730  55.106  1.00  0.00    -0.026 C 
HETATM    5  C   UNL     1       3.509  30.503  56.248  1.00  0.00     0.041 C 
HETATM    6  C   UNL     1       2.476  31.538  55.791  1.00  0.00     0.010 C 
HETATM    7  C   UNL     1       2.877  32.337  54.528  1.00  0.00    -0.002 C 
HETATM    8  C   UNL     1       3.099  31.337  53.361  1.00  0.00     0.052 C 
HETATM    9  C   UNL     1       5.028  28.604  55.156  1.00  0.00     0.073 C 
ENDROOT
BRANCH   9  10
HETATM   10  C   UNL     1       5.763  28.020  56.296  1.00  0.00     0.259 C 
HETATM   11  N   UNL     1       7.030  28.488  56.516  1.00  0.00    -0.320 N 
HETATM   12  H   UNL     1       7.741  27.762  56.543  1.00  0.00     0.169 HD
HETATM   13  O   UNL     1       5.352  27.004  56.862  1.00  0.00    -0.267 OA
BRANCH  11  14
HETATM   14  C   UNL     1       7.373  29.523  57.422  1.00  0.00     0.068 A 
HETATM   15  C   UNL     1       8.749  29.753  57.629  1.00  0.00     0.097 A 
HETATM   16  C   UNL     1       9.166  30.811  58.443  1.00  0.00     0.075 A 
HETATM   17  C   UNL     1       8.219  31.643  59.044  1.00  0.00     0.070 A 
HETATM   18  C   UNL     1       6.857  31.383  58.863  1.00  0.00     0.039 A 
HETATM   19  C   UNL     1       6.427  30.326  58.059  1.00  0.00     0.035 A 
BRANCH  15  20
HETATM   20  O   UNL     1       9.592  28.878  56.983  1.00  0.00    -0.354 OA
HETATM   21  C   UNL     1      10.924  29.322  56.747  1.00  0.00     0.210 C 
ENDBRANCH  15  20
BRANCH  17  22
HETATM   22  O   UNL     1       8.493  32.727  59.832  1.00  0.00    -0.356 OA
HETATM   23  C   UNL     1       7.898  32.753  61.124  1.00  0.00     0.210 C 
ENDBRANCH  17  22
ENDBRANCH  11  14
ENDBRANCH   9  10
BRANCH   1  24
HETATM   24  N   UNL     1       6.057  27.048  53.510  1.00  0.00    -0.319 N 
HETATM   25  C   UNL     1       5.629  25.803  53.108  1.00  0.00     0.248 C 
HETATM   26  O   UNL     1       4.509  25.311  53.247  1.00  0.00    -0.271 OA
HETATM   27  H   UNL     1       7.031  27.180  53.795  1.00  0.00     0.169 HD
BRANCH  25  28
HETATM   28  C   UNL     1       6.719  24.964  52.431  1.00  0.00     0.337 C 
BRANCH  28  29
HETATM   29  N   UNL     1       7.135  23.780  53.317  1.00  0.00    -0.062 N 
HETATM   30  C   UNL     1       8.442  23.152  52.877  1.00  0.00     0.239 C 
HETATM   31  C   UNL     1       8.689  21.855  53.656  1.00  0.00     0.007 C 
HETATM   32  C   UNL     1       7.723  20.739  53.242  1.00  0.00     0.011 C 
HETATM   33  C   UNL     1       8.638  22.116  55.167  1.00  0.00     0.007 C 
HETATM   34  C   UNL     1       7.370  22.850  55.596  1.00  0.00     0.028 C 
HETATM   35  C   UNL     1       7.128  24.112  54.780  1.00  0.00     0.235 C 
HETATM   36  H   UNL     1       6.406  23.074  53.123  1.00  0.00     0.280 HD
ENDBRANCH  28  29
ENDBRANCH  25  28
ENDBRANCH   1  24
BRANCH   7  37
HETATM   37  C   UNL     1       4.002  33.430  54.721  1.00  0.00    -0.047 C 
HETATM   38  C   UNL     1       4.963  33.176  55.896  1.00  0.00     0.015 C 
HETATM   39  C   UNL     1       4.865  33.503  53.438  1.00  0.00     0.015 C 
HETATM   40  C   UNL     1       3.366  34.824  54.917  1.00  0.00     0.015 C 
ENDBRANCH   7  37
TORSDOF 8
ENDMDL
MODEL 2
REMARK VINA RESULT:      -8.9      2.569      8.348
REMARK  8 active torsions:
REMARK  status: ('A' for Active; 'I' for Inactive)
REMARK    1  A    between atoms: N_4  and  C_6 
REMARK    2  A    between atoms: C_6  and  C_7 
REMARK       I    between atoms: C_7  and  N_8 
REMARK    3  A    between atoms: N_8  and  C_9 
REMARK    4  A    between atoms: C_15  and  C_16 
REMARK    5  A    between atoms: C_21  and  C_22 
REMARK       I    between atoms: C_22  and  N_23 
REMARK    6  A    between atoms: N_23  and  C_24 
REMARK    7  A    between atoms: C_25  and  O_26 
REMARK    8  A    between atoms: C_29  and  O_30 
ROOT
HETATM    1  C   UNL     1       7.948  28.087  57.439  1.00  0.00     0.093 C 
HETATM    2  S   UNL     1       8.829  26.646  57.297  1.00  0.00    -0.075 SA
HETATM    3  C   UNL     1       7.607  25.920  56.378  1.00  0.00    -0.008 C 
HETATM    4  C   UNL     1       6.476  26.710  56.269  1.00  0.00    -0.026 C 
HETATM    5  C   UNL     1       5.238  26.171  55.609  1.00  0.00     0.041 C 
HETATM    6  C   UNL     1       5.323  24.668  55.324  1.00  0.00     0.010 C 
HETATM    7  C   UNL     1       6.687  24.191  54.769  1.00  0.00    -0.002 C 
HETATM    8  C   UNL     1       7.791  24.544  55.802  1.00  0.00     0.052 C 
HETATM    9  C   UNL     1       6.719  28.051  56.784  1.00  0.00     0.073 C 
ENDROOT
BRANCH   9  10
HETATM   10  C   UNL     1       5.916  29.284  56.657  1.00  0.00     0.259 C 
HETATM   11  N   UNL     1       5.983  29.942  55.459  1.00  0.00    -0.320 N 
HETATM   12  H   UNL     1       6.253  30.919  55.538  1.00  0.00     0.169 HD
HETATM   13  O   UNL     1       5.409  29.816  57.649  1.00  0.00    -0.267 OA
BRANCH  11  14
HETATM   14  C   UNL     1       5.067  29.787  54.389  1.00  0.00     0.068 A 
HETATM   15  C   UNL     1       4.094  30.796  54.236  1.00  0.00     0.097 A 
HETATM   16  C   UNL     1       3.210  30.756  53.154  1.00  0.00     0.075 A 
HETATM   17  C   UNL     1       3.295  29.720  52.222  1.00  0.00     0.070 A 
HETATM   18  C   UNL     1       4.238  28.703  52.403  1.00  0.00     0.039 A 
HETATM   19  C   UNL     1       5.122  28.728  53.483  1.00  0.00     0.035 A 
BRANCH  15  20
HETATM   20  O   UNL     1       4.105  31.772  55.207  1.00  0.00    -0.354 OA
HETATM   21  C   UNL     1       2.938  31.893  56.012  1.00  0.00     0.210 C 
ENDBRANCH  15  20
BRANCH  17  22
HETATM   22  O   UNL     1       2.515  29.582  51.106  1.00  0.00    -0.356 OA
HETATM   23  C   UNL     1       3.173  29.209  49.900  1.00  0.00     0.210 C 
ENDBRANCH  17  22
ENDBRANCH  11  14
ENDBRANCH   9  10
BRANCH   1  24
HETATM   24  N   UNL     1       8.541  29.195  58.032  1.00  0.00    -0.319 N 
HETATM   25  C   UNL     1       9.560  29.937  57.477  1.00  0.00     0.248 C 
HETATM   26  O   UNL     1      10.293  29.623  56.539  1.00  0.00    -0.271 OA
HETATM   27  H   UNL     1       8.334  29.287  59.030  1.00  0.00     0.169 HD
BRANCH  25  28
HETATM   28  C   UNL     1       9.779  31.292  58.157  1.00  0.00     0.337 C 
BRANCH  28  29
HETATM   29  N   UNL     1       8.978  31.391  59.465  1.00  0.00    -0.062 N 
HETATM   30  C   UNL     1       9.786  31.981  60.602  1.00  0.00     0.239 C 
HETATM   31  C   UNL     1       9.012  31.852  61.918  1.00  0.00     0.007 C 
HETATM   32  C   UNL     1       8.927  30.398  62.399  1.00  0.00     0.011 C 
HETATM   33  C   UNL     1       7.622  32.488  61.790  1.00  0.00     0.007 C 
HETATM   34  C   UNL     1       6.849  31.974  60.577  1.00  0.00     0.028 C 
HETATM   35  C   UNL     1       7.656  32.078  59.291  1.00  0.00     0.235 C 
HETATM   36  H   UNL     1       8.820  30.402  59.717  1.00  0.00     0.280 HD
ENDBRANCH  28  29
ENDBRANCH  25  28
ENDBRANCH   1  24
BRANCH   7  37
HETATM   37  C   UNL     1       7.001  24.574  53.268  1.00  0.00    -0.047 C 
HETATM   38  C   UNL     1       7.806  25.873  53.080  1.00  0.00     0.015 C 
HETATM   39  C   UNL     1       7.821  23.435  52.614  1.00  0.00     0.015 C 
HETATM   40  C   UNL     1       5.689  24.705  52.463  1.00  0.00     0.015 C 
ENDBRANCH   7  37
TORSDOF 8
ENDMDL
MODEL 3
REMARK VINA RESULT:      -8.8      2.965      6.549
REMARK  8 active torsions:
REMARK  status: ('A' for Active; 'I' for Inactive)
REMARK    1  A    between atoms: N_4  and  C_6 
REMARK    2  A    between atoms: C_6  and  C_7 
REMARK       I    between atoms: C_7  and  N_8 
REMARK    3  A    between atoms: N_8  and  C_9 
REMARK    4  A    between atoms: C_15  and  C_16 
REMARK    5  A    between atoms: C_21  and  C_22 
REMARK       I    between atoms: C_22  and  N_23 
REMARK    6  A    between atoms: N_23  and  C_24 
REMARK    7  A    between atoms: C_25  and  O_26 
REMARK    8  A    between atoms: C_29  and  O_30 
ROOT
HETATM    1  C   UNL     1       5.128  28.128  53.404  1.00  0.00     0.093 C 
HETATM    2  S   UNL     1       3.630  28.884  53.649  1.00  0.00    -0.075 SA
HETATM    3  C   UNL     1       4.070  29.383  55.206  1.00  0.00    -0.008 C 
HETATM    4  C   UNL     1       5.300  28.886  55.601  1.00  0.00    -0.026 C 
HETATM    5  C   UNL     1       5.788  29.108  57.005  1.00  0.00     0.041 C 
HETATM    6  C   UNL     1       4.712  29.697  57.923  1.00  0.00     0.010 C 
HETATM    7  C   UNL     1       3.860  30.820  57.283  1.00  0.00    -0.002 C 
HETATM    8  C   UNL     1       3.153  30.246  56.025  1.00  0.00     0.052 C 
HETATM    9  C   UNL     1       5.993  28.250  54.489  1.00  0.00     0.073 C 
ENDROOT
BRANCH   9  10
HETATM   10  C   UNL     1       7.397  27.808  54.365  1.00  0.00     0.259 C 
HETATM   11  N   UNL     1       7.746  26.671  55.040  1.00  0.00    -0.320 N 
HETATM   12  H   UNL     1       8.535  26.789  55.670  1.00  0.00     0.169 HD
HETATM   13  O   UNL     1       8.255  28.551  53.881  1.00  0.00    -0.267 OA
BRANCH  11  14
HETATM   14  C   UNL     1       7.770  25.366  54.487  1.00  0.00     0.068 A 
HETATM   15  C   UNL     1       7.614  24.292  55.388  1.00  0.00     0.097 A 
HETATM   16  C   UNL     1       7.543  22.981  54.908  1.00  0.00     0.075 A 
HETATM   17  C   UNL     1       7.621  22.737  53.535  1.00  0.00     0.070 A 
HETATM   18  C   UNL     1       7.815  23.804  52.653  1.00  0.00     0.039 A 
HETATM   19  C   UNL     1       7.894  25.118  53.120  1.00  0.00     0.035 A 
BRANCH  15  20
HETATM   20  O   UNL     1       7.540  24.649  56.716  1.00  0.00    -0.354 OA
HETATM   21  C   UNL     1       8.696  24.414  57.511  1.00  0.00     0.210 C 
ENDBRANCH  15  20
BRANCH  17  22
HETATM   22  O   UNL     1       7.533  21.510  52.936  1.00  0.00    -0.356 OA
HETATM   23  C   UNL     1       8.374  20.481  53.444  1.00  0.00     0.210 C 
ENDBRANCH  17  22
ENDBRANCH  11  14
ENDBRANCH   9  10
BRANCH   1  24
HETATM   24  N   UNL     1       5.432  27.604  52.154  1.00  0.00    -0.319 N 
HETATM   25  C   UNL     1       5.019  26.374  51.691  1.00  0.00     0.248 C 
HETATM   26  O   UNL     1       4.566  25.438  52.349  1.00  0.00    -0.271 OA
HETATM   27  H   UNL     1       6.195  28.092  51.678  1.00  0.00     0.169 HD
BRANCH  25  28
HETATM   28  C   UNL     1       5.182  26.196  50.179  1.00  0.00     0.337 C 
BRANCH  28  29
HETATM   29  N   UNL     1       3.932  26.678  49.427  1.00  0.00    -0.062 N 
HETATM   30  C   UNL     1       4.025  28.130  49.006  1.00  0.00     0.239 C 
HETATM   31  C   UNL     1       2.675  28.607  48.461  1.00  0.00     0.007 C 
HETATM   32  C   UNL     1       1.618  28.733  49.564  1.00  0.00     0.011 C 
HETATM   33  C   UNL     1       2.200  27.692  47.324  1.00  0.00     0.007 C 
HETATM   34  C   UNL     1       2.211  26.216  47.712  1.00  0.00     0.028 C 
HETATM   35  C   UNL     1       3.552  25.779  48.287  1.00  0.00     0.235 C 
HETATM   36  H   UNL     1       3.196  26.643  50.150  1.00  0.00     0.280 HD
ENDBRANCH  28  29
ENDBRANCH  25  28
ENDBRANCH   1  24
BRANCH   7  37
HETATM   37  C   UNL     1       4.574  32.216  57.094  1.00  0.00    -0.047 C 
HETATM   38  C   UNL     1       5.035  32.525  55.658  1.00  0.00     0.015 C 
HETATM   39  C   UNL     1       3.601  33.346  57.510  1.00  0.00     0.015 C 
HETATM   40  C   UNL     1       5.805  32.317  58.022  1.00  0.00     0.015 C 
ENDBRANCH   7  37
TORSDOF 8
ENDMDL
MODEL 4
REMARK VINA RESULT:      -8.7      2.847      8.625
REMARK  8 active torsions:
REMARK  status: ('A' for Active; 'I' for Inactive)
REMARK    1  A    between atoms: N_4  and  C_6 
REMARK    2  A    between atoms: C_6  and  C_7 
REMARK       I    between atoms: C_7  and  N_8 
REMARK    3  A    between atoms: N_8  and  C_9 
REMARK    4  A    between atoms: C_15  and  C_16 
REMARK    5  A    between atoms: C_21  and  C_22 
REMARK       I    between atoms: C_22  and  N_23 
REMARK    6  A    between atoms: N_23  and  C_24 
REMARK    7  A    between atoms: C_25  and  O_26 
REMARK    8  A    between atoms: C_29  and  O_30 
ROOT
HETATM    1  C   UNL     1       5.454  28.505  56.893  1.00  0.00     0.093 C 
HETATM    2  S   UNL     1       6.275  27.055  57.202  1.00  0.00    -0.075 SA
HETATM    3  C   UNL     1       5.794  26.397  55.718  1.00  0.00    -0.008 C 
HETATM    4  C   UNL     1       4.915  27.215  55.029  1.00  0.00    -0.026 C 
HETATM    5  C   UNL     1       4.273  26.732  53.759  1.00  0.00     0.041 C 
HETATM    6  C   UNL     1       4.519  25.243  53.496  1.00  0.00     0.010 C 
HETATM    7  C   UNL     1       5.963  24.766  53.786  1.00  0.00    -0.002 C 
HETATM    8  C   UNL     1       6.285  25.047  55.279  1.00  0.00     0.052 C 
HETATM    9  C   UNL     1       4.811  28.525  55.657  1.00  0.00     0.073 C 
ENDROOT
BRANCH   9  10
HETATM   10  C   UNL     1       4.208  29.778  55.161  1.00  0.00     0.259 C 
HETATM   11  N   UNL     1       4.846  30.399  54.122  1.00  0.00    -0.320 N 
HETATM   12  H   UNL     1       5.090  31.368  54.305  1.00  0.00     0.169 HD
HETATM   13  O   UNL     1       3.325  30.355  55.802  1.00  0.00    -0.267 OA
BRANCH  11  14
HETATM   14  C   UNL     1       4.520  30.242  52.751  1.00  0.00     0.068 A 
HETATM   15  C   UNL     1       3.589  31.154  52.213  1.00  0.00     0.097 A 
HETATM   16  C   UNL     1       3.281  31.116  50.850  1.00  0.00     0.075 A 
HETATM   17  C   UNL     1       3.901  30.177  50.021  1.00  0.00     0.070 A 
HETATM   18  C   UNL     1       4.793  29.252  50.572  1.00  0.00     0.039 A 
HETATM   19  C   UNL     1       5.104  29.276  51.933  1.00  0.00     0.035 A 
BRANCH  15  20
HETATM   20  O   UNL     1       3.047  32.039  53.117  1.00  0.00    -0.354 OA
HETATM   21  C   UNL     1       2.005  32.886  52.645  1.00  0.00     0.210 C 
ENDBRANCH  15  20
BRANCH  17  22
HETATM   22  O   UNL     1       3.713  30.056  48.672  1.00  0.00    -0.356 OA
HETATM   23  C   UNL     1       3.899  28.763  48.108  1.00  0.00     0.210 C 
ENDBRANCH  17  22
ENDBRANCH  11  14
ENDBRANCH   9  10
BRANCH   1  24
HETATM   24  N   UNL     1       5.596  29.572  57.773  1.00  0.00    -0.319 N 
HETATM   25  C   UNL     1       6.727  30.347  57.896  1.00  0.00     0.248 C 
HETATM   26  O   UNL     1       7.860  30.095  57.485  1.00  0.00    -0.271 OA
HETATM   27  H   UNL     1       4.883  29.598  58.506  1.00  0.00     0.169 HD
BRANCH  25  28
HETATM   28  C   UNL     1       6.499  31.656  58.660  1.00  0.00     0.337 C 
BRANCH  28  29
HETATM   29  N   UNL     1       7.066  31.570  60.086  1.00  0.00    -0.062 N 
HETATM   30  C   UNL     1       8.440  32.195  60.208  1.00  0.00     0.239 C 
HETATM   31  C   UNL     1       9.036  31.887  61.586  1.00  0.00     0.007 C 
HETATM   32  C   UNL     1       9.419  30.409  61.733  1.00  0.00     0.011 C 
HETATM   33  C   UNL     1       8.082  32.338  62.699  1.00  0.00     0.007 C 
HETATM   34  C   UNL     1       6.666  31.797  62.515  1.00  0.00     0.028 C 
HETATM   35  C   UNL     1       6.113  32.083  61.126  1.00  0.00     0.235 C 
HETATM   36  H   UNL     1       7.206  30.555  60.221  1.00  0.00     0.280 HD
ENDBRANCH  28  29
ENDBRANCH  25  28
ENDBRANCH   1  24
BRANCH   7  37
HETATM   37  C   UNL     1       7.067  25.212  52.748  1.00  0.00    -0.047 C 
HETATM   38  C   UNL     1       7.941  26.398  53.194  1.00  0.00     0.015 C 
HETATM   39  C   UNL     1       8.020  24.023  52.477  1.00  0.00     0.015 C 
HETATM   40  C   UNL     1       6.413  25.582  51.398  1.00  0.00     0.015 C 
ENDBRANCH   7  37
TORSDOF 8
ENDMDL
MODEL 5
REMARK VINA RESULT:      -8.6      2.838      9.099
REMARK  8 active torsions:
REMARK  status: ('A' for Active; 'I' for Inactive)
REMARK    1  A    between atoms: N_4  and  C_6 
REMARK    2  A    between atoms: C_6  and  C_7 
REMARK       I    between atoms: C_7  and  N_8 
REMARK    3  A    between atoms: N_8  and  C_9 
REMARK    4  A    between atoms: C_15  and  C_16 
REMARK    5  A    between atoms: C_21  and  C_22 
REMARK       I    between atoms: C_22  and  N_23 
REMARK    6  A    between atoms: N_23  and  C_24 
REMARK    7  A    between atoms: C_25  and  O_26 
REMARK    8  A    between atoms: C_29  and  O_30 
ROOT
HETATM    1  C   UNL     1       7.218  28.174  56.675  1.00  0.00     0.093 C 
HETATM    2  S   UNL     1       7.972  26.894  57.491  1.00  0.00    -0.075 SA
HETATM    3  C   UNL     1       7.262  25.747  56.468  1.00  0.00    -0.008 C 
HETATM    4  C   UNL     1       6.360  26.306  55.579  1.00  0.00    -0.026 C 
HETATM    5  C   UNL     1       5.530  25.423  54.690  1.00  0.00     0.041 C 
HETATM    6  C   UNL     1       5.639  23.939  55.056  1.00  0.00     0.010 C 
HETATM    7  C   UNL     1       7.073  23.460  55.391  1.00  0.00    -0.002 C 
HETATM    8  C   UNL     1       7.601  24.288  56.594  1.00  0.00     0.052 C 
HETATM    9  C   UNL     1       6.426  27.760  55.607  1.00  0.00     0.073 C 
ENDROOT
BRANCH   9  10
HETATM   10  C   UNL     1       5.851  28.761  54.685  1.00  0.00     0.259 C 
HETATM   11  N   UNL     1       6.344  28.778  53.410  1.00  0.00    -0.320 N 
HETATM   12  H   UNL     1       6.696  29.685  53.113  1.00  0.00     0.169 HD
HETATM   13  O   UNL     1       5.146  29.681  55.108  1.00  0.00    -0.267 OA
BRANCH  11  14
HETATM   14  C   UNL     1       5.768  28.107  52.301  1.00  0.00     0.068 A 
HETATM   15  C   UNL     1       4.963  28.881  51.440  1.00  0.00     0.097 A 
HETATM   16  C   UNL     1       4.430  28.309  50.281  1.00  0.00     0.075 A 
HETATM   17  C   UNL     1       4.701  26.974  49.973  1.00  0.00     0.070 A 
HETATM   18  C   UNL     1       5.469  26.205  50.853  1.00  0.00     0.039 A 
HETATM   19  C   UNL     1       6.002  26.762  52.018  1.00  0.00     0.035 A 
BRANCH  15  20
HETATM   20  O   UNL     1       4.768  30.184  51.836  1.00  0.00    -0.354 OA
HETATM   21  C   UNL     1       3.421  30.613  52.001  1.00  0.00     0.210 C 
ENDBRANCH  15  20
BRANCH  17  22
HETATM   22  O   UNL     1       4.270  26.308  48.860  1.00  0.00    -0.356 OA
HETATM   23  C   UNL     1       4.704  26.807  47.600  1.00  0.00     0.210 C 
ENDBRANCH  17  22
ENDBRANCH  11  14
ENDBRANCH   9  10
BRANCH   1  24
HETATM   24  N   UNL     1       7.543  29.484  57.010  1.00  0.00    -0.319 N 
HETATM   25  C   UNL     1       6.808  30.290  57.849  1.00  0.00     0.248 C 
HETATM   26  O   UNL     1       5.647  30.125  58.223  1.00  0.00    -0.271 OA
HETATM   27  H   UNL     1       8.248  29.901  56.396  1.00  0.00     0.169 HD
BRANCH  25  28
HETATM   28  C   UNL     1       7.563  31.535  58.328  1.00  0.00     0.337 C 
BRANCH  28  29
HETATM   29  N   UNL     1       7.774  31.502  59.849  1.00  0.00    -0.062 N 
HETATM   30  C   UNL     1       9.152  31.978  60.259  1.00  0.00     0.239 C 
HETATM   31  C   UNL     1       9.375  31.717  61.753  1.00  0.00     0.007 C 
HETATM   32  C   UNL     1       9.522  30.223  62.064  1.00  0.00     0.011 C 
HETATM   33  C   UNL     1       8.257  32.361  62.584  1.00  0.00     0.007 C 
HETATM   34  C   UNL     1       6.863  31.969  62.100  1.00  0.00     0.028 C 
HETATM   35  C   UNL     1       6.683  32.201  60.606  1.00  0.00     0.235 C 
HETATM   36  H   UNL     1       7.749  30.493  60.068  1.00  0.00     0.280 HD
ENDBRANCH  28  29
ENDBRANCH  25  28
ENDBRANCH   1  24
BRANCH   7  37
HETATM   37  C   UNL     1       8.063  23.313  54.169  1.00  0.00    -0.047 C 
HETATM   38  C   UNL     1       8.202  24.566  53.286  1.00  0.00     0.015 C 
HETATM   39  C   UNL     1       9.477  22.973  54.699  1.00  0.00     0.015 C 
HETATM   40  C   UNL     1       7.627  22.138  53.265  1.00  0.00     0.015 C 
ENDBRANCH   7  37
TORSDOF 8
ENDMDL
MODEL 6
REMARK VINA RESULT:      -8.5      4.868     10.331
REMARK  8 active torsions:
REMARK  status: ('A' for Active; 'I' for Inactive)
REMARK    1  A    between atoms: N_4  and  C_6 
REMARK    2  A    between atoms: C_6  and  C_7 
REMARK       I    between atoms: C_7  and  N_8 
REMARK    3  A    between atoms: N_8  and  C_9 
REMARK    4  A    between atoms: C_15  and  C_16 
REMARK    5  A    between atoms: C_21  and  C_22 
REMARK       I    between atoms: C_22  and  N_23 
REMARK    6  A    between atoms: N_23  and  C_24 
REMARK    7  A    between atoms: C_25  and  O_26 
REMARK    8  A    between atoms: C_29  and  O_30 
ROOT
HETATM    1  C   UNL     1       4.864  29.250  52.361  1.00  0.00     0.093 C 
HETATM    2  S   UNL     1       4.804  28.565  53.910  1.00  0.00    -0.075 SA
HETATM    3  C   UNL     1       5.049  27.007  53.294  1.00  0.00    -0.008 C 
HETATM    4  C   UNL     1       5.059  26.972  51.911  1.00  0.00    -0.026 C 
HETATM    5  C   UNL     1       5.123  25.656  51.189  1.00  0.00     0.041 C 
HETATM    6  C   UNL     1       4.939  24.455  52.123  1.00  0.00     0.010 C 
HETATM    7  C   UNL     1       5.695  24.562  53.469  1.00  0.00    -0.002 C 
HETATM    8  C   UNL     1       5.196  25.829  54.216  1.00  0.00     0.052 C 
HETATM    9  C   UNL     1       5.082  28.316  51.350  1.00  0.00     0.073 C 
ENDROOT
BRANCH   9  10
HETATM   10  C   UNL     1       5.342  28.773  49.970  1.00  0.00     0.259 C 
HETATM   11  N   UNL     1       4.883  27.972  48.960  1.00  0.00    -0.320 N 
HETATM   12  H   UNL     1       5.599  27.693  48.295  1.00  0.00     0.169 HD
HETATM   13  O   UNL     1       6.135  29.692  49.744  1.00  0.00    -0.267 OA
BRANCH  11  14
HETATM   14  C   UNL     1       3.646  28.133  48.287  1.00  0.00     0.068 A 
HETATM   15  C   UNL     1       3.062  26.968  47.747  1.00  0.00     0.097 A 
HETATM   16  C   UNL     1       1.803  27.034  47.143  1.00  0.00     0.075 A 
HETATM   17  C   UNL     1       1.122  28.251  47.081  1.00  0.00     0.070 A 
HETATM   18  C   UNL     1       1.725  29.407  47.586  1.00  0.00     0.039 A 
HETATM   19  C   UNL     1       2.985  29.357  48.186  1.00  0.00     0.035 A 
BRANCH  15  20
HETATM   20  O   UNL     1       3.818  25.824  47.870  1.00  0.00    -0.354 OA
HETATM   21  C   UNL     1       3.111  24.599  48.024  1.00  0.00     0.210 C 
ENDBRANCH  15  20
BRANCH  17  22
HETATM   22  O   UNL     1      -0.124  28.443  46.549  1.00  0.00    -0.356 OA
HETATM   23  C   UNL     1      -0.497  27.607  45.460  1.00  0.00     0.210 C 
ENDBRANCH  17  22
ENDBRANCH  11  14
ENDBRANCH   9  10
BRANCH   1  24
HETATM   24  N   UNL     1       4.847  30.633  52.224  1.00  0.00    -0.319 N 
HETATM   25  C   UNL     1       3.742  31.379  51.881  1.00  0.00     0.248 C 
HETATM   26  O   UNL     1       2.690  30.978  51.384  1.00  0.00    -0.271 OA
HETATM   27  H   UNL     1       5.779  31.051  52.160  1.00  0.00     0.169 HD
BRANCH  25  28
HETATM   28  C   UNL     1       3.901  32.879  52.150  1.00  0.00     0.337 C 
BRANCH  28  29
HETATM   29  N   UNL     1       4.913  33.511  51.182  1.00  0.00    -0.062 N 
HETATM   30  C   UNL     1       4.360  33.671  49.780  1.00  0.00     0.239 C 
HETATM   31  C   UNL     1       5.477  34.098  48.822  1.00  0.00     0.007 C 
HETATM   32  C   UNL     1       6.484  32.971  48.567  1.00  0.00     0.011 C 
HETATM   33  C   UNL     1       6.167  35.369  49.332  1.00  0.00     0.007 C 
HETATM   34  C   UNL     1       6.626  35.248  50.783  1.00  0.00     0.028 C 
HETATM   35  C   UNL     1       5.509  34.784  51.706  1.00  0.00     0.235 C 
HETATM   36  H   UNL     1       5.651  32.791  51.112  1.00  0.00     0.280 HD
ENDBRANCH  28  29
ENDBRANCH  25  28
ENDBRANCH   1  24
BRANCH   7  37
HETATM   37  C   UNL     1       7.263  24.374  53.406  1.00  0.00    -0.047 C 
HETATM   38  C   UNL     1       8.008  25.391  52.523  1.00  0.00     0.015 C 
HETATM   39  C   UNL     1       7.847  24.498  54.834  1.00  0.00     0.015 C 
HETATM   40  C   UNL     1       7.611  22.956  52.899  1.00  0.00     0.015 C 
ENDBRANCH   7  37
TORSDOF 8
ENDMDL
MODEL 7
REMARK VINA RESULT:      -8.4      3.451      7.382
REMARK  8 active torsions:
REMARK  status: ('A' for Active; 'I' for Inactive)
REMARK    1  A    between atoms: N_4  and  C_6 
REMARK    2  A    between atoms: C_6  and  C_7 
REMARK       I    between atoms: C_7  and  N_8 
REMARK    3  A    between atoms: N_8  and  C_9 
REMARK    4  A    between atoms: C_15  and  C_16 
REMARK    5  A    between atoms: C_21  and  C_22 
REMARK       I    between atoms: C_22  and  N_23 
REMARK    6  A    between atoms: N_23  and  C_24 
REMARK    7  A    between atoms: C_25  and  O_26 
REMARK    8  A    between atoms: C_29  and  O_30 
ROOT
HETATM    1  C   UNL     1       5.140  29.244  52.234  1.00  0.00     0.093 C 
HETATM    2  S   UNL     1       5.221  30.223  50.853  1.00  0.00    -0.075 SA
HETATM    3  C   UNL     1       4.818  28.928  49.839  1.00  0.00    -0.008 C 
HETATM    4  C   UNL     1       4.736  27.723  50.516  1.00  0.00    -0.026 C 
HETATM    5  C   UNL     1       4.527  26.443  49.756  1.00  0.00     0.041 C 
HETATM    6  C   UNL     1       4.658  26.623  48.240  1.00  0.00     0.010 C 
HETATM    7  C   UNL     1       3.982  27.898  47.680  1.00  0.00    -0.002 C 
HETATM    8  C   UNL     1       4.621  29.137  48.364  1.00  0.00     0.052 C 
HETATM    9  C   UNL     1       4.795  27.923  51.957  1.00  0.00     0.073 C 
ENDROOT
BRANCH   9  10
HETATM   10  C   UNL     1       4.504  26.991  53.065  1.00  0.00     0.259 C 
HETATM   11  N   UNL     1       4.724  25.662  52.825  1.00  0.00    -0.320 N 
HETATM   12  H   UNL     1       3.915  25.070  52.996  1.00  0.00     0.169 HD
HETATM   13  O   UNL     1       3.873  27.363  54.058  1.00  0.00    -0.267 OA
BRANCH  11  14
HETATM   14  C   UNL     1       5.908  24.956  53.156  1.00  0.00     0.068 A 
HETATM   15  C   UNL     1       6.088  24.623  54.515  1.00  0.00     0.097 A 
HETATM   16  C   UNL     1       7.188  23.854  54.905  1.00  0.00     0.075 A 
HETATM   17  C   UNL     1       8.105  23.413  53.949  1.00  0.00     0.070 A 
HETATM   18  C   UNL     1       7.939  23.781  52.610  1.00  0.00     0.039 A 
HETATM   19  C   UNL     1       6.848  24.553  52.208  1.00  0.00     0.035 A 
BRANCH  15  20
HETATM   20  O   UNL     1       5.121  25.103  55.368  1.00  0.00    -0.354 OA
HETATM   21  C   UNL     1       5.305  24.853  56.757  1.00  0.00     0.210 C 
ENDBRANCH  15  20
BRANCH  17  22
HETATM   22  O   UNL     1       9.201  22.632  54.194  1.00  0.00    -0.356 OA
HETATM   23  C   UNL     1       9.100  21.692  55.258  1.00  0.00     0.210 C 
ENDBRANCH  17  22
ENDBRANCH  11  14
ENDBRANCH   9  10
BRANCH   1  24
HETATM   24  N   UNL     1       5.264  29.824  53.491  1.00  0.00    -0.319 N 
HETATM   25  C   UNL     1       4.260  30.493  54.154  1.00  0.00     0.248 C 
HETATM   26  O   UNL     1       3.209  30.927  53.684  1.00  0.00    -0.271 OA
HETATM   27  H   UNL     1       6.234  29.934  53.799  1.00  0.00     0.169 HD
BRANCH  25  28
HETATM   28  C   UNL     1       4.544  30.713  55.644  1.00  0.00     0.337 C 
BRANCH  28  29
HETATM   29  N   UNL     1       5.692  29.814  56.127  1.00  0.00    -0.062 N 
HETATM   30  C   UNL     1       6.849  30.603  56.704  1.00  0.00     0.239 C 
HETATM   31  C   UNL     1       8.040  29.674  56.964  1.00  0.00     0.007 C 
HETATM   32  C   UNL     1       8.691  29.190  55.663  1.00  0.00     0.011 C 
HETATM   33  C   UNL     1       7.622  28.500  57.859  1.00  0.00     0.007 C 
HETATM   34  C   UNL     1       6.386  27.772  57.336  1.00  0.00     0.028 C 
HETATM   35  C   UNL     1       5.232  28.723  57.049  1.00  0.00     0.235 C 
HETATM   36  H   UNL     1       6.047  29.396  55.252  1.00  0.00     0.280 HD
ENDBRANCH  28  29
ENDBRANCH  25  28
ENDBRANCH   1  24
BRANCH   7  37
HETATM   37  C   UNL     1       2.403  27.882  47.621  1.00  0.00    -0.047 C 
HETATM   38  C   UNL     1       1.697  28.088  48.973  1.00  0.00     0.015 C 
HETATM   39  C   UNL     1       1.919  29.013  46.680  1.00  0.00     0.015 C 
HETATM   40  C   UNL     1       1.904  26.550  47.019  1.00  0.00     0.015 C 
ENDBRANCH   7  37
TORSDOF 8
ENDMDL
MODEL 8
REMARK VINA RESULT:      -8.1      4.385     10.256
REMARK  8 active torsions:
REMARK  status: ('A' for Active; 'I' for Inactive)
REMARK    1  A    between atoms: N_4  and  C_6 
REMARK    2  A    between atoms: C_6  and  C_7 
REMARK       I    between atoms: C_7  and  N_8 
REMARK    3  A    between atoms: N_8  and  C_9 
REMARK    4  A    between atoms: C_15  and  C_16 
REMARK    5  A    between atoms: C_21  and  C_22 
REMARK       I    between atoms: C_22  and  N_23 
REMARK    6  A    between atoms: N_23  and  C_24 
REMARK    7  A    between atoms: C_25  and  O_26 
REMARK    8  A    between atoms: C_29  and  O_30 
ROOT
HETATM    1  C   UNL     1       4.789  29.348  52.213  1.00  0.00     0.093 C 
HETATM    2  S   UNL     1       4.635  28.653  53.751  1.00  0.00    -0.075 SA
HETATM    3  C   UNL     1       4.955  27.103  53.148  1.00  0.00    -0.008 C 
HETATM    4  C   UNL     1       5.063  27.077  51.769  1.00  0.00    -0.026 C 
HETATM    5  C   UNL     1       5.204  25.765  51.048  1.00  0.00     0.041 C 
HETATM    6  C   UNL     1       4.980  24.556  51.962  1.00  0.00     0.010 C 
HETATM    7  C   UNL     1       5.637  24.672  53.359  1.00  0.00    -0.002 C 
HETATM    8  C   UNL     1       5.061  25.924  54.073  1.00  0.00     0.052 C 
HETATM    9  C   UNL     1       5.097  28.424  51.217  1.00  0.00     0.073 C 
ENDROOT
BRANCH   9  10
HETATM   10  C   UNL     1       5.445  28.893  49.860  1.00  0.00     0.259 C 
HETATM   11  N   UNL     1       5.008  28.127  48.814  1.00  0.00    -0.320 N 
HETATM   12  H   UNL     1       5.746  27.831  48.180  1.00  0.00     0.169 HD
HETATM   13  O   UNL     1       6.281  29.784  49.691  1.00  0.00    -0.267 OA
BRANCH  11  14
HETATM   14  C   UNL     1       3.813  28.346  48.082  1.00  0.00     0.068 A 
HETATM   15  C   UNL     1       2.948  27.242  47.937  1.00  0.00     0.097 A 
HETATM   16  C   UNL     1       1.713  27.401  47.302  1.00  0.00     0.075 A 
HETATM   17  C   UNL     1       1.335  28.655  46.817  1.00  0.00     0.070 A 
HETATM   18  C   UNL     1       2.216  29.735  46.931  1.00  0.00     0.039 A 
HETATM   19  C   UNL     1       3.455  29.587  47.558  1.00  0.00     0.035 A 
BRANCH  15  20
HETATM   20  O   UNL     1       3.418  26.057  48.458  1.00  0.00    -0.354 OA
HETATM   21  C   UNL     1       2.996  24.859  47.817  1.00  0.00     0.210 C 
ENDBRANCH  15  20
BRANCH  17  22
HETATM   22  O   UNL     1       0.147  28.951  46.208  1.00  0.00    -0.356 OA
HETATM   23  C   UNL     1      -0.703  27.857  45.883  1.00  0.00     0.210 C 
ENDBRANCH  17  22
ENDBRANCH  11  14
ENDBRANCH   9  10
BRANCH   1  24
HETATM   24  N   UNL     1       4.754  30.731  52.081  1.00  0.00    -0.319 N 
HETATM   25  C   UNL     1       3.700  31.447  51.559  1.00  0.00     0.248 C 
HETATM   26  O   UNL     1       2.759  31.020  50.891  1.00  0.00    -0.271 OA
HETATM   27  H   UNL     1       5.670  31.176  52.176  1.00  0.00     0.169 HD
BRANCH  25  28
HETATM   28  C   UNL     1       3.766  32.949  51.857  1.00  0.00     0.337 C 
BRANCH  28  29
HETATM   29  N   UNL     1       3.453  33.233  53.334  1.00  0.00    -0.062 N 
HETATM   30  C   UNL     1       4.111  34.502  53.837  1.00  0.00     0.239 C 
HETATM   31  C   UNL     1       3.942  34.614  55.356  1.00  0.00     0.007 C 
HETATM   32  C   UNL     1       4.787  33.579  56.109  1.00  0.00     0.011 C 
HETATM   33  C   UNL     1       2.460  34.524  55.742  1.00  0.00     0.007 C 
HETATM   34  C   UNL     1       1.768  33.302  55.142  1.00  0.00     0.028 C 
HETATM   35  C   UNL     1       1.984  33.195  53.639  1.00  0.00     0.235 C 
HETATM   36  H   UNL     1       3.926  32.459  53.827  1.00  0.00     0.280 HD
ENDBRANCH  28  29
ENDBRANCH  25  28
ENDBRANCH   1  24
BRANCH   7  37
HETATM   37  C   UNL     1       7.209  24.516  53.405  1.00  0.00    -0.047 C 
HETATM   38  C   UNL     1       7.990  25.492  52.508  1.00  0.00     0.015 C 
HETATM   39  C   UNL     1       7.700  24.742  54.856  1.00  0.00     0.015 C 
HETATM   40  C   UNL     1       7.616  23.077  53.012  1.00  0.00     0.015 C 
ENDBRANCH   7  37
TORSDOF 8
ENDMDL
MODEL 9
REMARK VINA RESULT:      -8.1      2.666      4.328
REMARK  8 active torsions:
REMARK  status: ('A' for Active; 'I' for Inactive)
REMARK    1  A    between atoms: N_4  and  C_6 
REMARK    2  A    between atoms: C_6  and  C_7 
REMARK       I    between atoms: C_7  and  N_8 
REMARK    3  A    between atoms: N_8  and  C_9 
REMARK    4  A    between atoms: C_15  and  C_16 
REMARK    5  A    between atoms: C_21  and  C_22 
REMARK       I    between atoms: C_22  and  N_23 
REMARK    6  A    between atoms: N_23  and  C_24 
REMARK    7  A    between atoms: C_25  and  O_26 
REMARK    8  A    between atoms: C_29  and  O_30 
ROOT
HETATM    1  C   UNL     1       5.937  26.757  53.204  1.00  0.00     0.093 C 
HETATM    2  S   UNL     1       5.943  26.403  51.546  1.00  0.00    -0.075 SA
HETATM    3  C   UNL     1       4.722  27.534  51.239  1.00  0.00    -0.008 C 
HETATM    4  C   UNL     1       4.215  28.103  52.395  1.00  0.00    -0.026 C 
HETATM    5  C   UNL     1       3.029  29.024  52.327  1.00  0.00     0.041 C 
HETATM    6  C   UNL     1       2.368  29.041  50.944  1.00  0.00     0.010 C 
HETATM    7  C   UNL     1       3.359  29.071  49.755  1.00  0.00    -0.002 C 
HETATM    8  C   UNL     1       4.265  27.813  49.835  1.00  0.00     0.052 C 
HETATM    9  C   UNL     1       5.020  27.745  53.555  1.00  0.00     0.073 C 
ENDROOT
BRANCH   9  10
HETATM   10  C   UNL     1       5.021  28.296  54.925  1.00  0.00     0.259 C 
HETATM   11  N   UNL     1       5.522  29.559  55.081  1.00  0.00    -0.320 N 
HETATM   12  H   UNL     1       6.270  29.627  55.767  1.00  0.00     0.169 HD
HETATM   13  O   UNL     1       4.808  27.571  55.901  1.00  0.00    -0.267 OA
BRANCH  11  14
HETATM   14  C   UNL     1       4.751  30.749  55.099  1.00  0.00     0.068 A 
HETATM   15  C   UNL     1       4.520  31.334  56.361  1.00  0.00     0.097 A 
HETATM   16  C   UNL     1       3.840  32.553  56.452  1.00  0.00     0.075 A 
HETATM   17  C   UNL     1       3.397  33.192  55.293  1.00  0.00     0.070 A 
HETATM   18  C   UNL     1       3.597  32.584  54.049  1.00  0.00     0.039 A 
HETATM   19  C   UNL     1       4.269  31.364  53.945  1.00  0.00     0.035 A 
BRANCH  15  20
HETATM   20  O   UNL     1       5.007  30.623  57.435  1.00  0.00    -0.354 OA
HETATM   21  C   UNL     1       6.006  31.256  58.226  1.00  0.00     0.210 C 
ENDBRANCH  15  20
BRANCH  17  22
HETATM   22  O   UNL     1       2.751  34.397  55.241  1.00  0.00    -0.356 OA
HETATM   23  C   UNL     1       2.116  34.841  56.435  1.00  0.00     0.210 C 
ENDBRANCH  17  22
ENDBRANCH  11  14
ENDBRANCH   9  10
BRANCH   1  24
HETATM   24  N   UNL     1       6.897  26.183  54.029  1.00  0.00    -0.319 N 
HETATM   25  C   UNL     1       6.733  25.013  54.736  1.00  0.00     0.248 C 
HETATM   26  O   UNL     1       5.679  24.428  54.986  1.00  0.00    -0.271 OA
HETATM   27  H   UNL     1       7.662  26.817  54.272  1.00  0.00     0.169 HD
BRANCH  25  28
HETATM   28  C   UNL     1       8.043  24.423  55.267  1.00  0.00     0.337 C 
BRANCH  28  29
HETATM   29  N   UNL     1       8.059  22.893  55.124  1.00  0.00    -0.062 N 
HETATM   30  C   UNL     1       9.113  22.408  54.150  1.00  0.00     0.239 C 
HETATM   31  C   UNL     1       8.935  20.908  53.888  1.00  0.00     0.007 C 
HETATM   32  C   UNL     1       7.677  20.611  53.064  1.00  0.00     0.011 C 
HETATM   33  C   UNL     1       8.945  20.126  55.208  1.00  0.00     0.007 C 
HETATM   34  C   UNL     1       7.960  20.685  56.232  1.00  0.00     0.028 C 
HETATM   35  C   UNL     1       8.133  22.183  56.443  1.00  0.00     0.235 C 
HETATM   36  H   UNL     1       7.150  22.690  54.677  1.00  0.00     0.280 HD
ENDBRANCH  28  29
ENDBRANCH  25  28
ENDBRANCH   1  24
BRANCH   7  37
HETATM   37  C   UNL     1       4.104  30.442  49.503  1.00  0.00    -0.047 C 
HETATM   38  C   UNL     1       5.511  30.543  50.120  1.00  0.00     0.015 C 
HETATM   39  C   UNL     1       4.261  30.662  47.979  1.00  0.00     0.015 C 
HETATM   40  C   UNL     1       3.260  31.617  50.044  1.00  0.00     0.015 C 
ENDBRANCH   7  37
TORSDOF 8
ENDMDL
MODEL 10
REMARK VINA RESULT:      -8.0      2.406      3.345
REMARK  8 active torsions:
REMARK  status: ('A' for Active; 'I' for Inactive)
REMARK    1  A    between atoms: N_4  and  C_6 
REMARK    2  A    between atoms: C_6  and  C_7 
REMARK       I    between atoms: C_7  and  N_8 
REMARK    3  A    between atoms: N_8  and  C_9 
REMARK    4  A    between atoms: C_15  and  C_16 
REMARK    5  A    between atoms: C_21  and  C_22 
REMARK       I    between atoms: C_22  and  N_23 
REMARK    6  A    between atoms: N_23  and  C_24 
REMARK    7  A    between atoms: C_25  and  O_26 
REMARK    8  A    between atoms: C_29  and  O_30 
ROOT
HETATM    1  C   UNL     1       6.728  26.591  54.980  1.00  0.00     0.093 C 
HETATM    2  S   UNL     1       5.314  25.871  54.385  1.00  0.00    -0.075 SA
HETATM    3  C   UNL     1       4.705  27.361  53.860  1.00  0.00    -0.008 C 
HETATM    4  C   UNL     1       5.504  28.428  54.233  1.00  0.00    -0.026 C 
HETATM    5  C   UNL     1       5.050  29.837  53.976  1.00  0.00     0.041 C 
HETATM    6  C   UNL     1       3.592  29.916  53.510  1.00  0.00     0.010 C 
HETATM    7  C   UNL     1       3.184  28.841  52.475  1.00  0.00    -0.002 C 
HETATM    8  C   UNL     1       3.409  27.440  53.104  1.00  0.00     0.052 C 
HETATM    9  C   UNL     1       6.773  27.969  54.782  1.00  0.00     0.073 C 
ENDROOT
BRANCH   9  10
HETATM   10  C   UNL     1       8.013  28.716  55.076  1.00  0.00     0.259 C 
HETATM   11  N   UNL     1       7.871  29.919  55.710  1.00  0.00    -0.320 N 
HETATM   12  H   UNL     1       8.306  30.699  55.222  1.00  0.00     0.169 HD
HETATM   13  O   UNL     1       9.087  28.388  54.565  1.00  0.00    -0.267 OA
BRANCH  11  14
HETATM   14  C   UNL     1       7.965  30.123  57.110  1.00  0.00     0.068 A 
HETATM   15  C   UNL     1       9.251  30.381  57.628  1.00  0.00     0.097 A 
HETATM   16  C   UNL     1       9.412  30.674  58.985  1.00  0.00     0.075 A 
HETATM   17  C   UNL     1       8.298  30.718  59.826  1.00  0.00     0.070 A 
HETATM   18  C   UNL     1       7.032  30.422  59.311  1.00  0.00     0.039 A 
HETATM   19  C   UNL     1       6.858  30.121  57.958  1.00  0.00     0.035 A 
BRANCH  15  20
HETATM   20  O   UNL     1      10.275  30.319  56.709  1.00  0.00    -0.354 OA
HETATM   21  C   UNL     1      11.389  29.498  57.040  1.00  0.00     0.210 C 
ENDBRANCH  15  20
BRANCH  17  22
HETATM   22  O   UNL     1       8.314  31.023  61.159  1.00  0.00    -0.356 OA
HETATM   23  C   UNL     1       9.348  30.438  61.943  1.00  0.00     0.210 C 
ENDBRANCH  17  22
ENDBRANCH  11  14
ENDBRANCH   9  10
BRANCH   1  24
HETATM   24  N   UNL     1       7.757  25.787  55.457  1.00  0.00    -0.319 N 
HETATM   25  C   UNL     1       7.783  25.194  56.700  1.00  0.00     0.248 C 
HETATM   26  O   UNL     1       7.085  25.465  57.677  1.00  0.00    -0.271 OA
HETATM   27  H   UNL     1       8.620  25.857  54.912  1.00  0.00     0.169 HD
BRANCH  25  28
HETATM   28  C   UNL     1       8.835  24.088  56.834  1.00  0.00     0.337 C 
BRANCH  28  29
HETATM   29  N   UNL     1       8.456  22.859  55.993  1.00  0.00    -0.062 N 
HETATM   30  C   UNL     1       9.429  22.604  54.860  1.00  0.00     0.239 C 
HETATM   31  C   UNL     1       8.883  21.509  53.937  1.00  0.00     0.007 C 
HETATM   32  C   UNL     1       7.673  21.987  53.125  1.00  0.00     0.011 C 
HETATM   33  C   UNL     1       8.562  20.240  54.737  1.00  0.00     0.007 C 
HETATM   34  C   UNL     1       7.671  20.515  55.946  1.00  0.00     0.028 C 
HETATM   35  C   UNL     1       8.216  21.633  56.824  1.00  0.00     0.235 C 
HETATM   36  H   UNL     1       7.572  23.147  55.543  1.00  0.00     0.280 HD
ENDBRANCH  28  29
ENDBRANCH  25  28
ENDBRANCH   1  24
BRANCH   7  37
HETATM   37  C   UNL     1       3.745  29.035  51.010  1.00  0.00    -0.047 C 
HETATM   38  C   UNL     1       4.848  28.044  50.597  1.00  0.00     0.015 C 
HETATM   39  C   UNL     1       2.586  28.872  49.997  1.00  0.00     0.015 C 
HETATM   40  C   UNL     1       4.299  30.467  50.835  1.00  0.00     0.015 C 
ENDBRANCH   7  37
TORSDOF 8
ENDMDL
