MODEL 1
REMARK VINA RESULT:      -9.4      0.000      0.000
REMARK  6 active torsions:
REMARK  status: ('A' for Active; 'I' for Inactive)
REMARK    1  A    between atoms: C_2  and  O_3 
REMARK    2  A    between atoms: O_3  and  C_4 
REMARK    3  A    between atoms: C_5  and  O_6 
REMARK    4  A    between atoms: C_9  and  C_10 
REMARK    5  A    between atoms: C_19  and  C_20 
REMARK    6  A    between atoms: C_22  and  O_23 
ROOT
HETATM    1  C   UNL     1       6.758  27.966  53.681  1.00  0.00     0.156 A 
HETATM    2  N   UNL     1       5.783  28.922  53.127  1.00  0.00    -0.343 N 
HETATM    3  C   UNL     1       4.600  28.342  52.680  1.00  0.00     0.271 A 
HETATM    4  O   UNL     1       3.643  28.901  52.183  1.00  0.00    -0.266 OA
HETATM    5  C   UNL     1       4.783  26.970  52.962  1.00  0.00     0.128 A 
HETATM    6  C   UNL     1       5.989  26.711  53.545  1.00  0.00     0.034 A 
HETATM    7  N   UNL     1       4.115  25.812  52.864  1.00  0.00    -0.272 N 
HETATM    8  H   UNL     1       3.189  25.633  52.489  1.00  0.00     0.189 HD
HETATM    9  N   UNL     1       4.835  24.782  53.374  1.00  0.00    -0.173 NA
HETATM   10  C   UNL     1       6.003  25.330  53.795  1.00  0.00     0.098 A 
HETATM   11  H   UNL     1       5.927  29.920  53.084  1.00  0.00     0.163 HD
ENDROOT
BRANCH   1  12
HETATM   12  C   UNL     1       7.063  28.216  55.136  1.00  0.00    -0.028 A 
HETATM   13  C   UNL     1       6.063  28.291  56.127  1.00  0.00     0.012 A 
HETATM   14  C   UNL     1       6.385  28.561  57.460  1.00  0.00     0.040 A 
HETATM   15  C   UNL     1       7.709  28.767  57.815  1.00  0.00     0.099 A 
HETATM   16  C   UNL     1       8.717  28.666  56.860  1.00  0.00     0.102 A 
HETATM   17  C   UNL     1       8.399  28.418  55.526  1.00  0.00     0.049 A 
BRANCH  15  18
HETATM   18  O   UNL     1       7.994  29.093  59.109  1.00  0.00    -0.358 OA
HETATM   19  H   UNL     1       8.702  29.761  59.067  1.00  0.00     0.218 HD
ENDBRANCH  15  18
BRANCH  16  20
HETATM   20  O   UNL     1      10.028  28.869  57.197  1.00  0.00    -0.349 OA
BRANCH  20  21
HETATM   21  C   UNL     1      10.496  30.120  56.669  1.00  0.00     0.171 C 
HETATM   22  C   UNL     1      10.566  31.115  57.813  1.00  0.00     0.034 C 
ENDBRANCH  20  21
ENDBRANCH  16  20
ENDBRANCH   1  12
BRANCH  10  23
HETATM   23  C   UNL     1       7.039  24.514  54.430  1.00  0.00    -0.002 A 
HETATM   24  C   UNL     1       7.571  23.405  53.749  1.00  0.00     0.050 A 
HETATM   25  C   UNL     1       8.544  22.601  54.343  1.00  0.00     0.069 A 
HETATM   26  C   UNL     1       8.991  22.906  55.630  1.00  0.00     0.037 A 
HETATM   27  C   UNL     1       8.483  24.009  56.314  1.00  0.00     0.004 A 
HETATM   28  C   UNL     1       7.512  24.814  55.715  1.00  0.00     0.014 A 
BRANCH  25  29
HETATM   29  O   UNL     1       9.127  21.498  53.781  1.00  0.00    -0.356 OA
HETATM   30  C   UNL     1       8.289  20.663  52.991  1.00  0.00     0.210 C 
ENDBRANCH  25  29
ENDBRANCH  10  23
TORSDOF 6
ENDMDL
MODEL 2
REMARK VINA RESULT:      -8.8      1.589      5.425
REMARK  6 active torsions:
REMARK  status: ('A' for Active; 'I' for Inactive)
REMARK    1  A    between atoms: C_2  and  O_3 
REMARK    2  A    between atoms: O_3  and  C_4 
REMARK    3  A    between atoms: C_5  and  O_6 
REMARK    4  A    between atoms: C_9  and  C_10 
REMARK    5  A    between atoms: C_19  and  C_20 
REMARK    6  A    between atoms: C_22  and  O_23 
ROOT
HETATM    1  C   UNL     1       5.026  25.504  52.719  1.00  0.00     0.156 A 
HETATM    2  N   UNL     1       4.671  25.220  51.316  1.00  0.00    -0.343 N 
HETATM    3  C   UNL     1       4.821  26.303  50.456  1.00  0.00     0.271 A 
HETATM    4  O   UNL     1       4.597  26.336  49.262  1.00  0.00    -0.266 OA
HETATM    5  C   UNL     1       5.306  27.326  51.301  1.00  0.00     0.128 A 
HETATM    6  C   UNL     1       5.453  26.913  52.593  1.00  0.00     0.034 A 
HETATM    7  N   UNL     1       5.710  28.602  51.226  1.00  0.00    -0.272 N 
HETATM    8  H   UNL     1       5.744  29.221  50.422  1.00  0.00     0.189 HD
HETATM    9  N   UNL     1       6.133  29.057  52.431  1.00  0.00    -0.173 NA
HETATM   10  C   UNL     1       5.972  28.017  53.289  1.00  0.00     0.098 A 
HETATM   11  H   UNL     1       4.365  24.320  50.979  1.00  0.00     0.163 HD
ENDROOT
BRANCH   1  12
HETATM   12  C   UNL     1       6.180  24.670  53.212  1.00  0.00    -0.028 A 
HETATM   13  C   UNL     1       7.142  24.106  52.350  1.00  0.00     0.012 A 
HETATM   14  C   UNL     1       8.177  23.307  52.845  1.00  0.00     0.040 A 
HETATM   15  C   UNL     1       8.256  23.057  54.207  1.00  0.00     0.099 A 
HETATM   16  C   UNL     1       7.336  23.630  55.081  1.00  0.00     0.102 A 
HETATM   17  C   UNL     1       6.290  24.409  54.590  1.00  0.00     0.049 A 
BRANCH  15  18
HETATM   18  O   UNL     1       9.236  22.222  54.660  1.00  0.00    -0.358 OA
HETATM   19  H   UNL     1       8.791  21.581  55.245  1.00  0.00     0.218 HD
ENDBRANCH  15  18
BRANCH  16  20
HETATM   20  O   UNL     1       7.401  23.388  56.427  1.00  0.00    -0.349 OA
BRANCH  20  21
HETATM   21  C   UNL     1       7.429  24.623  57.160  1.00  0.00     0.171 C 
HETATM   22  C   UNL     1       8.880  24.991  57.405  1.00  0.00     0.034 C 
ENDBRANCH  20  21
ENDBRANCH  16  20
ENDBRANCH   1  12
BRANCH  10  23
HETATM   23  C   UNL     1       6.348  28.128  54.699  1.00  0.00    -0.002 A 
HETATM   24  C   UNL     1       7.686  28.387  55.046  1.00  0.00     0.050 A 
HETATM   25  C   UNL     1       8.072  28.477  56.384  1.00  0.00     0.069 A 
HETATM   26  C   UNL     1       7.114  28.307  57.385  1.00  0.00     0.037 A 
HETATM   27  C   UNL     1       5.781  28.063  57.056  1.00  0.00     0.004 A 
HETATM   28  C   UNL     1       5.398  27.977  55.717  1.00  0.00     0.014 A 
BRANCH  25  29
HETATM   29  O   UNL     1       9.340  28.718  56.840  1.00  0.00    -0.356 OA
HETATM   30  C   UNL     1      10.110  29.670  56.115  1.00  0.00     0.210 C 
ENDBRANCH  25  29
ENDBRANCH  10  23
TORSDOF 6
ENDMDL
MODEL 3
REMARK VINA RESULT:      -8.6      1.080      2.219
REMARK  6 active torsions:
REMARK  status: ('A' for Active; 'I' for Inactive)
REMARK    1  A    between atoms: C_2  and  O_3 
REMARK    2  A    between atoms: O_3  and  C_4 
REMARK    3  A    between atoms: C_5  and  O_6 
REMARK    4  A    between atoms: C_9  and  C_10 
REMARK    5  A    between atoms: C_19  and  C_20 
REMARK    6  A    between atoms: C_22  and  O_23 
ROOT
HETATM    1  C   UNL     1       6.897  27.975  53.516  1.00  0.00     0.156 A 
HETATM    2  N   UNL     1       5.992  28.940  52.866  1.00  0.00    -0.343 N 
HETATM    3  C   UNL     1       4.789  28.395  52.431  1.00  0.00     0.271 A 
HETATM    4  O   UNL     1       3.877  28.968  51.868  1.00  0.00    -0.266 OA
HETATM    5  C   UNL     1       4.885  27.041  52.819  1.00  0.00     0.128 A 
HETATM    6  C   UNL     1       6.060  26.759  53.453  1.00  0.00     0.034 A 
HETATM    7  N   UNL     1       4.153  25.918  52.789  1.00  0.00    -0.272 N 
HETATM    8  H   UNL     1       3.226  25.763  52.403  1.00  0.00     0.189 HD
HETATM    9  N   UNL     1       4.799  24.890  53.394  1.00  0.00    -0.173 NA
HETATM   10  C   UNL     1       5.987  25.401  53.805  1.00  0.00     0.098 A 
HETATM   11  H   UNL     1       6.195  29.922  52.753  1.00  0.00     0.163 HD
ENDROOT
BRANCH   1  12
HETATM   12  C   UNL     1       7.182  28.316  54.957  1.00  0.00    -0.028 A 
HETATM   13  C   UNL     1       8.471  28.237  55.522  1.00  0.00     0.012 A 
HETATM   14  C   UNL     1       8.687  28.527  56.872  1.00  0.00     0.040 A 
HETATM   15  C   UNL     1       7.615  28.891  57.673  1.00  0.00     0.099 A 
HETATM   16  C   UNL     1       6.339  29.007  57.129  1.00  0.00     0.102 A 
HETATM   17  C   UNL     1       6.115  28.698  55.789  1.00  0.00     0.049 A 
BRANCH  15  18
HETATM   18  O   UNL     1       7.839  29.107  59.002  1.00  0.00    -0.358 OA
HETATM   19  H   UNL     1       6.999  28.899  59.451  1.00  0.00     0.218 HD
ENDBRANCH  15  18
BRANCH  16  20
HETATM   20  O   UNL     1       5.272  29.363  57.909  1.00  0.00    -0.349 OA
BRANCH  20  21
HETATM   21  C   UNL     1       4.861  30.708  57.619  1.00  0.00     0.171 C 
HETATM   22  C   UNL     1       3.359  30.702  57.400  1.00  0.00     0.034 C 
ENDBRANCH  20  21
ENDBRANCH  16  20
ENDBRANCH   1  12
BRANCH  10  23
HETATM   23  C   UNL     1       6.959  24.579  54.527  1.00  0.00    -0.002 A 
HETATM   24  C   UNL     1       7.600  23.516  53.868  1.00  0.00     0.050 A 
HETATM   25  C   UNL     1       8.514  22.705  54.542  1.00  0.00     0.069 A 
HETATM   26  C   UNL     1       8.792  22.958  55.887  1.00  0.00     0.037 A 
HETATM   27  C   UNL     1       8.173  24.017  56.551  1.00  0.00     0.004 A 
HETATM   28  C   UNL     1       7.262  24.827  55.872  1.00  0.00     0.014 A 
BRANCH  25  29
HETATM   29  O   UNL     1       9.193  21.642  54.008  1.00  0.00    -0.356 OA
HETATM   30  C   UNL     1       8.448  20.761  53.177  1.00  0.00     0.210 C 
ENDBRANCH  25  29
ENDBRANCH  10  23
TORSDOF 6
ENDMDL
MODEL 4
REMARK VINA RESULT:      -8.6      2.597      5.038
REMARK  6 active torsions:
REMARK  status: ('A' for Active; 'I' for Inactive)
REMARK    1  A    between atoms: C_2  and  O_3 
REMARK    2  A    between atoms: O_3  and  C_4 
REMARK    3  A    between atoms: C_5  and  O_6 
REMARK    4  A    between atoms: C_9  and  C_10 
REMARK    5  A    between atoms: C_19  and  C_20 
REMARK    6  A    between atoms: C_22  and  O_23 
ROOT
HETATM    1  C   UNL     1       4.864  26.523  55.162  1.00  0.00     0.156 A 
HETATM    2  N   UNL     1       4.498  27.769  55.860  1.00  0.00    -0.343 N 
HETATM    3  C   UNL     1       5.431  28.196  56.799  1.00  0.00     0.271 A 
HETATM    4  O   UNL     1       5.372  29.182  57.507  1.00  0.00    -0.266 OA
HETATM    5  C   UNL     1       6.452  27.224  56.709  1.00  0.00     0.128 A 
HETATM    6  C   UNL     1       6.180  26.262  55.781  1.00  0.00     0.034 A 
HETATM    7  N   UNL     1       7.653  26.956  57.242  1.00  0.00    -0.272 N 
HETATM    8  H   UNL     1       8.170  27.464  57.953  1.00  0.00     0.189 HD
HETATM    9  N   UNL     1       8.201  25.845  56.690  1.00  0.00    -0.173 NA
HETATM   10  C   UNL     1       7.291  25.403  55.785  1.00  0.00     0.098 A 
HETATM   11  H   UNL     1       3.659  28.298  55.675  1.00  0.00     0.163 HD
ENDROOT
BRANCH   1  12
HETATM   12  C   UNL     1       5.035  26.712  53.676  1.00  0.00    -0.028 A 
HETATM   13  C   UNL     1       4.877  25.663  52.747  1.00  0.00     0.012 A 
HETATM   14  C   UNL     1       5.081  25.872  51.380  1.00  0.00     0.040 A 
HETATM   15  C   UNL     1       5.453  27.129  50.928  1.00  0.00     0.099 A 
HETATM   16  C   UNL     1       5.583  28.187  51.823  1.00  0.00     0.102 A 
HETATM   17  C   UNL     1       5.402  27.980  53.189  1.00  0.00     0.049 A 
BRANCH  15  18
HETATM   18  O   UNL     1       5.709  27.293  49.598  1.00  0.00    -0.358 OA
HETATM   19  H   UNL     1       5.258  28.118  49.339  1.00  0.00     0.218 HD
ENDBRANCH  15  18
BRANCH  16  20
HETATM   20  O   UNL     1       5.953  29.432  51.390  1.00  0.00    -0.349 OA
BRANCH  20  21
HETATM   21  C   UNL     1       4.801  30.279  51.247  1.00  0.00     0.171 C 
HETATM   22  C   UNL     1       4.775  30.798  49.822  1.00  0.00     0.034 C 
ENDBRANCH  20  21
ENDBRANCH  16  20
ENDBRANCH   1  12
BRANCH  10  23
HETATM   23  C   UNL     1       7.548  24.217  54.966  1.00  0.00    -0.002 A 
HETATM   24  C   UNL     1       7.480  22.939  55.548  1.00  0.00     0.050 A 
HETATM   25  C   UNL     1       7.742  21.796  54.793  1.00  0.00     0.069 A 
HETATM   26  C   UNL     1       8.073  21.929  53.443  1.00  0.00     0.037 A 
HETATM   27  C   UNL     1       8.132  23.189  52.848  1.00  0.00     0.004 A 
HETATM   28  C   UNL     1       7.867  24.330  53.607  1.00  0.00     0.014 A 
BRANCH  25  29
HETATM   29  O   UNL     1       7.711  20.506  55.250  1.00  0.00    -0.356 OA
HETATM   30  C   UNL     1       8.737  20.126  56.160  1.00  0.00     0.210 C 
ENDBRANCH  25  29
ENDBRANCH  10  23
TORSDOF 6
ENDMDL
MODEL 5
REMARK VINA RESULT:      -8.4      1.903      2.781
REMARK  6 active torsions:
REMARK  status: ('A' for Active; 'I' for Inactive)
REMARK    1  A    between atoms: C_2  and  O_3 
REMARK    2  A    between atoms: O_3  and  C_4 
REMARK    3  A    between atoms: C_5  and  O_6 
REMARK    4  A    between atoms: C_9  and  C_10 
REMARK    5  A    between atoms: C_19  and  C_20 
REMARK    6  A    between atoms: C_22  and  O_23 
ROOT
HETATM    1  C   UNL     1       6.215  28.451  52.578  1.00  0.00     0.156 A 
HETATM    2  N   UNL     1       5.538  29.427  51.706  1.00  0.00    -0.343 N 
HETATM    3  C   UNL     1       4.761  28.857  50.702  1.00  0.00     0.271 A 
HETATM    4  O   UNL     1       4.106  29.433  49.856  1.00  0.00    -0.266 OA
HETATM    5  C   UNL     1       4.908  27.470  50.924  1.00  0.00     0.128 A 
HETATM    6  C   UNL     1       5.714  27.192  51.988  1.00  0.00     0.034 A 
HETATM    7  N   UNL     1       4.469  26.306  50.423  1.00  0.00    -0.272 N 
HETATM    8  H   UNL     1       3.848  26.136  49.637  1.00  0.00     0.189 HD
HETATM    9  N   UNL     1       4.950  25.253  51.128  1.00  0.00    -0.173 NA
HETATM   10  C   UNL     1       5.729  25.792  52.100  1.00  0.00     0.098 A 
HETATM   11  H   UNL     1       5.597  30.427  51.820  1.00  0.00     0.163 HD
ENDROOT
BRANCH   1  12
HETATM   12  C   UNL     1       5.776  28.544  54.017  1.00  0.00    -0.028 A 
HETATM   13  C   UNL     1       4.422  28.498  54.409  1.00  0.00     0.012 A 
HETATM   14  C   UNL     1       4.054  28.626  55.751  1.00  0.00     0.040 A 
HETATM   15  C   UNL     1       5.035  28.809  56.715  1.00  0.00     0.099 A 
HETATM   16  C   UNL     1       6.379  28.825  56.354  1.00  0.00     0.102 A 
HETATM   17  C   UNL     1       6.750  28.720  55.015  1.00  0.00     0.049 A 
BRANCH  15  18
HETATM   18  O   UNL     1       4.648  28.995  58.010  1.00  0.00    -0.358 OA
HETATM   19  H   UNL     1       4.016  28.279  58.205  1.00  0.00     0.218 HD
ENDBRANCH  15  18
BRANCH  16  20
HETATM   20  O   UNL     1       7.357  29.007  57.295  1.00  0.00    -0.349 OA
BRANCH  20  21
HETATM   21  C   UNL     1       8.490  28.172  57.014  1.00  0.00     0.171 C 
HETATM   22  C   UNL     1       9.736  29.036  57.072  1.00  0.00     0.034 C 
ENDBRANCH  20  21
ENDBRANCH  16  20
ENDBRANCH   1  12
BRANCH  10  23
HETATM   23  C   UNL     1       6.410  24.949  53.083  1.00  0.00    -0.002 A 
HETATM   24  C   UNL     1       6.129  25.106  54.452  1.00  0.00     0.050 A 
HETATM   25  C   UNL     1       6.781  24.329  55.409  1.00  0.00     0.069 A 
HETATM   26  C   UNL     1       7.723  23.384  54.997  1.00  0.00     0.037 A 
HETATM   27  C   UNL     1       8.004  23.208  53.643  1.00  0.00     0.004 A 
HETATM   28  C   UNL     1       7.347  23.985  52.688  1.00  0.00     0.014 A 
BRANCH  25  29
HETATM   29  O   UNL     1       6.594  24.397  56.764  1.00  0.00    -0.356 OA
HETATM   30  C   UNL     1       5.562  25.261  57.224  1.00  0.00     0.210 C 
ENDBRANCH  25  29
ENDBRANCH  10  23
TORSDOF 6
ENDMDL
MODEL 6
REMARK VINA RESULT:      -8.4      1.496      6.042
REMARK  6 active torsions:
REMARK  status: ('A' for Active; 'I' for Inactive)
REMARK    1  A    between atoms: C_2  and  O_3 
REMARK    2  A    between atoms: O_3  and  C_4 
REMARK    3  A    between atoms: C_5  and  O_6 
REMARK    4  A    between atoms: C_9  and  C_10 
REMARK    5  A    between atoms: C_19  and  C_20 
REMARK    6  A    between atoms: C_22  and  O_23 
ROOT
HETATM    1  C   UNL     1       4.800  25.581  53.251  1.00  0.00     0.156 A 
HETATM    2  N   UNL     1       4.580  25.060  51.889  1.00  0.00    -0.343 N 
HETATM    3  C   UNL     1       4.852  25.972  50.875  1.00  0.00     0.271 A 
HETATM    4  O   UNL     1       4.752  25.798  49.676  1.00  0.00    -0.266 OA
HETATM    5  C   UNL     1       5.284  27.120  51.576  1.00  0.00     0.128 A 
HETATM    6  C   UNL     1       5.284  26.939  52.928  1.00  0.00     0.034 A 
HETATM    7  N   UNL     1       5.735  28.357  51.324  1.00  0.00    -0.272 N 
HETATM    8  H   UNL     1       5.872  28.824  50.433  1.00  0.00     0.189 HD
HETATM    9  N   UNL     1       6.049  29.011  52.470  1.00  0.00    -0.173 NA
HETATM   10  C   UNL     1       5.768  28.140  53.473  1.00  0.00     0.098 A 
HETATM   11  H   UNL     1       4.279  24.120  51.683  1.00  0.00     0.163 HD
ENDROOT
BRANCH   1  12
HETATM   12  C   UNL     1       5.870  24.829  54.001  1.00  0.00    -0.028 A 
HETATM   13  C   UNL     1       6.065  24.957  55.391  1.00  0.00     0.012 A 
HETATM   14  C   UNL     1       7.093  24.270  56.043  1.00  0.00     0.040 A 
HETATM   15  C   UNL     1       7.942  23.454  55.311  1.00  0.00     0.099 A 
HETATM   16  C   UNL     1       7.748  23.287  53.942  1.00  0.00     0.102 A 
HETATM   17  C   UNL     1       6.738  23.987  53.284  1.00  0.00     0.049 A 
BRANCH  15  18
HETATM   18  O   UNL     1       8.977  22.844  55.957  1.00  0.00    -0.358 OA
HETATM   19  H   UNL     1       9.375  22.236  55.308  1.00  0.00     0.218 HD
ENDBRANCH  15  18
BRANCH  16  20
HETATM   20  O   UNL     1       8.580  22.486  53.207  1.00  0.00    -0.349 OA
BRANCH  20  21
HETATM   21  C   UNL     1       7.951  21.225  52.929  1.00  0.00     0.171 C 
HETATM   22  C   UNL     1       8.688  20.152  53.708  1.00  0.00     0.034 C 
ENDBRANCH  20  21
ENDBRANCH  16  20
ENDBRANCH   1  12
BRANCH  10  23
HETATM   23  C   UNL     1       6.002  28.493  54.874  1.00  0.00    -0.002 A 
HETATM   24  C   UNL     1       7.305  28.794  55.309  1.00  0.00     0.050 A 
HETATM   25  C   UNL     1       7.556  29.112  56.644  1.00  0.00     0.069 A 
HETATM   26  C   UNL     1       6.497  29.130  57.553  1.00  0.00     0.037 A 
HETATM   27  C   UNL     1       5.198  28.846  57.135  1.00  0.00     0.004 A 
HETATM   28  C   UNL     1       4.950  28.531  55.798  1.00  0.00     0.014 A 
BRANCH  25  29
HETATM   29  O   UNL     1       8.778  29.416  57.181  1.00  0.00    -0.356 OA
HETATM   30  C   UNL     1       8.778  29.996  58.480  1.00  0.00     0.210 C 
ENDBRANCH  25  29
ENDBRANCH  10  23
TORSDOF 6
ENDMDL
MODEL 7
REMARK VINA RESULT:      -8.2     10.451     13.847
REMARK  6 active torsions:
REMARK  status: ('A' for Active; 'I' for Inactive)
REMARK    1  A    between atoms: C_2  and  O_3 
REMARK    2  A    between atoms: O_3  and  C_4 
REMARK    3  A    between atoms: C_5  and  O_6 
REMARK    4  A    between atoms: C_9  and  C_10 
REMARK    5  A    between atoms: C_19  and  C_20 
REMARK    6  A    between atoms: C_22  and  O_23 
ROOT
HETATM    1  C   UNL     1       6.484  34.425  66.073  1.00  0.00     0.156 A 
HETATM    2  N   UNL     1       6.415  33.705  67.358  1.00  0.00    -0.343 N 
HETATM    3  C   UNL     1       5.227  33.891  68.056  1.00  0.00     0.271 A 
HETATM    4  O   UNL     1       4.918  33.417  69.132  1.00  0.00    -0.266 OA
HETATM    5  C   UNL     1       4.479  34.738  67.209  1.00  0.00     0.128 A 
HETATM    6  C   UNL     1       5.148  35.055  66.063  1.00  0.00     0.034 A 
HETATM    7  N   UNL     1       3.273  35.321  67.157  1.00  0.00    -0.272 N 
HETATM    8  H   UNL     1       2.515  35.293  67.833  1.00  0.00     0.189 HD
HETATM    9  N   UNL     1       3.108  36.014  66.004  1.00  0.00    -0.173 NA
HETATM   10  C   UNL     1       4.270  35.860  65.319  1.00  0.00     0.098 A 
HETATM   11  H   UNL     1       7.144  33.104  67.712  1.00  0.00     0.163 HD
ENDROOT
BRANCH   1  12
HETATM   12  C   UNL     1       6.615  33.501  64.889  1.00  0.00    -0.028 A 
HETATM   13  C   UNL     1       7.859  33.142  64.331  1.00  0.00     0.012 A 
HETATM   14  C   UNL     1       7.936  32.312  63.209  1.00  0.00     0.040 A 
HETATM   15  C   UNL     1       6.769  31.838  62.629  1.00  0.00     0.099 A 
HETATM   16  C   UNL     1       5.531  32.152  63.182  1.00  0.00     0.102 A 
HETATM   17  C   UNL     1       5.448  32.997  64.287  1.00  0.00     0.049 A 
BRANCH  15  18
HETATM   18  O   UNL     1       6.865  31.082  61.497  1.00  0.00    -0.358 OA
HETATM   19  H   UNL     1       6.412  31.589  60.798  1.00  0.00     0.218 HD
ENDBRANCH  15  18
BRANCH  16  20
HETATM   20  O   UNL     1       4.371  31.693  62.617  1.00  0.00    -0.349 OA
BRANCH  20  21
HETATM   21  C   UNL     1       3.534  32.791  62.220  1.00  0.00     0.171 C 
HETATM   22  C   UNL     1       3.943  33.209  60.820  1.00  0.00     0.034 C 
ENDBRANCH  20  21
ENDBRANCH  16  20
ENDBRANCH   1  12
BRANCH  10  23
HETATM   23  C   UNL     1       4.458  36.458  63.997  1.00  0.00    -0.002 A 
HETATM   24  C   UNL     1       3.438  36.360  63.034  1.00  0.00     0.050 A 
HETATM   25  C   UNL     1       3.603  36.904  61.760  1.00  0.00     0.069 A 
HETATM   26  C   UNL     1       4.797  37.554  61.444  1.00  0.00     0.037 A 
HETATM   27  C   UNL     1       5.813  37.671  62.391  1.00  0.00     0.004 A 
HETATM   28  C   UNL     1       5.643  37.128  63.665  1.00  0.00     0.014 A 
BRANCH  25  29
HETATM   29  O   UNL     1       2.686  36.865  60.744  1.00  0.00    -0.356 OA
HETATM   30  C   UNL     1       3.201  36.793  59.420  1.00  0.00     0.210 C 
ENDBRANCH  25  29
ENDBRANCH  10  23
TORSDOF 6
ENDMDL
MODEL 8
REMARK VINA RESULT:      -8.2      2.328      6.422
REMARK  6 active torsions:
REMARK  status: ('A' for Active; 'I' for Inactive)
REMARK    1  A    between atoms: C_2  and  O_3 
REMARK    2  A    between atoms: O_3  and  C_4 
REMARK    3  A    between atoms: C_5  and  O_6 
REMARK    4  A    between atoms: C_9  and  C_10 
REMARK    5  A    between atoms: C_19  and  C_20 
REMARK    6  A    between atoms: C_22  and  O_23 
ROOT
HETATM    1  C   UNL     1       7.524  27.208  54.445  1.00  0.00     0.156 A 
HETATM    2  N   UNL     1       7.700  27.406  55.895  1.00  0.00    -0.343 N 
HETATM    3  C   UNL     1       6.591  27.942  56.540  1.00  0.00     0.271 A 
HETATM    4  O   UNL     1       6.476  28.203  57.722  1.00  0.00    -0.266 OA
HETATM    5  C   UNL     1       5.647  28.086  55.500  1.00  0.00     0.128 A 
HETATM    6  C   UNL     1       6.128  27.668  54.294  1.00  0.00     0.034 A 
HETATM    7  N   UNL     1       4.380  28.487  55.323  1.00  0.00    -0.272 N 
HETATM    8  H   UNL     1       3.718  28.850  56.002  1.00  0.00     0.189 HD
HETATM    9  N   UNL     1       3.992  28.340  54.032  1.00  0.00    -0.173 NA
HETATM   10  C   UNL     1       5.073  27.837  53.383  1.00  0.00     0.098 A 
HETATM   11  H   UNL     1       8.536  27.160  56.404  1.00  0.00     0.163 HD
ENDROOT
BRANCH   1  12
HETATM   12  C   UNL     1       7.626  25.762  54.033  1.00  0.00    -0.028 A 
HETATM   13  C   UNL     1       7.891  25.360  52.708  1.00  0.00     0.012 A 
HETATM   14  C   UNL     1       7.941  24.007  52.360  1.00  0.00     0.040 A 
HETATM   15  C   UNL     1       7.719  23.042  53.331  1.00  0.00     0.099 A 
HETATM   16  C   UNL     1       7.488  23.416  54.652  1.00  0.00     0.102 A 
HETATM   17  C   UNL     1       7.416  24.763  55.000  1.00  0.00     0.049 A 
BRANCH  15  18
HETATM   18  O   UNL     1       7.709  21.730  52.955  1.00  0.00    -0.358 OA
HETATM   19  H   UNL     1       6.775  21.453  52.979  1.00  0.00     0.218 HD
ENDBRANCH  15  18
BRANCH  16  20
HETATM   20  O   UNL     1       7.265  22.473  55.620  1.00  0.00    -0.349 OA
BRANCH  20  21
HETATM   21  C   UNL     1       8.452  22.262  56.401  1.00  0.00     0.171 C 
HETATM   22  C   UNL     1       8.790  20.784  56.348  1.00  0.00     0.034 C 
ENDBRANCH  20  21
ENDBRANCH  16  20
ENDBRANCH   1  12
BRANCH  10  23
HETATM   23  C   UNL     1       5.024  27.524  51.954  1.00  0.00    -0.002 A 
HETATM   24  C   UNL     1       5.167  28.555  51.009  1.00  0.00     0.050 A 
HETATM   25  C   UNL     1       5.102  28.284  49.641  1.00  0.00     0.069 A 
HETATM   26  C   UNL     1       4.894  26.971  49.214  1.00  0.00     0.037 A 
HETATM   27  C   UNL     1       4.763  25.937  50.139  1.00  0.00     0.004 A 
HETATM   28  C   UNL     1       4.831  26.211  51.505  1.00  0.00     0.014 A 
BRANCH  25  29
HETATM   29  O   UNL     1       5.222  29.202  48.633  1.00  0.00    -0.356 OA
HETATM   30  C   UNL     1       4.891  28.759  47.323  1.00  0.00     0.210 C 
ENDBRANCH  25  29
ENDBRANCH  10  23
TORSDOF 6
ENDMDL
MODEL 9
REMARK VINA RESULT:      -8.1      7.240     10.523
REMARK  6 active torsions:
REMARK  status: ('A' for Active; 'I' for Inactive)
REMARK    1  A    between atoms: C_2  and  O_3 
REMARK    2  A    between atoms: O_3  and  C_4 
REMARK    3  A    between atoms: C_5  and  O_6 
REMARK    4  A    between atoms: C_9  and  C_10 
REMARK    5  A    between atoms: C_19  and  C_20 
REMARK    6  A    between atoms: C_22  and  O_23 
ROOT
HETATM    1  C   UNL     1       4.429  32.793  62.995  1.00  0.00     0.156 A 
HETATM    2  N   UNL     1       3.500  33.566  63.839  1.00  0.00    -0.343 N 
HETATM    3  C   UNL     1       4.112  34.262  64.876  1.00  0.00     0.271 A 
HETATM    4  O   UNL     1       3.579  34.967  65.710  1.00  0.00    -0.266 OA
HETATM    5  C   UNL     1       5.482  33.963  64.707  1.00  0.00     0.128 A 
HETATM    6  C   UNL     1       5.711  33.143  63.641  1.00  0.00     0.034 A 
HETATM    7  N   UNL     1       6.666  34.262  65.259  1.00  0.00    -0.272 N 
HETATM    8  H   UNL     1       6.872  34.851  66.061  1.00  0.00     0.189 HD
HETATM    9  N   UNL     1       7.687  33.674  64.588  1.00  0.00    -0.173 NA
HETATM   10  C   UNL     1       7.104  32.972  63.584  1.00  0.00     0.098 A 
HETATM   11  H   UNL     1       2.505  33.620  63.685  1.00  0.00     0.163 HD
ENDROOT
BRANCH   1  12
HETATM   12  C   UNL     1       4.444  33.257  61.561  1.00  0.00    -0.028 A 
HETATM   13  C   UNL     1       4.235  34.601  61.188  1.00  0.00     0.012 A 
HETATM   14  C   UNL     1       4.219  34.984  59.844  1.00  0.00     0.040 A 
HETATM   15  C   UNL     1       4.404  34.027  58.858  1.00  0.00     0.099 A 
HETATM   16  C   UNL     1       4.644  32.700  59.203  1.00  0.00     0.102 A 
HETATM   17  C   UNL     1       4.640  32.309  60.541  1.00  0.00     0.049 A 
BRANCH  15  18
HETATM   18  O   UNL     1       4.321  34.413  57.552  1.00  0.00    -0.358 OA
HETATM   19  H   UNL     1       4.872  33.783  57.052  1.00  0.00     0.218 HD
ENDBRANCH  15  18
BRANCH  16  20
HETATM   20  O   UNL     1       4.826  31.745  58.240  1.00  0.00    -0.349 OA
BRANCH  20  21
HETATM   21  C   UNL     1       6.215  31.638  57.890  1.00  0.00     0.171 C 
HETATM   22  C   UNL     1       6.640  30.196  58.096  1.00  0.00     0.034 C 
ENDBRANCH  20  21
ENDBRANCH  16  20
ENDBRANCH   1  12
BRANCH  10  23
HETATM   23  C   UNL     1       7.905  32.212  62.622  1.00  0.00    -0.002 A 
HETATM   24  C   UNL     1       8.224  32.780  61.377  1.00  0.00     0.050 A 
HETATM   25  C   UNL     1       8.968  32.067  60.436  1.00  0.00     0.069 A 
HETATM   26  C   UNL     1       9.399  30.775  60.742  1.00  0.00     0.037 A 
HETATM   27  C   UNL     1       9.101  30.202  61.978  1.00  0.00     0.004 A 
HETATM   28  C   UNL     1       8.359  30.920  62.917  1.00  0.00     0.014 A 
BRANCH  25  29
HETATM   29  O   UNL     1       9.333  32.513  59.194  1.00  0.00    -0.356 OA
HETATM   30  C   UNL     1      10.111  31.625  58.400  1.00  0.00     0.210 C 
ENDBRANCH  25  29
ENDBRANCH  10  23
TORSDOF 6
ENDMDL
MODEL 10
REMARK VINA RESULT:      -8.0      7.255     10.845
REMARK  6 active torsions:
REMARK  status: ('A' for Active; 'I' for Inactive)
REMARK    1  A    between atoms: C_2  and  O_3 
REMARK    2  A    between atoms: O_3  and  C_4 
REMARK    3  A    between atoms: C_5  and  O_6 
REMARK    4  A    between atoms: C_9  and  C_10 
REMARK    5  A    between atoms: C_19  and  C_20 
REMARK    6  A    between atoms: C_22  and  O_23 
ROOT
HETATM    1  C   UNL     1       6.548  34.315  63.403  1.00  0.00     0.156 A 
HETATM    2  N   UNL     1       6.872  34.401  64.839  1.00  0.00    -0.343 N 
HETATM    3  C   UNL     1       5.773  34.286  65.683  1.00  0.00     0.271 A 
HETATM    4  O   UNL     1       5.765  34.324  66.898  1.00  0.00    -0.266 OA
HETATM    5  C   UNL     1       4.695  34.098  64.790  1.00  0.00     0.128 A 
HETATM    6  C   UNL     1       5.090  34.093  63.485  1.00  0.00     0.034 A 
HETATM    7  N   UNL     1       3.371  33.886  64.822  1.00  0.00    -0.272 N 
HETATM    8  H   UNL     1       2.748  33.822  65.621  1.00  0.00     0.189 HD
HETATM    9  N   UNL     1       2.866  33.729  63.573  1.00  0.00    -0.173 NA
HETATM   10  C   UNL     1       3.926  33.861  62.735  1.00  0.00     0.098 A 
HETATM   11  H   UNL     1       7.806  34.511  65.205  1.00  0.00     0.163 HD
ENDROOT
BRANCH   1  12
HETATM   12  C   UNL     1       7.201  33.138  62.724  1.00  0.00    -0.028 A 
HETATM   13  C   UNL     1       7.732  32.042  63.433  1.00  0.00     0.012 A 
HETATM   14  C   UNL     1       8.362  30.987  62.767  1.00  0.00     0.040 A 
HETATM   15  C   UNL     1       8.476  31.021  61.385  1.00  0.00     0.099 A 
HETATM   16  C   UNL     1       7.931  32.078  60.662  1.00  0.00     0.102 A 
HETATM   17  C   UNL     1       7.320  33.143  61.323  1.00  0.00     0.049 A 
BRANCH  15  18
HETATM   18  O   UNL     1       9.152  30.013  60.762  1.00  0.00    -0.358 OA
HETATM   19  H   UNL     1       8.612  29.211  60.890  1.00  0.00     0.218 HD
ENDBRANCH  15  18
BRANCH  16  20
HETATM   20  O   UNL     1       8.038  32.126  59.298  1.00  0.00    -0.349 OA
BRANCH  20  21
HETATM   21  C   UNL     1       6.815  31.697  58.680  1.00  0.00     0.171 C 
HETATM   22  C   UNL     1       7.098  30.414  57.921  1.00  0.00     0.034 C 
ENDBRANCH  20  21
ENDBRANCH  16  20
ENDBRANCH   1  12
BRANCH  10  23
HETATM   23  C   UNL     1       3.769  33.729  61.286  1.00  0.00    -0.002 A 
HETATM   24  C   UNL     1       3.535  32.463  60.721  1.00  0.00     0.050 A 
HETATM   25  C   UNL     1       3.404  32.310  59.340  1.00  0.00     0.069 A 
HETATM   26  C   UNL     1       3.505  33.432  58.515  1.00  0.00     0.037 A 
HETATM   27  C   UNL     1       3.724  34.696  59.061  1.00  0.00     0.004 A 
HETATM   28  C   UNL     1       3.852  34.845  60.442  1.00  0.00     0.014 A 
BRANCH  25  29
HETATM   29  O   UNL     1       3.181  31.132  58.680  1.00  0.00    -0.356 OA
HETATM   30  C   UNL     1       3.431  31.127  57.279  1.00  0.00     0.210 C 
ENDBRANCH  25  29
ENDBRANCH  10  23
TORSDOF 6
ENDMDL
