MODEL 1
REMARK VINA RESULT:     -10.2      0.000      0.000
REMARK  6 active torsions:
REMARK  status: ('A' for Active; 'I' for Inactive)
REMARK    1  A    between atoms: O_2  and  C_3 
REMARK    2  A    between atoms: C_5  and  C_6 
REMARK    3  A    between atoms: N_8  and  C_9 
REMARK    4  A    between atoms: C_16  and  C_17 
REMARK       I    between atoms: C_17  and  N_18 
REMARK    5  A    between atoms: N_18  and  N_19 
REMARK       I    between atoms: N_19  and  C_20 
REMARK    6  A    between atoms: C_20  and  C_21 
ROOT
HETATM    1  C   UNL     1       7.074  24.991  54.701  1.00  0.00     0.105 A 
HETATM    2  N   UNL     1       7.740  25.707  55.620  1.00  0.00    -0.166 NA
HETATM    3  N   UNL     1       7.183  26.936  55.615  1.00  0.00    -0.244 N 
HETATM    4  C   UNL     1       6.173  27.018  54.688  1.00  0.00     0.138 A 
HETATM    5  C   UNL     1       6.075  25.786  54.062  1.00  0.00     0.082 A 
ENDROOT
BRANCH   5   6
HETATM    6  C   UNL     1       5.173  25.446  52.972  1.00  0.00     0.274 C 
HETATM    7  N   UNL     1       5.493  26.022  51.757  1.00  0.00    -0.263 N 
HETATM    8  H   UNL     1       6.177  26.771  51.668  1.00  0.00     0.190 HD
HETATM    9  O   UNL     1       4.197  24.710  53.098  1.00  0.00    -0.266 OA
BRANCH   7  10
HETATM   10  N   UNL     1       4.602  25.877  50.686  1.00  0.00    -0.262 N 
HETATM   11  C   UNL     1       4.561  26.868  49.727  1.00  0.00     0.286 C 
HETATM   12  O   UNL     1       5.337  27.823  49.758  1.00  0.00    -0.264 OA
HETATM   13  H   UNL     1       3.911  25.135  50.758  1.00  0.00     0.190 HD
BRANCH  11  14
HETATM   14  C   UNL     1       3.555  26.713  48.702  1.00  0.00     0.102 A 
HETATM   15  N   UNL     1       2.302  27.276  48.837  1.00  0.00    -0.361 N 
HETATM   16  H   UNL     1       2.015  27.819  49.643  1.00  0.00     0.165 HD
HETATM   17  C   UNL     1       1.533  26.995  47.741  1.00  0.00     0.088 A 
HETATM   18  C   UNL     1       2.291  26.238  46.879  1.00  0.00     0.019 A 
HETATM   19  C   UNL     1       3.561  26.059  47.480  1.00  0.00     0.036 A 
ENDBRANCH  11  14
ENDBRANCH   7  10
ENDBRANCH   5   6
BRANCH   1  20
HETATM   20  C   UNL     1       7.430  23.582  54.500  1.00  0.00    -0.002 A 
HETATM   21  C   UNL     1       7.545  22.693  55.577  1.00  0.00     0.050 A 
HETATM   22  C   UNL     1       7.901  21.354  55.374  1.00  0.00     0.069 A 
HETATM   23  C   UNL     1       8.170  20.902  54.082  1.00  0.00     0.037 A 
HETATM   24  C   UNL     1       8.077  21.780  53.002  1.00  0.00     0.004 A 
HETATM   25  C   UNL     1       7.710  23.111  53.209  1.00  0.00     0.014 A 
BRANCH  22  26
HETATM   26  O   UNL     1       7.963  20.601  56.516  1.00  0.00    -0.356 OA
HETATM   27  C   UNL     1       8.348  21.276  57.707  1.00  0.00     0.210 C 
ENDBRANCH  22  26
ENDBRANCH   1  20
BRANCH   3  28
HETATM   28  C   UNL     1       7.654  27.957  56.490  1.00  0.00     0.058 A 
HETATM   29  C   UNL     1       6.734  28.663  57.280  1.00  0.00     0.031 A 
HETATM   30  C   UNL     1       7.174  29.667  58.147  1.00  0.00     0.002 A 
HETATM   31  C   UNL     1       8.530  29.976  58.227  1.00  0.00     0.000 A 
HETATM   32  C   UNL     1       9.450  29.282  57.443  1.00  0.00     0.002 A 
HETATM   33  C   UNL     1       9.017  28.273  56.575  1.00  0.00     0.031 A 
ENDBRANCH   3  28
TORSDOF 6
ENDMDL
MODEL 2
REMARK VINA RESULT:     -10.0      1.284      2.109
REMARK  6 active torsions:
REMARK  status: ('A' for Active; 'I' for Inactive)
REMARK    1  A    between atoms: O_2  and  C_3 
REMARK    2  A    between atoms: C_5  and  C_6 
REMARK    3  A    between atoms: N_8  and  C_9 
REMARK    4  A    between atoms: C_16  and  C_17 
REMARK       I    between atoms: C_17  and  N_18 
REMARK    5  A    between atoms: N_18  and  N_19 
REMARK       I    between atoms: N_19  and  C_20 
REMARK    6  A    between atoms: C_20  and  C_21 
ROOT
HETATM    1  C   UNL     1       7.678  25.255  55.648  1.00  0.00     0.105 A 
HETATM    2  N   UNL     1       8.276  26.022  56.574  1.00  0.00    -0.166 NA
HETATM    3  N   UNL     1       7.919  27.293  56.297  1.00  0.00    -0.244 N 
HETATM    4  C   UNL     1       7.107  27.349  55.189  1.00  0.00     0.138 A 
HETATM    5  C   UNL     1       6.936  26.054  54.727  1.00  0.00     0.082 A 
ENDROOT
BRANCH   5   6
HETATM    6  C   UNL     1       6.195  25.658  53.540  1.00  0.00     0.274 C 
HETATM    7  N   UNL     1       6.789  26.015  52.344  1.00  0.00    -0.263 N 
HETATM    8  H   UNL     1       7.569  26.666  52.291  1.00  0.00     0.190 HD
HETATM    9  O   UNL     1       5.124  25.056  53.573  1.00  0.00    -0.266 OA
BRANCH   7  10
HETATM   10  N   UNL     1       6.080  25.811  51.152  1.00  0.00    -0.262 N 
HETATM   11  C   UNL     1       5.442  26.890  50.576  1.00  0.00     0.286 C 
HETATM   12  O   UNL     1       5.549  28.024  51.044  1.00  0.00    -0.264 OA
HETATM   13  H   UNL     1       5.930  24.849  50.863  1.00  0.00     0.190 HD
BRANCH  11  14
HETATM   14  C   UNL     1       4.647  26.601  49.405  1.00  0.00     0.102 A 
HETATM   15  N   UNL     1       3.768  25.537  49.381  1.00  0.00    -0.361 N 
HETATM   16  H   UNL     1       3.629  24.907  50.162  1.00  0.00     0.165 HD
HETATM   17  C   UNL     1       3.132  25.472  48.172  1.00  0.00     0.088 A 
HETATM   18  C   UNL     1       3.599  26.506  47.395  1.00  0.00     0.019 A 
HETATM   19  C   UNL     1       4.551  27.216  48.167  1.00  0.00     0.036 A 
ENDBRANCH  11  14
ENDBRANCH   7  10
ENDBRANCH   5   6
BRANCH   1  20
HETATM   20  C   UNL     1       7.848  23.799  55.711  1.00  0.00    -0.002 A 
HETATM   21  C   UNL     1       7.634  22.986  54.591  1.00  0.00     0.050 A 
HETATM   22  C   UNL     1       7.784  21.596  54.668  1.00  0.00     0.069 A 
HETATM   23  C   UNL     1       8.129  21.007  55.885  1.00  0.00     0.037 A 
HETATM   24  C   UNL     1       8.327  21.803  57.014  1.00  0.00     0.004 A 
HETATM   25  C   UNL     1       8.188  23.189  56.928  1.00  0.00     0.014 A 
BRANCH  22  26
HETATM   26  O   UNL     1       7.555  20.931  53.493  1.00  0.00    -0.356 OA
HETATM   27  C   UNL     1       8.677  20.308  52.881  1.00  0.00     0.210 C 
ENDBRANCH  22  26
ENDBRANCH   1  20
BRANCH   3  28
HETATM   28  C   UNL     1       8.379  28.375  57.101  1.00  0.00     0.058 A 
HETATM   29  C   UNL     1       9.646  28.927  56.851  1.00  0.00     0.031 A 
HETATM   30  C   UNL     1      10.117  29.990  57.626  1.00  0.00     0.002 A 
HETATM   31  C   UNL     1       9.332  30.505  58.656  1.00  0.00     0.000 A 
HETATM   32  C   UNL     1       8.075  29.961  58.912  1.00  0.00     0.002 A 
HETATM   33  C   UNL     1       7.595  28.898  58.138  1.00  0.00     0.031 A 
ENDBRANCH   3  28
TORSDOF 6
ENDMDL
MODEL 3
REMARK VINA RESULT:      -9.9      2.616      8.735
REMARK  6 active torsions:
REMARK  status: ('A' for Active; 'I' for Inactive)
REMARK    1  A    between atoms: O_2  and  C_3 
REMARK    2  A    between atoms: C_5  and  C_6 
REMARK    3  A    between atoms: N_8  and  C_9 
REMARK    4  A    between atoms: C_16  and  C_17 
REMARK       I    between atoms: C_17  and  N_18 
REMARK    5  A    between atoms: N_18  and  N_19 
REMARK       I    between atoms: N_19  and  C_20 
REMARK    6  A    between atoms: C_20  and  C_21 
ROOT
HETATM    1  C   UNL     1       6.154  25.694  54.260  1.00  0.00     0.105 A 
HETATM    2  N   UNL     1       6.512  24.503  53.755  1.00  0.00    -0.166 NA
HETATM    3  N   UNL     1       7.135  23.842  54.753  1.00  0.00    -0.244 N 
HETATM    4  C   UNL     1       7.192  24.608  55.893  1.00  0.00     0.138 A 
HETATM    5  C   UNL     1       6.582  25.821  55.616  1.00  0.00     0.082 A 
ENDROOT
BRANCH   5   6
HETATM    6  C   UNL     1       6.471  26.952  56.524  1.00  0.00     0.274 C 
HETATM    7  N   UNL     1       7.625  27.701  56.657  1.00  0.00    -0.263 N 
HETATM    8  H   UNL     1       8.528  27.383  56.310  1.00  0.00     0.190 HD
HETATM    9  O   UNL     1       5.444  27.237  57.137  1.00  0.00    -0.266 OA
BRANCH   7  10
HETATM   10  N   UNL     1       7.663  28.717  57.620  1.00  0.00    -0.262 N 
HETATM   11  C   UNL     1       8.834  29.429  57.778  1.00  0.00     0.286 C 
HETATM   12  O   UNL     1       9.804  29.239  57.043  1.00  0.00    -0.264 OA
HETATM   13  H   UNL     1       6.883  28.766  58.271  1.00  0.00     0.190 HD
BRANCH  11  14
HETATM   14  C   UNL     1       8.845  30.396  58.851  1.00  0.00     0.102 A 
HETATM   15  N   UNL     1       8.042  30.241  59.963  1.00  0.00    -0.361 N 
HETATM   16  H   UNL     1       7.410  29.461  60.094  1.00  0.00     0.165 HD
HETATM   17  C   UNL     1       8.233  31.277  60.836  1.00  0.00     0.088 A 
HETATM   18  C   UNL     1       9.171  32.121  60.289  1.00  0.00     0.019 A 
HETATM   19  C   UNL     1       9.558  31.570  59.042  1.00  0.00     0.036 A 
ENDBRANCH  11  14
ENDBRANCH   7  10
ENDBRANCH   5   6
BRANCH   1  20
HETATM   20  C   UNL     1       5.413  26.634  53.413  1.00  0.00    -0.002 A 
HETATM   21  C   UNL     1       5.644  26.718  52.034  1.00  0.00     0.050 A 
HETATM   22  C   UNL     1       4.941  27.631  51.237  1.00  0.00     0.069 A 
HETATM   23  C   UNL     1       4.013  28.488  51.829  1.00  0.00     0.037 A 
HETATM   24  C   UNL     1       3.786  28.429  53.206  1.00  0.00     0.004 A 
HETATM   25  C   UNL     1       4.481  27.509  53.991  1.00  0.00     0.014 A 
BRANCH  22  26
HETATM   26  O   UNL     1       5.261  27.592  49.907  1.00  0.00    -0.356 OA
HETATM   27  C   UNL     1       4.538  26.668  49.102  1.00  0.00     0.210 C 
ENDBRANCH  22  26
ENDBRANCH   1  20
BRANCH   3  28
HETATM   28  C   UNL     1       7.642  22.526  54.556  1.00  0.00     0.058 A 
HETATM   29  C   UNL     1       7.875  22.068  53.250  1.00  0.00     0.031 A 
HETATM   30  C   UNL     1       8.374  20.781  53.032  1.00  0.00     0.002 A 
HETATM   31  C   UNL     1       8.638  19.943  54.113  1.00  0.00     0.000 A 
HETATM   32  C   UNL     1       8.406  20.389  55.413  1.00  0.00     0.002 A 
HETATM   33  C   UNL     1       7.910  21.677  55.639  1.00  0.00     0.031 A 
ENDBRANCH   3  28
TORSDOF 6
ENDMDL
MODEL 4
REMARK VINA RESULT:      -9.6      2.286      5.689
REMARK  6 active torsions:
REMARK  status: ('A' for Active; 'I' for Inactive)
REMARK    1  A    between atoms: O_2  and  C_3 
REMARK    2  A    between atoms: C_5  and  C_6 
REMARK    3  A    between atoms: N_8  and  C_9 
REMARK    4  A    between atoms: C_16  and  C_17 
REMARK       I    between atoms: C_17  and  N_18 
REMARK    5  A    between atoms: N_18  and  N_19 
REMARK       I    between atoms: N_19  and  C_20 
REMARK    6  A    between atoms: C_20  and  C_21 
ROOT
HETATM    1  C   UNL     1       6.867  26.121  54.909  1.00  0.00     0.105 A 
HETATM    2  N   UNL     1       7.323  24.922  55.303  1.00  0.00    -0.166 NA
HETATM    3  N   UNL     1       7.208  24.106  54.235  1.00  0.00    -0.244 N 
HETATM    4  C   UNL     1       6.667  24.771  53.160  1.00  0.00     0.138 A 
HETATM    5  C   UNL     1       6.417  26.075  53.555  1.00  0.00     0.082 A 
ENDROOT
BRANCH   5   6
HETATM    6  C   UNL     1       5.793  27.111  52.747  1.00  0.00     0.274 C 
HETATM    7  N   UNL     1       4.657  26.708  52.070  1.00  0.00    -0.263 N 
HETATM    8  H   UNL     1       4.389  25.730  51.981  1.00  0.00     0.190 HD
HETATM    9  O   UNL     1       6.223  28.259  52.657  1.00  0.00    -0.266 OA
BRANCH   7  10
HETATM   10  N   UNL     1       4.072  27.589  51.150  1.00  0.00    -0.262 N 
HETATM   11  C   UNL     1       4.250  27.345  49.804  1.00  0.00     0.286 C 
HETATM   12  O   UNL     1       4.840  26.340  49.406  1.00  0.00    -0.264 OA
HETATM   13  H   UNL     1       3.691  28.455  51.519  1.00  0.00     0.190 HD
BRANCH  11  14
HETATM   14  C   UNL     1       3.710  28.339  48.906  1.00  0.00     0.102 A 
HETATM   15  N   UNL     1       2.667  29.159  49.288  1.00  0.00    -0.361 N 
HETATM   16  H   UNL     1       2.226  29.116  50.199  1.00  0.00     0.165 HD
HETATM   17  C   UNL     1       2.337  30.014  48.273  1.00  0.00     0.088 A 
HETATM   18  C   UNL     1       3.173  29.751  47.213  1.00  0.00     0.019 A 
HETATM   19  C   UNL     1       4.036  28.699  47.608  1.00  0.00     0.036 A 
ENDBRANCH  11  14
ENDBRANCH   7  10
ENDBRANCH   5   6
BRANCH   1  20
HETATM   20  C   UNL     1       6.902  27.242  55.854  1.00  0.00    -0.002 A 
HETATM   21  C   UNL     1       8.111  27.803  56.284  1.00  0.00     0.050 A 
HETATM   22  C   UNL     1       8.131  28.863  57.199  1.00  0.00     0.069 A 
HETATM   23  C   UNL     1       6.930  29.353  57.711  1.00  0.00     0.037 A 
HETATM   24  C   UNL     1       5.718  28.792  57.307  1.00  0.00     0.004 A 
HETATM   25  C   UNL     1       5.704  27.744  56.385  1.00  0.00     0.014 A 
BRANCH  22  26
HETATM   26  O   UNL     1       9.383  29.318  57.518  1.00  0.00    -0.356 OA
HETATM   27  C   UNL     1      10.223  29.690  56.433  1.00  0.00     0.210 C 
ENDBRANCH  22  26
ENDBRANCH   1  20
BRANCH   3  28
HETATM   28  C   UNL     1       7.615  22.743  54.307  1.00  0.00     0.058 A 
HETATM   29  C   UNL     1       7.984  22.072  53.130  1.00  0.00     0.031 A 
HETATM   30  C   UNL     1       8.388  20.736  53.178  1.00  0.00     0.002 A 
HETATM   31  C   UNL     1       8.421  20.059  54.395  1.00  0.00     0.000 A 
HETATM   32  C   UNL     1       8.053  20.717  55.568  1.00  0.00     0.002 A 
HETATM   33  C   UNL     1       7.650  22.056  55.528  1.00  0.00     0.031 A 
ENDBRANCH   3  28
TORSDOF 6
ENDMDL
MODEL 5
REMARK VINA RESULT:      -9.6      2.312      7.797
REMARK  6 active torsions:
REMARK  status: ('A' for Active; 'I' for Inactive)
REMARK    1  A    between atoms: O_2  and  C_3 
REMARK    2  A    between atoms: C_5  and  C_6 
REMARK    3  A    between atoms: N_8  and  C_9 
REMARK    4  A    between atoms: C_16  and  C_17 
REMARK       I    between atoms: C_17  and  N_18 
REMARK    5  A    between atoms: N_18  and  N_19 
REMARK       I    between atoms: N_19  and  C_20 
REMARK    6  A    between atoms: C_20  and  C_21 
ROOT
HETATM    1  C   UNL     1       6.169  26.093  52.653  1.00  0.00     0.105 A 
HETATM    2  N   UNL     1       5.419  25.823  51.573  1.00  0.00    -0.166 NA
HETATM    3  N   UNL     1       5.140  27.013  51.000  1.00  0.00    -0.244 N 
HETATM    4  C   UNL     1       5.695  28.047  51.715  1.00  0.00     0.138 A 
HETATM    5  C   UNL     1       6.358  27.500  52.801  1.00  0.00     0.082 A 
ENDROOT
BRANCH   5   6
HETATM    6  C   UNL     1       7.039  28.241  53.852  1.00  0.00     0.274 C 
HETATM    7  N   UNL     1       6.199  28.836  54.775  1.00  0.00    -0.263 N 
HETATM    8  H   UNL     1       5.196  28.920  54.629  1.00  0.00     0.190 HD
HETATM    9  O   UNL     1       8.261  28.345  53.932  1.00  0.00    -0.266 OA
BRANCH   7  10
HETATM   10  N   UNL     1       6.752  29.694  55.735  1.00  0.00    -0.262 N 
HETATM   11  C   UNL     1       6.722  29.304  57.058  1.00  0.00     0.286 C 
HETATM   12  O   UNL     1       6.293  28.198  57.391  1.00  0.00    -0.264 OA
HETATM   13  H   UNL     1       6.994  30.633  55.431  1.00  0.00     0.190 HD
BRANCH  11  14
HETATM   14  C   UNL     1       7.215  30.269  58.012  1.00  0.00     0.102 A 
HETATM   15  N   UNL     1       6.353  30.995  58.809  1.00  0.00    -0.361 N 
HETATM   16  H   UNL     1       5.345  30.899  58.776  1.00  0.00     0.165 HD
HETATM   17  C   UNL     1       7.055  31.836  59.628  1.00  0.00     0.088 A 
HETATM   18  C   UNL     1       8.393  31.661  59.364  1.00  0.00     0.019 A 
HETATM   19  C   UNL     1       8.497  30.677  58.349  1.00  0.00     0.036 A 
ENDBRANCH  11  14
ENDBRANCH   7  10
ENDBRANCH   5   6
BRANCH   1  20
HETATM   20  C   UNL     1       6.667  24.983  53.471  1.00  0.00    -0.002 A 
HETATM   21  C   UNL     1       7.350  23.900  52.901  1.00  0.00     0.050 A 
HETATM   22  C   UNL     1       7.807  22.837  53.691  1.00  0.00     0.069 A 
HETATM   23  C   UNL     1       7.557  22.843  55.064  1.00  0.00     0.037 A 
HETATM   24  C   UNL     1       6.862  23.906  55.642  1.00  0.00     0.004 A 
HETATM   25  C   UNL     1       6.420  24.968  54.852  1.00  0.00     0.014 A 
BRANCH  22  26
HETATM   26  O   UNL     1       8.468  21.857  53.001  1.00  0.00    -0.356 OA
HETATM   27  C   UNL     1       7.884  20.560  53.016  1.00  0.00     0.210 C 
ENDBRANCH  22  26
ENDBRANCH   1  20
BRANCH   3  28
HETATM   28  C   UNL     1       4.358  27.088  49.813  1.00  0.00     0.058 A 
HETATM   29  C   UNL     1       3.747  28.304  49.469  1.00  0.00     0.031 A 
HETATM   30  C   UNL     1       2.976  28.403  48.307  1.00  0.00     0.002 A 
HETATM   31  C   UNL     1       2.806  27.290  47.486  1.00  0.00     0.000 A 
HETATM   32  C   UNL     1       3.407  26.078  47.822  1.00  0.00     0.002 A 
HETATM   33  C   UNL     1       4.183  25.973  48.982  1.00  0.00     0.031 A 
ENDBRANCH   3  28
TORSDOF 6
ENDMDL
MODEL 6
REMARK VINA RESULT:      -9.3      2.160      7.734
REMARK  6 active torsions:
REMARK  status: ('A' for Active; 'I' for Inactive)
REMARK    1  A    between atoms: O_2  and  C_3 
REMARK    2  A    between atoms: C_5  and  C_6 
REMARK    3  A    between atoms: N_8  and  C_9 
REMARK    4  A    between atoms: C_16  and  C_17 
REMARK       I    between atoms: C_17  and  N_18 
REMARK    5  A    between atoms: N_18  and  N_19 
REMARK       I    between atoms: N_19  and  C_20 
REMARK    6  A    between atoms: C_20  and  C_21 
ROOT
HETATM    1  C   UNL     1       5.848  26.028  52.502  1.00  0.00     0.105 A 
HETATM    2  N   UNL     1       5.423  25.792  51.250  1.00  0.00    -0.166 NA
HETATM    3  N   UNL     1       4.758  26.901  50.863  1.00  0.00    -0.244 N 
HETATM    4  C   UNL     1       4.742  27.843  51.864  1.00  0.00     0.138 A 
HETATM    5  C   UNL     1       5.424  27.315  52.949  1.00  0.00     0.082 A 
ENDROOT
BRANCH   5   6
HETATM    6  C   UNL     1       5.598  27.953  54.245  1.00  0.00     0.274 C 
HETATM    7  N   UNL     1       6.740  28.724  54.360  1.00  0.00    -0.263 N 
HETATM    8  H   UNL     1       7.493  28.694  53.676  1.00  0.00     0.190 HD
HETATM    9  O   UNL     1       4.808  27.830  55.179  1.00  0.00    -0.266 OA
BRANCH   7  10
HETATM   10  N   UNL     1       7.072  29.255  55.613  1.00  0.00    -0.262 N 
HETATM   11  C   UNL     1       8.407  29.384  55.938  1.00  0.00     0.286 C 
HETATM   12  O   UNL     1       9.294  29.116  55.126  1.00  0.00    -0.264 OA
HETATM   13  H   UNL     1       6.317  29.359  56.285  1.00  0.00     0.190 HD
BRANCH  11  14
HETATM   14  C   UNL     1       8.689  29.843  57.278  1.00  0.00     0.102 A 
HETATM   15  N   UNL     1       7.699  29.897  58.240  1.00  0.00    -0.361 N 
HETATM   16  H   UNL     1       6.738  29.627  58.071  1.00  0.00     0.165 HD
HETATM   17  C   UNL     1       8.210  30.359  59.422  1.00  0.00     0.088 A 
HETATM   18  C   UNL     1       9.548  30.610  59.233  1.00  0.00     0.019 A 
HETATM   19  C   UNL     1       9.852  30.287  57.887  1.00  0.00     0.036 A 
ENDBRANCH  11  14
ENDBRANCH   7  10
ENDBRANCH   5   6
BRANCH   1  20
HETATM   20  C   UNL     1       6.647  25.007  53.187  1.00  0.00    -0.002 A 
HETATM   21  C   UNL     1       6.675  24.913  54.585  1.00  0.00     0.050 A 
HETATM   22  C   UNL     1       7.455  23.943  55.228  1.00  0.00     0.069 A 
HETATM   23  C   UNL     1       8.235  23.072  54.467  1.00  0.00     0.037 A 
HETATM   24  C   UNL     1       8.231  23.166  53.075  1.00  0.00     0.004 A 
HETATM   25  C   UNL     1       7.443  24.127  52.440  1.00  0.00     0.014 A 
BRANCH  22  26
HETATM   26  O   UNL     1       7.374  23.961  56.594  1.00  0.00    -0.356 OA
HETATM   27  C   UNL     1       8.600  24.090  57.305  1.00  0.00     0.210 C 
ENDBRANCH  22  26
ENDBRANCH   1  20
BRANCH   3  28
HETATM   28  C   UNL     1       4.175  26.990  49.567  1.00  0.00     0.058 A 
HETATM   29  C   UNL     1       3.908  25.813  48.851  1.00  0.00     0.031 A 
HETATM   30  C   UNL     1       3.335  25.877  47.578  1.00  0.00     0.002 A 
HETATM   31  C   UNL     1       3.029  27.112  47.011  1.00  0.00     0.000 A 
HETATM   32  C   UNL     1       3.294  28.286  47.715  1.00  0.00     0.002 A 
HETATM   33  C   UNL     1       3.865  28.230  48.991  1.00  0.00     0.031 A 
ENDBRANCH   3  28
TORSDOF 6
ENDMDL
MODEL 7
REMARK VINA RESULT:      -9.3      2.312      5.794
REMARK  6 active torsions:
REMARK  status: ('A' for Active; 'I' for Inactive)
REMARK    1  A    between atoms: O_2  and  C_3 
REMARK    2  A    between atoms: C_5  and  C_6 
REMARK    3  A    between atoms: N_8  and  C_9 
REMARK    4  A    between atoms: C_16  and  C_17 
REMARK       I    between atoms: C_17  and  N_18 
REMARK    5  A    between atoms: N_18  and  N_19 
REMARK       I    between atoms: N_19  and  C_20 
REMARK    6  A    between atoms: C_20  and  C_21 
ROOT
HETATM    1  C   UNL     1       6.907  26.045  55.013  1.00  0.00     0.105 A 
HETATM    2  N   UNL     1       7.345  24.831  55.382  1.00  0.00    -0.166 NA
HETATM    3  N   UNL     1       7.237  24.044  54.291  1.00  0.00    -0.244 N 
HETATM    4  C   UNL     1       6.718  24.742  53.227  1.00  0.00     0.138 A 
HETATM    5  C   UNL     1       6.475  26.038  53.652  1.00  0.00     0.082 A 
ENDROOT
BRANCH   5   6
HETATM    6  C   UNL     1       5.872  27.101  52.863  1.00  0.00     0.274 C 
HETATM    7  N   UNL     1       4.738  26.729  52.165  1.00  0.00    -0.263 N 
HETATM    8  H   UNL     1       4.458  25.757  52.051  1.00  0.00     0.190 HD
HETATM    9  O   UNL     1       6.318  28.245  52.804  1.00  0.00    -0.266 OA
BRANCH   7  10
HETATM   10  N   UNL     1       4.174  27.638  51.261  1.00  0.00    -0.262 N 
HETATM   11  C   UNL     1       4.195  27.327  49.918  1.00  0.00     0.286 C 
HETATM   12  O   UNL     1       4.626  26.245  49.517  1.00  0.00    -0.264 OA
HETATM   13  H   UNL     1       3.930  28.557  51.622  1.00  0.00     0.190 HD
BRANCH  11  14
HETATM   14  C   UNL     1       3.690  28.344  49.026  1.00  0.00     0.102 A 
HETATM   15  N   UNL     1       4.503  28.936  48.080  1.00  0.00    -0.361 N 
HETATM   16  H   UNL     1       5.480  28.700  47.954  1.00  0.00     0.165 HD
HETATM   17  C   UNL     1       3.799  29.860  47.358  1.00  0.00     0.088 A 
HETATM   18  C   UNL     1       2.510  29.876  47.837  1.00  0.00     0.019 A 
HETATM   19  C   UNL     1       2.439  28.924  48.885  1.00  0.00     0.036 A 
ENDBRANCH  11  14
ENDBRANCH   7  10
ENDBRANCH   5   6
BRANCH   1  20
HETATM   20  C   UNL     1       6.939  27.141  55.987  1.00  0.00    -0.002 A 
HETATM   21  C   UNL     1       5.788  27.871  56.309  1.00  0.00     0.050 A 
HETATM   22  C   UNL     1       5.836  28.926  57.230  1.00  0.00     0.069 A 
HETATM   23  C   UNL     1       7.053  29.272  57.818  1.00  0.00     0.037 A 
HETATM   24  C   UNL     1       8.211  28.565  57.492  1.00  0.00     0.004 A 
HETATM   25  C   UNL     1       8.155  27.507  56.583  1.00  0.00     0.014 A 
BRANCH  22  26
HETATM   26  O   UNL     1       4.633  29.540  57.456  1.00  0.00    -0.356 OA
HETATM   27  C   UNL     1       3.782  29.712  56.329  1.00  0.00     0.210 C 
ENDBRANCH  22  26
ENDBRANCH   1  20
BRANCH   3  28
HETATM   28  C   UNL     1       7.629  22.675  54.333  1.00  0.00     0.058 A 
HETATM   29  C   UNL     1       7.763  22.037  55.576  1.00  0.00     0.031 A 
HETATM   30  C   UNL     1       8.144  20.694  55.642  1.00  0.00     0.002 A 
HETATM   31  C   UNL     1       8.399  19.983  54.471  1.00  0.00     0.000 A 
HETATM   32  C   UNL     1       8.272  20.610  53.233  1.00  0.00     0.002 A 
HETATM   33  C   UNL     1       7.887  21.954  53.160  1.00  0.00     0.031 A 
ENDBRANCH   3  28
TORSDOF 6
ENDMDL
MODEL 8
REMARK VINA RESULT:      -9.1      2.639      7.878
REMARK  6 active torsions:
REMARK  status: ('A' for Active; 'I' for Inactive)
REMARK    1  A    between atoms: O_2  and  C_3 
REMARK    2  A    between atoms: C_5  and  C_6 
REMARK    3  A    between atoms: N_8  and  C_9 
REMARK    4  A    between atoms: C_16  and  C_17 
REMARK       I    between atoms: C_17  and  N_18 
REMARK    5  A    between atoms: N_18  and  N_19 
REMARK       I    between atoms: N_19  and  C_20 
REMARK    6  A    between atoms: C_20  and  C_21 
ROOT
HETATM    1  C   UNL     1       6.800  25.815  54.282  1.00  0.00     0.105 A 
HETATM    2  N   UNL     1       6.436  25.750  52.991  1.00  0.00    -0.166 NA
HETATM    3  N   UNL     1       5.960  26.972  52.673  1.00  0.00    -0.244 N 
HETATM    4  C   UNL     1       6.003  27.817  53.755  1.00  0.00     0.138 A 
HETATM    5  C   UNL     1       6.527  27.107  54.824  1.00  0.00     0.082 A 
ENDROOT
BRANCH   5   6
HETATM    6  C   UNL     1       6.695  27.600  56.182  1.00  0.00     0.274 C 
HETATM    7  N   UNL     1       7.685  28.554  56.331  1.00  0.00    -0.263 N 
HETATM    8  H   UNL     1       8.368  28.753  55.603  1.00  0.00     0.190 HD
HETATM    9  O   UNL     1       6.025  27.212  57.137  1.00  0.00    -0.266 OA
BRANCH   7  10
HETATM   10  N   UNL     1       8.023  28.978  57.622  1.00  0.00    -0.262 N 
HETATM   11  C   UNL     1       7.464  30.147  58.097  1.00  0.00     0.286 C 
HETATM   12  O   UNL     1       6.626  30.769  57.442  1.00  0.00    -0.264 OA
HETATM   13  H   UNL     1       8.793  28.497  58.079  1.00  0.00     0.190 HD
BRANCH  11  14
HETATM   14  C   UNL     1       7.925  30.586  59.393  1.00  0.00     0.102 A 
HETATM   15  N   UNL     1       7.064  31.172  60.300  1.00  0.00    -0.361 N 
HETATM   16  H   UNL     1       6.080  31.326  60.118  1.00  0.00     0.165 HD
HETATM   17  C   UNL     1       7.732  31.497  61.448  1.00  0.00     0.088 A 
HETATM   18  C   UNL     1       9.045  31.121  61.293  1.00  0.00     0.019 A 
HETATM   19  C   UNL     1       9.170  30.549  60.002  1.00  0.00     0.036 A 
ENDBRANCH  11  14
ENDBRANCH   7  10
ENDBRANCH   5   6
BRANCH   1  20
HETATM   20  C   UNL     1       7.398  24.634  54.913  1.00  0.00    -0.002 A 
HETATM   21  C   UNL     1       7.214  23.348  54.389  1.00  0.00     0.050 A 
HETATM   22  C   UNL     1       7.778  22.226  55.009  1.00  0.00     0.069 A 
HETATM   23  C   UNL     1       8.515  22.387  56.183  1.00  0.00     0.037 A 
HETATM   24  C   UNL     1       8.691  23.660  56.727  1.00  0.00     0.004 A 
HETATM   25  C   UNL     1       8.137  24.775  56.097  1.00  0.00     0.014 A 
BRANCH  22  26
HETATM   26  O   UNL     1       7.525  21.038  54.379  1.00  0.00    -0.356 OA
HETATM   27  C   UNL     1       8.344  20.720  53.261  1.00  0.00     0.210 C 
ENDBRANCH  22  26
ENDBRANCH   1  20
BRANCH   3  28
HETATM   28  C   UNL     1       5.489  27.255  51.359  1.00  0.00     0.058 A 
HETATM   29  C   UNL     1       5.048  26.200  50.545  1.00  0.00     0.031 A 
HETATM   30  C   UNL     1       4.579  26.455  49.253  1.00  0.00     0.002 A 
HETATM   31  C   UNL     1       4.553  27.759  48.764  1.00  0.00     0.000 A 
HETATM   32  C   UNL     1       4.992  28.812  49.565  1.00  0.00     0.002 A 
HETATM   33  C   UNL     1       5.460  28.565  50.861  1.00  0.00     0.031 A 
ENDBRANCH   3  28
TORSDOF 6
ENDMDL
MODEL 9
REMARK VINA RESULT:      -9.1      2.096      3.387
REMARK  6 active torsions:
REMARK  status: ('A' for Active; 'I' for Inactive)
REMARK    1  A    between atoms: O_2  and  C_3 
REMARK    2  A    between atoms: C_5  and  C_6 
REMARK    3  A    between atoms: N_8  and  C_9 
REMARK    4  A    between atoms: C_16  and  C_17 
REMARK       I    between atoms: C_17  and  N_18 
REMARK    5  A    between atoms: N_18  and  N_19 
REMARK       I    between atoms: N_19  and  C_20 
REMARK    6  A    between atoms: C_20  and  C_21 
ROOT
HETATM    1  C   UNL     1       7.447  27.607  56.635  1.00  0.00     0.105 A 
HETATM    2  N   UNL     1       8.079  28.257  57.625  1.00  0.00    -0.166 NA
HETATM    3  N   UNL     1       7.612  29.523  57.601  1.00  0.00    -0.244 N 
HETATM    4  C   UNL     1       6.695  29.694  56.592  1.00  0.00     0.138 A 
HETATM    5  C   UNL     1       6.566  28.483  55.931  1.00  0.00     0.082 A 
ENDROOT
BRANCH   5   6
HETATM    6  C   UNL     1       5.741  28.228  54.761  1.00  0.00     0.274 C 
HETATM    7  N   UNL     1       6.348  28.518  53.553  1.00  0.00    -0.263 N 
HETATM    8  H   UNL     1       7.216  29.046  53.488  1.00  0.00     0.190 HD
HETATM    9  O   UNL     1       4.593  27.793  54.816  1.00  0.00    -0.266 OA
BRANCH   7  10
HETATM   10  N   UNL     1       5.584  28.449  52.380  1.00  0.00    -0.262 N 
HETATM   11  C   UNL     1       5.684  27.317  51.598  1.00  0.00     0.286 C 
HETATM   12  O   UNL     1       6.364  26.352  51.950  1.00  0.00    -0.264 OA
HETATM   13  H   UNL     1       5.126  29.304  52.076  1.00  0.00     0.190 HD
BRANCH  11  14
HETATM   14  C   UNL     1       4.952  27.343  50.354  1.00  0.00     0.102 A 
HETATM   15  N   UNL     1       5.213  26.433  49.349  1.00  0.00    -0.361 N 
HETATM   16  H   UNL     1       5.917  25.708  49.418  1.00  0.00     0.165 HD
HETATM   17  C   UNL     1       4.393  26.658  48.278  1.00  0.00     0.088 A 
HETATM   18  C   UNL     1       3.585  27.727  48.584  1.00  0.00     0.019 A 
HETATM   19  C   UNL     1       3.934  28.161  49.887  1.00  0.00     0.036 A 
ENDBRANCH  11  14
ENDBRANCH   7  10
ENDBRANCH   5   6
BRANCH   1  20
HETATM   20  C   UNL     1       7.719  26.180  56.432  1.00  0.00    -0.002 A 
HETATM   21  C   UNL     1       7.249  25.496  55.304  1.00  0.00     0.050 A 
HETATM   22  C   UNL     1       7.502  24.129  55.129  1.00  0.00     0.069 A 
HETATM   23  C   UNL     1       8.213  23.431  56.106  1.00  0.00     0.037 A 
HETATM   24  C   UNL     1       8.671  24.096  57.245  1.00  0.00     0.004 A 
HETATM   25  C   UNL     1       8.426  25.460  57.407  1.00  0.00     0.014 A 
BRANCH  22  26
HETATM   26  O   UNL     1       6.993  23.598  53.975  1.00  0.00    -0.356 OA
HETATM   27  C   UNL     1       7.930  23.264  52.958  1.00  0.00     0.210 C 
ENDBRANCH  22  26
ENDBRANCH   1  20
BRANCH   3  28
HETATM   28  C   UNL     1       8.075  30.492  58.537  1.00  0.00     0.058 A 
HETATM   29  C   UNL     1       7.142  31.255  59.255  1.00  0.00     0.031 A 
HETATM   30  C   UNL     1       7.573  32.210  60.180  1.00  0.00     0.002 A 
HETATM   31  C   UNL     1       8.935  32.412  60.390  1.00  0.00     0.000 A 
HETATM   32  C   UNL     1       9.869  31.661  59.678  1.00  0.00     0.002 A 
HETATM   33  C   UNL     1       9.444  30.701  58.753  1.00  0.00     0.031 A 
ENDBRANCH   3  28
TORSDOF 6
ENDMDL
MODEL 10
REMARK VINA RESULT:      -9.0      3.520      7.140
REMARK  6 active torsions:
REMARK  status: ('A' for Active; 'I' for Inactive)
REMARK    1  A    between atoms: O_2  and  C_3 
REMARK    2  A    between atoms: C_5  and  C_6 
REMARK    3  A    between atoms: N_8  and  C_9 
REMARK    4  A    between atoms: C_16  and  C_17 
REMARK       I    between atoms: C_17  and  N_18 
REMARK    5  A    between atoms: N_18  and  N_19 
REMARK       I    between atoms: N_19  and  C_20 
REMARK    6  A    between atoms: C_20  and  C_21 
ROOT
HETATM    1  C   UNL     1       6.384  29.997  56.837  1.00  0.00     0.105 A 
HETATM    2  N   UNL     1       6.462  30.782  57.923  1.00  0.00    -0.166 NA
HETATM    3  N   UNL     1       7.522  30.340  58.632  1.00  0.00    -0.244 N 
HETATM    4  C   UNL     1       8.117  29.266  58.014  1.00  0.00     0.138 A 
HETATM    5  C   UNL     1       7.405  29.000  56.855  1.00  0.00     0.082 A 
ENDROOT
BRANCH   5   6
HETATM    6  C   UNL     1       7.656  27.909  55.926  1.00  0.00     0.274 C 
HETATM    7  N   UNL     1       7.467  26.646  56.455  1.00  0.00    -0.263 N 
HETATM    8  H   UNL     1       7.355  26.480  57.453  1.00  0.00     0.190 HD
HETATM    9  O   UNL     1       8.010  28.072  54.761  1.00  0.00    -0.266 OA
BRANCH   7  10
HETATM   10  N   UNL     1       7.827  25.531  55.686  1.00  0.00    -0.262 N 
HETATM   11  C   UNL     1       6.825  24.713  55.207  1.00  0.00     0.286 C 
HETATM   12  O   UNL     1       5.636  24.987  55.378  1.00  0.00    -0.264 OA
HETATM   13  H   UNL     1       8.813  25.286  55.663  1.00  0.00     0.190 HD
BRANCH  11  14
HETATM   14  C   UNL     1       7.259  23.528  54.506  1.00  0.00     0.102 A 
HETATM   15  N   UNL     1       7.490  22.343  55.176  1.00  0.00    -0.361 N 
HETATM   16  H   UNL     1       7.372  22.233  56.176  1.00  0.00     0.165 HD
HETATM   17  C   UNL     1       7.887  21.370  54.301  1.00  0.00     0.088 A 
HETATM   18  C   UNL     1       7.918  21.923  53.043  1.00  0.00     0.019 A 
HETATM   19  C   UNL     1       7.525  23.279  53.168  1.00  0.00     0.036 A 
ENDBRANCH  11  14
ENDBRANCH   7  10
ENDBRANCH   5   6
BRANCH   1  20
HETATM   20  C   UNL     1       5.340  30.260  55.841  1.00  0.00    -0.002 A 
HETATM   21  C   UNL     1       4.834  29.244  55.021  1.00  0.00     0.050 A 
HETATM   22  C   UNL     1       3.848  29.511  54.063  1.00  0.00     0.069 A 
HETATM   23  C   UNL     1       3.378  30.815  53.905  1.00  0.00     0.037 A 
HETATM   24  C   UNL     1       3.886  31.841  54.703  1.00  0.00     0.004 A 
HETATM   25  C   UNL     1       4.860  31.566  55.663  1.00  0.00     0.014 A 
BRANCH  22  26
HETATM   26  O   UNL     1       3.441  28.420  53.344  1.00  0.00    -0.356 OA
HETATM   27  C   UNL     1       4.416  27.413  53.103  1.00  0.00     0.210 C 
ENDBRANCH  22  26
ENDBRANCH   1  20
BRANCH   3  28
HETATM   28  C   UNL     1       7.897  30.964  59.856  1.00  0.00     0.058 A 
HETATM   29  C   UNL     1       7.108  32.007  60.366  1.00  0.00     0.031 A 
HETATM   30  C   UNL     1       7.455  32.632  61.566  1.00  0.00     0.002 A 
HETATM   31  C   UNL     1       8.593  32.227  62.261  1.00  0.00     0.000 A 
HETATM   32  C   UNL     1       9.384  31.194  61.759  1.00  0.00     0.002 A 
HETATM   33  C   UNL     1       9.040  30.561  60.560  1.00  0.00     0.031 A 
ENDBRANCH   3  28
TORSDOF 6
ENDMDL
