MODEL 1
REMARK VINA RESULT:     -10.1      0.000      0.000
REMARK  8 active torsions:
REMARK  status: ('A' for Active; 'I' for Inactive)
REMARK    1  A    between atoms: O_2  and  C_3 
REMARK    2  A    between atoms: C_6  and  C_7 
REMARK    3  A    between atoms: C_7  and  N_8 
REMARK    4  A    between atoms: C_7  and  C_27 
REMARK    5  A    between atoms: N_8  and  C_11 
REMARK    6  A    between atoms: C_11  and  C_12 
REMARK       I    between atoms: C_12  and  N_13 
REMARK    7  A    between atoms: N_13  and  C_14 
REMARK    8  A    between atoms: C_17  and  N_18 
ROOT
HETATM    1  N   UNL     1       7.690  25.361  56.179  1.00  0.00    -0.055 N 
HETATM    2  H   UNL     1       6.710  25.153  56.427  1.00  0.00     0.278 HD
HETATM    3  H   UNL     1       8.266  25.110  56.984  1.00  0.00     0.278 HD
ENDROOT
BRANCH   1   4
HETATM    4  C   UNL     1       8.010  24.473  55.004  1.00  0.00     0.252 C 
BRANCH   4   5
HETATM    5  C   UNL     1       7.133  24.769  53.798  1.00  0.00    -0.023 A 
HETATM    6  C   UNL     1       5.733  24.694  53.932  1.00  0.00     0.012 A 
HETATM    7  C   UNL     1       4.885  25.022  52.868  1.00  0.00     0.037 A 
HETATM    8  C   UNL     1       5.417  25.436  51.651  1.00  0.00     0.068 A 
HETATM    9  C   UNL     1       6.802  25.486  51.497  1.00  0.00     0.037 A 
HETATM   10  C   UNL     1       7.656  25.165  52.558  1.00  0.00     0.012 A 
BRANCH   8  11
HETATM   11  O   UNL     1       4.702  25.804  50.549  1.00  0.00    -0.356 OA
HETATM   12  C   UNL     1       4.835  27.160  50.130  1.00  0.00     0.210 C 
ENDBRANCH   8  11
ENDBRANCH   4   5
BRANCH   4  13
HETATM   13  C   UNL     1       8.034  22.998  55.372  1.00  0.00    -0.023 A 
HETATM   14  C   UNL     1       8.288  22.621  56.704  1.00  0.00     0.009 A 
HETATM   15  C   UNL     1       8.303  21.274  57.072  1.00  0.00     0.001 A 
HETATM   16  C   UNL     1       8.066  20.287  56.119  1.00  0.00     0.000 A 
HETATM   17  C   UNL     1       7.819  20.643  54.796  1.00  0.00     0.001 A 
HETATM   18  C   UNL     1       7.804  21.987  54.421  1.00  0.00     0.009 A 
ENDBRANCH   4  13
ENDBRANCH   1   4
BRANCH   1  19
HETATM   19  C   UNL     1       7.762  26.849  55.911  1.00  0.00     0.336 C 
BRANCH  19  20
HETATM   20  C   UNL     1       7.798  27.624  57.226  1.00  0.00     0.248 C 
HETATM   21  N   UNL     1       7.833  28.996  57.087  1.00  0.00    -0.326 N 
HETATM   22  H   UNL     1       7.867  29.396  56.155  1.00  0.00     0.169 HD
HETATM   23  O   UNL     1       7.666  26.978  58.264  1.00  0.00    -0.271 OA
BRANCH  21  24
HETATM   24  C   UNL     1       7.695  29.943  58.128  1.00  0.00     0.034 A 
HETATM   25  C   UNL     1       8.609  30.098  59.166  1.00  0.00     0.032 A 
HETATM   26  C   UNL     1       8.366  31.014  60.201  1.00  0.00     0.032 A 
HETATM   27  C   UNL     1       7.204  31.790  60.240  1.00  0.00     0.037 A 
HETATM   28  C   UNL     1       6.313  31.657  59.166  1.00  0.00     0.032 A 
HETATM   29  C   UNL     1       6.557  30.753  58.120  1.00  0.00     0.032 A 
BRANCH  27  30
HETATM   30  N   UNL     1       6.919  32.666  61.325  1.00  0.00    -0.318 N 
HETATM   31  C   UNL     1       7.487  32.606  62.610  1.00  0.00     0.224 C 
HETATM   32  O   UNL     1       8.364  31.870  63.034  1.00  0.00    -0.273 OA
HETATM   33  C   UNL     1       6.754  33.593  63.488  1.00  0.00     0.105 C 
HETATM   34  C   UNL     1       6.080  34.515  62.493  1.00  0.00     0.029 C 
HETATM   35  C   UNL     1       5.838  33.624  61.293  1.00  0.00     0.133 C 
ENDBRANCH  27  30
ENDBRANCH  21  24
ENDBRANCH  19  20
ENDBRANCH   1  19
TORSDOF 8
ENDMDL
MODEL 2
REMARK VINA RESULT:      -9.7      2.373      2.727
REMARK  8 active torsions:
REMARK  status: ('A' for Active; 'I' for Inactive)
REMARK    1  A    between atoms: O_2  and  C_3 
REMARK    2  A    between atoms: C_6  and  C_7 
REMARK    3  A    between atoms: C_7  and  N_8 
REMARK    4  A    between atoms: C_7  and  C_27 
REMARK    5  A    between atoms: N_8  and  C_11 
REMARK    6  A    between atoms: C_11  and  C_12 
REMARK       I    between atoms: C_12  and  N_13 
REMARK    7  A    between atoms: N_13  and  C_14 
REMARK    8  A    between atoms: C_17  and  N_18 
ROOT
HETATM    1  N   UNL     1       7.481  24.715  56.208  1.00  0.00    -0.055 N 
HETATM    2  H   UNL     1       6.538  25.087  56.011  1.00  0.00     0.278 HD
HETATM    3  H   UNL     1       7.374  23.966  56.893  1.00  0.00     0.278 HD
ENDROOT
BRANCH   1   4
HETATM    4  C   UNL     1       7.983  24.165  54.898  1.00  0.00     0.252 C 
BRANCH   4   5
HETATM    5  C   UNL     1       7.139  24.617  53.717  1.00  0.00    -0.023 A 
HETATM    6  C   UNL     1       5.736  24.551  53.811  1.00  0.00     0.012 A 
HETATM    7  C   UNL     1       4.917  25.018  52.775  1.00  0.00     0.037 A 
HETATM    8  C   UNL     1       5.484  25.565  51.629  1.00  0.00     0.068 A 
HETATM    9  C   UNL     1       6.873  25.608  51.511  1.00  0.00     0.037 A 
HETATM   10  C   UNL     1       7.697  25.148  52.544  1.00  0.00     0.012 A 
BRANCH   8  11
HETATM   11  O   UNL     1       4.801  26.073  50.562  1.00  0.00    -0.356 OA
HETATM   12  C   UNL     1       5.081  27.427  50.217  1.00  0.00     0.210 C 
ENDBRANCH   8  11
ENDBRANCH   4   5
BRANCH   4  13
HETATM   13  C   UNL     1       8.192  22.660  54.935  1.00  0.00    -0.023 A 
HETATM   14  C   UNL     1       8.051  21.971  56.154  1.00  0.00     0.009 A 
HETATM   15  C   UNL     1       8.224  20.587  56.215  1.00  0.00     0.001 A 
HETATM   16  C   UNL     1       8.541  19.872  55.064  1.00  0.00     0.000 A 
HETATM   17  C   UNL     1       8.690  20.538  53.850  1.00  0.00     0.001 A 
HETATM   18  C   UNL     1       8.519  21.922  53.783  1.00  0.00     0.009 A 
ENDBRANCH   4  13
ENDBRANCH   1   4
BRANCH   1  19
HETATM   19  C   UNL     1       8.285  25.861  56.784  1.00  0.00     0.336 C 
BRANCH  19  20
HETATM   20  C   UNL     1       7.574  27.189  56.529  1.00  0.00     0.248 C 
HETATM   21  N   UNL     1       7.065  27.797  57.658  1.00  0.00    -0.326 N 
HETATM   22  H   UNL     1       7.156  27.329  58.553  1.00  0.00     0.169 HD
HETATM   23  O   UNL     1       7.631  27.648  55.390  1.00  0.00    -0.271 OA
BRANCH  21  24
HETATM   24  C   UNL     1       6.522  29.100  57.729  1.00  0.00     0.034 A 
HETATM   25  C   UNL     1       7.222  30.212  58.185  1.00  0.00     0.032 A 
HETATM   26  C   UNL     1       6.590  31.461  58.292  1.00  0.00     0.032 A 
HETATM   27  C   UNL     1       5.243  31.635  57.960  1.00  0.00     0.037 A 
HETATM   28  C   UNL     1       4.561  30.518  57.460  1.00  0.00     0.032 A 
HETATM   29  C   UNL     1       5.192  29.270  57.338  1.00  0.00     0.032 A 
BRANCH  27  30
HETATM   30  N   UNL     1       4.579  32.882  58.137  1.00  0.00    -0.318 N 
HETATM   31  C   UNL     1       4.706  34.013  57.311  1.00  0.00     0.224 C 
HETATM   32  O   UNL     1       5.327  34.143  56.268  1.00  0.00    -0.273 OA
HETATM   33  C   UNL     1       3.983  35.159  57.979  1.00  0.00     0.105 C 
HETATM   34  C   UNL     1       3.071  34.468  58.972  1.00  0.00     0.029 C 
HETATM   35  C   UNL     1       3.827  33.205  59.327  1.00  0.00     0.133 C 
ENDBRANCH  27  30
ENDBRANCH  21  24
ENDBRANCH  19  20
ENDBRANCH   1  19
TORSDOF 8
ENDMDL
MODEL 3
REMARK VINA RESULT:      -9.7      3.316      3.864
REMARK  8 active torsions:
REMARK  status: ('A' for Active; 'I' for Inactive)
REMARK    1  A    between atoms: O_2  and  C_3 
REMARK    2  A    between atoms: C_6  and  C_7 
REMARK    3  A    between atoms: C_7  and  N_8 
REMARK    4  A    between atoms: C_7  and  C_27 
REMARK    5  A    between atoms: N_8  and  C_11 
REMARK    6  A    between atoms: C_11  and  C_12 
REMARK       I    between atoms: C_12  and  N_13 
REMARK    7  A    between atoms: N_13  and  C_14 
REMARK    8  A    between atoms: C_17  and  N_18 
ROOT
HETATM    1  N   UNL     1       7.431  24.387  56.288  1.00  0.00    -0.055 N 
HETATM    2  H   UNL     1       6.574  24.932  56.098  1.00  0.00     0.278 HD
HETATM    3  H   UNL     1       7.150  23.550  56.800  1.00  0.00     0.278 HD
ENDROOT
BRANCH   1   4
HETATM    4  C   UNL     1       7.987  24.019  54.937  1.00  0.00     0.252 C 
BRANCH   4   5
HETATM    5  C   UNL     1       7.139  24.556  53.795  1.00  0.00    -0.023 A 
HETATM    6  C   UNL     1       5.737  24.560  53.923  1.00  0.00     0.012 A 
HETATM    7  C   UNL     1       4.919  25.104  52.926  1.00  0.00     0.037 A 
HETATM    8  C   UNL     1       5.486  25.661  51.784  1.00  0.00     0.068 A 
HETATM    9  C   UNL     1       6.872  25.635  51.631  1.00  0.00     0.037 A 
HETATM   10  C   UNL     1       7.695  25.098  52.626  1.00  0.00     0.012 A 
BRANCH   8  11
HETATM   11  O   UNL     1       4.804  26.241  50.754  1.00  0.00    -0.356 OA
HETATM   12  C   UNL     1       5.243  27.536  50.353  1.00  0.00     0.210 C 
ENDBRANCH   8  11
ENDBRANCH   4   5
BRANCH   4  13
HETATM   13  C   UNL     1       8.282  22.533  54.809  1.00  0.00    -0.023 A 
HETATM   14  C   UNL     1       8.448  21.757  55.971  1.00  0.00     0.009 A 
HETATM   15  C   UNL     1       8.706  20.388  55.883  1.00  0.00     0.001 A 
HETATM   16  C   UNL     1       8.804  19.775  54.637  1.00  0.00     0.000 A 
HETATM   17  C   UNL     1       8.649  20.529  53.477  1.00  0.00     0.001 A 
HETATM   18  C   UNL     1       8.391  21.898  53.558  1.00  0.00     0.009 A 
ENDBRANCH   4  13
ENDBRANCH   1   4
BRANCH   1  19
HETATM   19  C   UNL     1       8.320  25.266  57.142  1.00  0.00     0.336 C 
BRANCH  19  20
HETATM   20  C   UNL     1       7.929  26.734  56.979  1.00  0.00     0.248 C 
HETATM   21  N   UNL     1       6.669  26.941  56.457  1.00  0.00    -0.326 N 
HETATM   22  H   UNL     1       6.109  26.138  56.188  1.00  0.00     0.169 HD
HETATM   23  O   UNL     1       8.700  27.576  57.436  1.00  0.00    -0.271 OA
BRANCH  21  24
HETATM   24  C   UNL     1       5.997  28.181  56.368  1.00  0.00     0.034 A 
HETATM   25  C   UNL     1       5.520  28.890  57.465  1.00  0.00     0.032 A 
HETATM   26  C   UNL     1       4.801  30.083  57.290  1.00  0.00     0.032 A 
HETATM   27  C   UNL     1       4.527  30.596  56.019  1.00  0.00     0.037 A 
HETATM   28  C   UNL     1       5.051  29.896  54.923  1.00  0.00     0.032 A 
HETATM   29  C   UNL     1       5.782  28.711  55.093  1.00  0.00     0.032 A 
BRANCH  27  30
HETATM   30  N   UNL     1       3.735  31.764  55.833  1.00  0.00    -0.318 N 
HETATM   31  C   UNL     1       4.113  33.081  56.152  1.00  0.00     0.224 C 
HETATM   32  O   UNL     1       5.181  33.498  56.570  1.00  0.00    -0.273 OA
HETATM   33  C   UNL     1       2.902  33.967  55.974  1.00  0.00     0.105 C 
HETATM   34  C   UNL     1       1.986  33.138  55.098  1.00  0.00     0.029 C 
HETATM   35  C   UNL     1       2.339  31.712  55.465  1.00  0.00     0.133 C 
ENDBRANCH  27  30
ENDBRANCH  21  24
ENDBRANCH  19  20
ENDBRANCH   1  19
TORSDOF 8
ENDMDL
MODEL 4
REMARK VINA RESULT:      -9.7      2.509      3.800
REMARK  8 active torsions:
REMARK  status: ('A' for Active; 'I' for Inactive)
REMARK    1  A    between atoms: O_2  and  C_3 
REMARK    2  A    between atoms: C_6  and  C_7 
REMARK    3  A    between atoms: C_7  and  N_8 
REMARK    4  A    between atoms: C_7  and  C_27 
REMARK    5  A    between atoms: N_8  and  C_11 
REMARK    6  A    between atoms: C_11  and  C_12 
REMARK       I    between atoms: C_12  and  N_13 
REMARK    7  A    between atoms: N_13  and  C_14 
REMARK    8  A    between atoms: C_17  and  N_18 
ROOT
HETATM    1  N   UNL     1       4.221  27.109  53.287  1.00  0.00    -0.055 N 
HETATM    2  H   UNL     1       3.359  26.909  52.755  1.00  0.00     0.278 HD
HETATM    3  H   UNL     1       4.253  26.453  54.069  1.00  0.00     0.278 HD
ENDROOT
BRANCH   1   4
HETATM    4  C   UNL     1       5.358  26.850  52.334  1.00  0.00     0.252 C 
BRANCH   4   5
HETATM    5  C   UNL     1       4.895  26.770  50.888  1.00  0.00    -0.023 A 
HETATM    6  C   UNL     1       5.116  27.868  50.034  1.00  0.00     0.012 A 
HETATM    7  C   UNL     1       4.767  27.815  48.680  1.00  0.00     0.037 A 
HETATM    8  C   UNL     1       4.196  26.663  48.149  1.00  0.00     0.068 A 
HETATM    9  C   UNL     1       3.945  25.579  48.991  1.00  0.00     0.037 A 
HETATM   10  C   UNL     1       4.296  25.623  50.344  1.00  0.00     0.012 A 
BRANCH   8  11
HETATM   11  O   UNL     1       3.833  26.476  46.847  1.00  0.00    -0.356 OA
HETATM   12  C   UNL     1       2.561  25.876  46.623  1.00  0.00     0.210 C 
ENDBRANCH   8  11
ENDBRANCH   4   5
BRANCH   4  13
HETATM   13  C   UNL     1       6.214  25.664  52.749  1.00  0.00    -0.023 A 
HETATM   14  C   UNL     1       5.895  24.956  53.922  1.00  0.00     0.009 A 
HETATM   15  C   UNL     1       6.656  23.856  54.320  1.00  0.00     0.001 A 
HETATM   16  C   UNL     1       7.745  23.447  53.555  1.00  0.00     0.000 A 
HETATM   17  C   UNL     1       8.078  24.139  52.395  1.00  0.00     0.001 A 
HETATM   18  C   UNL     1       7.322  25.241  51.992  1.00  0.00     0.009 A 
ENDBRANCH   4  13
ENDBRANCH   1   4
BRANCH   1  19
HETATM   19  C   UNL     1       4.099  28.533  53.786  1.00  0.00     0.336 C 
BRANCH  19  20
HETATM   20  C   UNL     1       4.702  28.659  55.184  1.00  0.00     0.248 C 
HETATM   21  N   UNL     1       5.537  29.744  55.357  1.00  0.00    -0.326 N 
HETATM   22  H   UNL     1       5.723  30.352  54.567  1.00  0.00     0.169 HD
HETATM   23  O   UNL     1       4.299  27.877  56.043  1.00  0.00    -0.271 OA
BRANCH  21  24
HETATM   24  C   UNL     1       6.080  30.190  56.583  1.00  0.00     0.034 A 
HETATM   25  C   UNL     1       5.688  31.356  57.231  1.00  0.00     0.032 A 
HETATM   26  C   UNL     1       6.325  31.768  58.412  1.00  0.00     0.032 A 
HETATM   27  C   UNL     1       7.377  31.038  58.973  1.00  0.00     0.037 A 
HETATM   28  C   UNL     1       7.733  29.842  58.335  1.00  0.00     0.032 A 
HETATM   29  C   UNL     1       7.090  29.418  57.162  1.00  0.00     0.032 A 
BRANCH  27  30
HETATM   30  N   UNL     1       8.075  31.490  60.128  1.00  0.00    -0.318 N 
HETATM   31  C   UNL     1       9.399  31.963  60.165  1.00  0.00     0.224 C 
HETATM   32  O   UNL     1      10.178  32.151  59.244  1.00  0.00    -0.273 OA
HETATM   33  C   UNL     1       9.787  32.143  61.614  1.00  0.00     0.105 C 
HETATM   34  C   UNL     1       8.455  32.188  62.332  1.00  0.00     0.029 C 
HETATM   35  C   UNL     1       7.557  31.328  61.468  1.00  0.00     0.133 C 
ENDBRANCH  27  30
ENDBRANCH  21  24
ENDBRANCH  19  20
ENDBRANCH   1  19
TORSDOF 8
ENDMDL
MODEL 5
REMARK VINA RESULT:      -9.6      3.394      5.559
REMARK  8 active torsions:
REMARK  status: ('A' for Active; 'I' for Inactive)
REMARK    1  A    between atoms: O_2  and  C_3 
REMARK    2  A    between atoms: C_6  and  C_7 
REMARK    3  A    between atoms: C_7  and  N_8 
REMARK    4  A    between atoms: C_7  and  C_27 
REMARK    5  A    between atoms: N_8  and  C_11 
REMARK    6  A    between atoms: C_11  and  C_12 
REMARK       I    between atoms: C_12  and  N_13 
REMARK    7  A    between atoms: N_13  and  C_14 
REMARK    8  A    between atoms: C_17  and  N_18 
ROOT
HETATM    1  N   UNL     1       6.437  24.546  52.839  1.00  0.00    -0.055 N 
HETATM    2  H   UNL     1       7.040  25.384  52.873  1.00  0.00     0.278 HD
HETATM    3  H   UNL     1       6.849  23.904  52.162  1.00  0.00     0.278 HD
ENDROOT
BRANCH   1   4
HETATM    4  C   UNL     1       6.485  23.954  54.224  1.00  0.00     0.252 C 
BRANCH   4   5
HETATM    5  C   UNL     1       6.904  24.970  55.275  1.00  0.00    -0.023 A 
HETATM    6  C   UNL     1       7.600  26.127  54.873  1.00  0.00     0.012 A 
HETATM    7  C   UNL     1       7.948  27.120  55.795  1.00  0.00     0.037 A 
HETATM    8  C   UNL     1       7.603  26.982  57.136  1.00  0.00     0.068 A 
HETATM    9  C   UNL     1       6.941  25.827  57.551  1.00  0.00     0.037 A 
HETATM   10  C   UNL     1       6.585  24.833  56.634  1.00  0.00     0.012 A 
BRANCH   8  11
HETATM   11  O   UNL     1       7.863  27.885  58.126  1.00  0.00    -0.356 OA
HETATM   12  C   UNL     1       8.501  29.095  57.729  1.00  0.00     0.210 C 
ENDBRANCH   8  11
ENDBRANCH   4   5
BRANCH   4  13
HETATM   13  C   UNL     1       7.294  22.669  54.286  1.00  0.00    -0.023 A 
HETATM   14  C   UNL     1       7.770  22.093  53.094  1.00  0.00     0.009 A 
HETATM   15  C   UNL     1       8.527  20.920  53.122  1.00  0.00     0.001 A 
HETATM   16  C   UNL     1       8.817  20.306  54.337  1.00  0.00     0.000 A 
HETATM   17  C   UNL     1       8.349  20.859  55.526  1.00  0.00     0.001 A 
HETATM   18  C   UNL     1       7.591  22.032  55.504  1.00  0.00     0.009 A 
ENDBRANCH   4  13
ENDBRANCH   1   4
BRANCH   1  19
HETATM   19  C   UNL     1       5.073  25.014  52.377  1.00  0.00     0.336 C 
BRANCH  19  20
HETATM   20  C   UNL     1       4.967  26.533  52.493  1.00  0.00     0.248 C 
HETATM   21  N   UNL     1       4.267  26.980  53.595  1.00  0.00    -0.326 N 
HETATM   22  H   UNL     1       3.849  26.300  54.222  1.00  0.00     0.169 HD
HETATM   23  O   UNL     1       5.607  27.206  51.687  1.00  0.00    -0.271 OA
BRANCH  21  24
HETATM   24  C   UNL     1       4.169  28.321  54.033  1.00  0.00     0.034 A 
HETATM   25  C   UNL     1       3.538  29.331  53.314  1.00  0.00     0.032 A 
HETATM   26  C   UNL     1       3.544  30.654  53.784  1.00  0.00     0.032 A 
HETATM   27  C   UNL     1       4.188  31.010  54.973  1.00  0.00     0.037 A 
HETATM   28  C   UNL     1       4.781  29.975  55.710  1.00  0.00     0.032 A 
HETATM   29  C   UNL     1       4.766  28.649  55.252  1.00  0.00     0.032 A 
BRANCH  27  30
HETATM   30  N   UNL     1       4.260  32.360  55.415  1.00  0.00    -0.318 N 
HETATM   31  C   UNL     1       3.632  32.895  56.554  1.00  0.00     0.224 C 
HETATM   32  O   UNL     1       2.978  32.326  57.414  1.00  0.00    -0.273 OA
HETATM   33  C   UNL     1       3.817  34.394  56.526  1.00  0.00     0.105 C 
HETATM   34  C   UNL     1       4.971  34.587  55.565  1.00  0.00     0.029 C 
HETATM   35  C   UNL     1       4.843  33.415  54.616  1.00  0.00     0.133 C 
ENDBRANCH  27  30
ENDBRANCH  21  24
ENDBRANCH  19  20
ENDBRANCH   1  19
TORSDOF 8
ENDMDL
MODEL 6
REMARK VINA RESULT:      -9.5      2.762      4.155
REMARK  8 active torsions:
REMARK  status: ('A' for Active; 'I' for Inactive)
REMARK    1  A    between atoms: O_2  and  C_3 
REMARK    2  A    between atoms: C_6  and  C_7 
REMARK    3  A    between atoms: C_7  and  N_8 
REMARK    4  A    between atoms: C_7  and  C_27 
REMARK    5  A    between atoms: N_8  and  C_11 
REMARK    6  A    between atoms: C_11  and  C_12 
REMARK       I    between atoms: C_12  and  N_13 
REMARK    7  A    between atoms: N_13  and  C_14 
REMARK    8  A    between atoms: C_17  and  N_18 
ROOT
HETATM    1  N   UNL     1       8.749  28.168  57.200  1.00  0.00    -0.055 N 
HETATM    2  H   UNL     1       8.120  28.412  57.982  1.00  0.00     0.278 HD
HETATM    3  H   UNL     1       9.302  27.363  57.497  1.00  0.00     0.278 HD
ENDROOT
BRANCH   1   4
HETATM    4  C   UNL     1       7.845  27.793  56.054  1.00  0.00     0.252 C 
BRANCH   4   5
HETATM    5  C   UNL     1       6.513  28.524  56.102  1.00  0.00    -0.023 A 
HETATM    6  C   UNL     1       5.868  28.694  57.342  1.00  0.00     0.012 A 
HETATM    7  C   UNL     1       4.674  29.417  57.444  1.00  0.00     0.037 A 
HETATM    8  C   UNL     1       4.103  29.989  56.312  1.00  0.00     0.068 A 
HETATM    9  C   UNL     1       4.717  29.801  55.073  1.00  0.00     0.037 A 
HETATM   10  C   UNL     1       5.913  29.085  54.965  1.00  0.00     0.012 A 
BRANCH   8  11
HETATM   11  O   UNL     1       2.959  30.733  56.281  1.00  0.00    -0.356 OA
HETATM   12  C   UNL     1       2.695  31.438  55.071  1.00  0.00     0.210 C 
ENDBRANCH   8  11
ENDBRANCH   4   5
BRANCH   4  13
HETATM   13  C   UNL     1       7.691  26.289  55.896  1.00  0.00    -0.023 A 
HETATM   14  C   UNL     1       7.338  25.757  54.642  1.00  0.00     0.009 A 
HETATM   15  C   UNL     1       7.202  24.379  54.465  1.00  0.00     0.001 A 
HETATM   16  C   UNL     1       7.415  23.514  55.534  1.00  0.00     0.000 A 
HETATM   17  C   UNL     1       7.759  24.023  56.783  1.00  0.00     0.001 A 
HETATM   18  C   UNL     1       7.895  25.400  56.967  1.00  0.00     0.009 A 
ENDBRANCH   4  13
ENDBRANCH   1   4
BRANCH   1  19
HETATM   19  C   UNL     1       9.635  29.373  56.965  1.00  0.00     0.336 C 
BRANCH  19  20
HETATM   20  C   UNL     1       9.408  30.418  58.056  1.00  0.00     0.248 C 
HETATM   21  N   UNL     1       8.395  30.117  58.943  1.00  0.00    -0.326 N 
HETATM   22  H   UNL     1       7.855  29.268  58.804  1.00  0.00     0.169 HD
HETATM   23  O   UNL     1      10.212  31.346  58.122  1.00  0.00    -0.271 OA
BRANCH  21  24
HETATM   24  C   UNL     1       8.095  30.816  60.134  1.00  0.00     0.034 A 
HETATM   25  C   UNL     1       8.793  30.657  61.327  1.00  0.00     0.032 A 
HETATM   26  C   UNL     1       8.389  31.337  62.487  1.00  0.00     0.032 A 
HETATM   27  C   UNL     1       7.275  32.181  62.496  1.00  0.00     0.037 A 
HETATM   28  C   UNL     1       6.608  32.367  61.277  1.00  0.00     0.032 A 
HETATM   29  C   UNL     1       7.015  31.701  60.111  1.00  0.00     0.032 A 
BRANCH  27  30
HETATM   30  N   UNL     1       6.819  32.814  63.686  1.00  0.00    -0.318 N 
HETATM   31  C   UNL     1       5.479  32.950  64.091  1.00  0.00     0.224 C 
HETATM   32  O   UNL     1       4.466  32.511  63.571  1.00  0.00    -0.273 OA
HETATM   33  C   UNL     1       5.450  33.852  65.302  1.00  0.00     0.105 C 
HETATM   34  C   UNL     1       6.879  33.814  65.803  1.00  0.00     0.029 C 
HETATM   35  C   UNL     1       7.689  33.584  64.545  1.00  0.00     0.133 C 
ENDBRANCH  27  30
ENDBRANCH  21  24
ENDBRANCH  19  20
ENDBRANCH   1  19
TORSDOF 8
ENDMDL
MODEL 7
REMARK VINA RESULT:      -9.2      2.413      5.149
REMARK  8 active torsions:
REMARK  status: ('A' for Active; 'I' for Inactive)
REMARK    1  A    between atoms: O_2  and  C_3 
REMARK    2  A    between atoms: C_6  and  C_7 
REMARK    3  A    between atoms: C_7  and  N_8 
REMARK    4  A    between atoms: C_7  and  C_27 
REMARK    5  A    between atoms: N_8  and  C_11 
REMARK    6  A    between atoms: C_11  and  C_12 
REMARK       I    between atoms: C_12  and  N_13 
REMARK    7  A    between atoms: N_13  and  C_14 
REMARK    8  A    between atoms: C_17  and  N_18 
ROOT
HETATM    1  N   UNL     1       5.332  28.159  52.884  1.00  0.00    -0.055 N 
HETATM    2  H   UNL     1       6.070  27.891  53.554  1.00  0.00     0.278 HD
HETATM    3  H   UNL     1       5.725  28.874  52.270  1.00  0.00     0.278 HD
ENDROOT
BRANCH   1   4
HETATM    4  C   UNL     1       5.019  26.909  52.103  1.00  0.00     0.252 C 
BRANCH   4   5
HETATM    5  C   UNL     1       5.894  25.735  52.512  1.00  0.00    -0.023 A 
HETATM    6  C   UNL     1       7.065  25.463  51.779  1.00  0.00     0.012 A 
HETATM    7  C   UNL     1       7.935  24.434  52.157  1.00  0.00     0.037 A 
HETATM    8  C   UNL     1       7.656  23.660  53.279  1.00  0.00     0.068 A 
HETATM    9  C   UNL     1       6.484  23.900  53.996  1.00  0.00     0.037 A 
HETATM   10  C   UNL     1       5.613  24.930  53.626  1.00  0.00     0.012 A 
BRANCH   8  11
HETATM   11  O   UNL     1       8.432  22.647  53.766  1.00  0.00    -0.356 OA
HETATM   12  C   UNL     1       8.213  21.357  53.205  1.00  0.00     0.210 C 
ENDBRANCH   8  11
ENDBRANCH   4   5
BRANCH   4  13
HETATM   13  C   UNL     1       5.005  27.143  50.601  1.00  0.00    -0.023 A 
HETATM   14  C   UNL     1       5.491  28.357  50.085  1.00  0.00     0.009 A 
HETATM   15  C   UNL     1       5.502  28.594  48.709  1.00  0.00     0.001 A 
HETATM   16  C   UNL     1       5.027  27.624  47.830  1.00  0.00     0.000 A 
HETATM   17  C   UNL     1       4.536  26.419  48.324  1.00  0.00     0.001 A 
HETATM   18  C   UNL     1       4.522  26.177  49.699  1.00  0.00     0.009 A 
ENDBRANCH   4  13
ENDBRANCH   1   4
BRANCH   1  19
HETATM   19  C   UNL     1       4.189  28.720  53.702  1.00  0.00     0.336 C 
BRANCH  19  20
HETATM   20  C   UNL     1       4.628  28.932  55.150  1.00  0.00     0.248 C 
HETATM   21  N   UNL     1       5.787  29.666  55.300  1.00  0.00    -0.326 N 
HETATM   22  H   UNL     1       6.282  29.979  54.472  1.00  0.00     0.169 HD
HETATM   23  O   UNL     1       3.860  28.552  56.032  1.00  0.00    -0.271 OA
BRANCH  21  24
HETATM   24  C   UNL     1       6.313  30.152  56.519  1.00  0.00     0.034 A 
HETATM   25  C   UNL     1       7.343  29.537  57.223  1.00  0.00     0.032 A 
HETATM   26  C   UNL     1       7.763  30.043  58.463  1.00  0.00     0.032 A 
HETATM   27  C   UNL     1       7.163  31.166  59.041  1.00  0.00     0.037 A 
HETATM   28  C   UNL     1       6.157  31.802  58.301  1.00  0.00     0.032 A 
HETATM   29  C   UNL     1       5.742  31.309  57.054  1.00  0.00     0.032 A 
BRANCH  27  30
HETATM   30  N   UNL     1       7.535  31.638  60.331  1.00  0.00    -0.318 N 
HETATM   31  C   UNL     1       6.664  32.148  61.311  1.00  0.00     0.224 C 
HETATM   32  O   UNL     1       5.446  32.223  61.298  1.00  0.00    -0.273 OA
HETATM   33  C   UNL     1       7.505  32.709  62.433  1.00  0.00     0.105 C 
HETATM   34  C   UNL     1       8.856  32.056  62.220  1.00  0.00     0.029 C 
HETATM   35  C   UNL     1       8.912  31.838  60.723  1.00  0.00     0.133 C 
ENDBRANCH  27  30
ENDBRANCH  21  24
ENDBRANCH  19  20
ENDBRANCH   1  19
TORSDOF 8
ENDMDL
MODEL 8
REMARK VINA RESULT:      -9.1      2.841      5.536
REMARK  8 active torsions:
REMARK  status: ('A' for Active; 'I' for Inactive)
REMARK    1  A    between atoms: O_2  and  C_3 
REMARK    2  A    between atoms: C_6  and  C_7 
REMARK    3  A    between atoms: C_7  and  N_8 
REMARK    4  A    between atoms: C_7  and  C_27 
REMARK    5  A    between atoms: N_8  and  C_11 
REMARK    6  A    between atoms: C_11  and  C_12 
REMARK       I    between atoms: C_12  and  N_13 
REMARK    7  A    between atoms: N_13  and  C_14 
REMARK    8  A    between atoms: C_17  and  N_18 
ROOT
HETATM    1  N   UNL     1       5.873  28.926  57.609  1.00  0.00    -0.055 N 
HETATM    2  H   UNL     1       5.394  28.022  57.749  1.00  0.00     0.278 HD
HETATM    3  H   UNL     1       6.266  29.203  58.509  1.00  0.00     0.278 HD
ENDROOT
BRANCH   1   4
HETATM    4  C   UNL     1       6.971  28.654  56.614  1.00  0.00     0.252 C 
BRANCH   4   5
HETATM    5  C   UNL     1       7.131  27.172  56.317  1.00  0.00    -0.023 A 
HETATM    6  C   UNL     1       7.253  26.266  57.388  1.00  0.00     0.012 A 
HETATM    7  C   UNL     1       7.336  24.887  57.165  1.00  0.00     0.037 A 
HETATM    8  C   UNL     1       7.293  24.384  55.868  1.00  0.00     0.068 A 
HETATM    9  C   UNL     1       7.203  25.273  54.797  1.00  0.00     0.037 A 
HETATM   10  C   UNL     1       7.114  26.652  55.013  1.00  0.00     0.012 A 
BRANCH   8  11
HETATM   11  O   UNL     1       7.341  23.065  55.519  1.00  0.00    -0.356 OA
HETATM   12  C   UNL     1       7.458  22.782  54.128  1.00  0.00     0.210 C 
ENDBRANCH   8  11
ENDBRANCH   4   5
BRANCH   4  13
HETATM   13  C   UNL     1       8.281  29.329  56.986  1.00  0.00    -0.023 A 
HETATM   14  C   UNL     1       8.407  29.950  58.243  1.00  0.00     0.009 A 
HETATM   15  C   UNL     1       9.603  30.566  58.616  1.00  0.00     0.001 A 
HETATM   16  C   UNL     1      10.688  30.572  57.743  1.00  0.00     0.000 A 
HETATM   17  C   UNL     1      10.578  29.967  56.494  1.00  0.00     0.001 A 
HETATM   18  C   UNL     1       9.385  29.350  56.114  1.00  0.00     0.009 A 
ENDBRANCH   4  13
ENDBRANCH   1   4
BRANCH   1  19
HETATM   19  C   UNL     1       4.814  29.910  57.159  1.00  0.00     0.336 C 
BRANCH  19  20
HETATM   20  C   UNL     1       4.915  31.203  57.967  1.00  0.00     0.248 C 
HETATM   21  N   UNL     1       4.367  31.137  59.232  1.00  0.00    -0.326 N 
HETATM   22  H   UNL     1       3.914  30.279  59.528  1.00  0.00     0.169 HD
HETATM   23  O   UNL     1       5.573  32.121  57.481  1.00  0.00    -0.271 OA
BRANCH  21  24
HETATM   24  C   UNL     1       4.479  32.122  60.240  1.00  0.00     0.034 A 
HETATM   25  C   UNL     1       5.654  32.402  60.928  1.00  0.00     0.032 A 
HETATM   26  C   UNL     1       5.668  33.347  61.966  1.00  0.00     0.032 A 
HETATM   27  C   UNL     1       4.511  34.029  62.356  1.00  0.00     0.037 A 
HETATM   28  C   UNL     1       3.343  33.770  61.625  1.00  0.00     0.032 A 
HETATM   29  C   UNL     1       3.327  32.836  60.577  1.00  0.00     0.032 A 
BRANCH  27  30
HETATM   30  N   UNL     1       4.504  34.932  63.455  1.00  0.00    -0.318 N 
HETATM   31  C   UNL     1       4.368  34.587  64.812  1.00  0.00     0.224 C 
HETATM   32  O   UNL     1       4.306  33.481  65.325  1.00  0.00    -0.273 OA
HETATM   33  C   UNL     1       4.216  35.864  65.603  1.00  0.00     0.105 C 
HETATM   34  C   UNL     1       4.743  36.927  64.660  1.00  0.00     0.029 C 
HETATM   35  C   UNL     1       4.436  36.366  63.288  1.00  0.00     0.133 C 
ENDBRANCH  27  30
ENDBRANCH  21  24
ENDBRANCH  19  20
ENDBRANCH   1  19
TORSDOF 8
ENDMDL
MODEL 9
REMARK VINA RESULT:      -9.1      2.334      3.219
REMARK  8 active torsions:
REMARK  status: ('A' for Active; 'I' for Inactive)
REMARK    1  A    between atoms: O_2  and  C_3 
REMARK    2  A    between atoms: C_6  and  C_7 
REMARK    3  A    between atoms: C_7  and  N_8 
REMARK    4  A    between atoms: C_7  and  C_27 
REMARK    5  A    between atoms: N_8  and  C_11 
REMARK    6  A    between atoms: C_11  and  C_12 
REMARK       I    between atoms: C_12  and  N_13 
REMARK    7  A    between atoms: N_13  and  C_14 
REMARK    8  A    between atoms: C_17  and  N_18 
ROOT
HETATM    1  N   UNL     1       8.080  28.335  56.831  1.00  0.00    -0.055 N 
HETATM    2  H   UNL     1       7.229  28.900  56.983  1.00  0.00     0.278 HD
HETATM    3  H   UNL     1       8.184  27.721  57.639  1.00  0.00     0.278 HD
ENDROOT
BRANCH   1   4
HETATM    4  C   UNL     1       7.814  27.529  55.586  1.00  0.00     0.252 C 
BRANCH   4   5
HETATM    5  C   UNL     1       6.563  27.987  54.854  1.00  0.00    -0.023 A 
HETATM    6  C   UNL     1       6.618  28.195  53.463  1.00  0.00     0.012 A 
HETATM    7  C   UNL     1       5.476  28.553  52.737  1.00  0.00     0.037 A 
HETATM    8  C   UNL     1       4.255  28.703  53.386  1.00  0.00     0.068 A 
HETATM    9  C   UNL     1       4.193  28.529  54.768  1.00  0.00     0.037 A 
HETATM   10  C   UNL     1       5.329  28.167  55.499  1.00  0.00     0.012 A 
BRANCH   8  11
HETATM   11  O   UNL     1       3.068  29.025  52.792  1.00  0.00    -0.356 OA
HETATM   12  C   UNL     1       3.022  28.923  51.372  1.00  0.00     0.210 C 
ENDBRANCH   8  11
ENDBRANCH   4   5
BRANCH   4  13
HETATM   13  C   UNL     1       7.838  26.031  55.841  1.00  0.00    -0.023 A 
HETATM   14  C   UNL     1       8.395  25.540  57.036  1.00  0.00     0.009 A 
HETATM   15  C   UNL     1       8.418  24.170  57.301  1.00  0.00     0.001 A 
HETATM   16  C   UNL     1       7.888  23.271  56.380  1.00  0.00     0.000 A 
HETATM   17  C   UNL     1       7.338  23.739  55.190  1.00  0.00     0.001 A 
HETATM   18  C   UNL     1       7.313  25.108  54.918  1.00  0.00     0.009 A 
ENDBRANCH   4  13
ENDBRANCH   1   4
BRANCH   1  19
HETATM   19  C   UNL     1       9.235  29.309  56.743  1.00  0.00     0.336 C 
BRANCH  19  20
HETATM   20  C   UNL     1       9.231  30.246  57.950  1.00  0.00     0.248 C 
HETATM   21  N   UNL     1       8.040  30.287  58.646  1.00  0.00    -0.326 N 
HETATM   22  H   UNL     1       7.254  29.741  58.308  1.00  0.00     0.169 HD
HETATM   23  O   UNL     1      10.301  30.767  58.262  1.00  0.00    -0.271 OA
BRANCH  21  24
HETATM   24  C   UNL     1       7.821  30.927  59.887  1.00  0.00     0.034 A 
HETATM   25  C   UNL     1       8.491  30.599  61.061  1.00  0.00     0.032 A 
HETATM   26  C   UNL     1       8.168  31.234  62.270  1.00  0.00     0.032 A 
HETATM   27  C   UNL     1       7.162  32.202  62.347  1.00  0.00     0.037 A 
HETATM   28  C   UNL     1       6.525  32.555  61.149  1.00  0.00     0.032 A 
HETATM   29  C   UNL     1       6.854  31.933  59.934  1.00  0.00     0.032 A 
BRANCH  27  30
HETATM   30  N   UNL     1       6.780  32.795  63.583  1.00  0.00    -0.318 N 
HETATM   31  C   UNL     1       5.468  32.907  64.079  1.00  0.00     0.224 C 
HETATM   32  O   UNL     1       4.426  32.473  63.613  1.00  0.00    -0.273 OA
HETATM   33  C   UNL     1       5.512  33.772  65.316  1.00  0.00     0.105 C 
HETATM   34  C   UNL     1       6.971  33.733  65.721  1.00  0.00     0.029 C 
HETATM   35  C   UNL     1       7.699  33.548  64.406  1.00  0.00     0.133 C 
ENDBRANCH  27  30
ENDBRANCH  21  24
ENDBRANCH  19  20
ENDBRANCH   1  19
TORSDOF 8
ENDMDL
MODEL 10
REMARK VINA RESULT:      -9.0      3.526      6.068
REMARK  8 active torsions:
REMARK  status: ('A' for Active; 'I' for Inactive)
REMARK    1  A    between atoms: O_2  and  C_3 
REMARK    2  A    between atoms: C_6  and  C_7 
REMARK    3  A    between atoms: C_7  and  N_8 
REMARK    4  A    between atoms: C_7  and  C_27 
REMARK    5  A    between atoms: N_8  and  C_11 
REMARK    6  A    between atoms: C_11  and  C_12 
REMARK       I    between atoms: C_12  and  N_13 
REMARK    7  A    between atoms: N_13  and  C_14 
REMARK    8  A    between atoms: C_17  and  N_18 
ROOT
HETATM    1  N   UNL     1       7.472  29.452  58.590  1.00  0.00    -0.055 N 
HETATM    2  H   UNL     1       6.682  29.760  59.179  1.00  0.00     0.278 HD
HETATM    3  H   UNL     1       7.681  28.486  58.845  1.00  0.00     0.278 HD
ENDROOT
BRANCH   1   4
HETATM    4  C   UNL     1       6.975  29.527  57.170  1.00  0.00     0.252 C 
BRANCH   4   5
HETATM    5  C   UNL     1       5.748  30.413  57.031  1.00  0.00    -0.023 A 
HETATM    6  C   UNL     1       5.160  30.958  58.188  1.00  0.00     0.012 A 
HETATM    7  C   UNL     1       4.069  31.832  58.105  1.00  0.00     0.037 A 
HETATM    8  C   UNL     1       3.548  32.183  56.863  1.00  0.00     0.068 A 
HETATM    9  C   UNL     1       4.103  31.627  55.711  1.00  0.00     0.037 A 
HETATM   10  C   UNL     1       5.196  30.757  55.787  1.00  0.00     0.012 A 
BRANCH   8  11
HETATM   11  O   UNL     1       2.508  33.039  56.646  1.00  0.00    -0.356 OA
HETATM   12  C   UNL     1       2.841  34.324  56.128  1.00  0.00     0.210 C 
ENDBRANCH   8  11
ENDBRANCH   4   5
BRANCH   4  13
HETATM   13  C   UNL     1       6.792  28.157  56.539  1.00  0.00    -0.023 A 
HETATM   14  C   UNL     1       7.553  27.807  55.409  1.00  0.00     0.009 A 
HETATM   15  C   UNL     1       7.414  26.550  54.817  1.00  0.00     0.001 A 
HETATM   16  C   UNL     1       6.515  25.627  55.341  1.00  0.00     0.000 A 
HETATM   17  C   UNL     1       5.748  25.959  56.455  1.00  0.00     0.001 A 
HETATM   18  C   UNL     1       5.882  27.214  57.051  1.00  0.00     0.009 A 
ENDBRANCH   4  13
ENDBRANCH   1   4
BRANCH   1  19
HETATM   19  C   UNL     1       8.637  30.360  58.923  1.00  0.00     0.336 C 
BRANCH  19  20
HETATM   20  C   UNL     1       8.200  31.445  59.904  1.00  0.00     0.248 C 
HETATM   21  N   UNL     1       7.543  30.980  61.025  1.00  0.00    -0.326 N 
HETATM   22  H   UNL     1       7.364  29.985  61.113  1.00  0.00     0.169 HD
HETATM   23  O   UNL     1       8.576  32.594  59.678  1.00  0.00    -0.271 OA
BRANCH  21  24
HETATM   24  C   UNL     1       7.191  31.743  62.162  1.00  0.00     0.034 A 
HETATM   25  C   UNL     1       8.113  32.350  63.008  1.00  0.00     0.032 A 
HETATM   26  C   UNL     1       7.687  33.033  64.158  1.00  0.00     0.032 A 
HETATM   27  C   UNL     1       6.334  33.121  64.502  1.00  0.00     0.037 A 
HETATM   28  C   UNL     1       5.413  32.544  63.618  1.00  0.00     0.032 A 
HETATM   29  C   UNL     1       5.833  31.872  62.460  1.00  0.00     0.032 A 
BRANCH  27  30
HETATM   30  N   UNL     1       5.903  33.749  65.704  1.00  0.00    -0.318 N 
HETATM   31  C   UNL     1       4.601  34.202  65.982  1.00  0.00     0.224 C 
HETATM   32  O   UNL     1       3.585  34.094  65.312  1.00  0.00    -0.273 OA
HETATM   33  C   UNL     1       4.644  34.973  67.280  1.00  0.00     0.105 C 
HETATM   34  C   UNL     1       5.939  34.514  67.918  1.00  0.00     0.029 C 
HETATM   35  C   UNL     1       6.821  34.184  66.733  1.00  0.00     0.133 C 
ENDBRANCH  27  30
ENDBRANCH  21  24
ENDBRANCH  19  20
ENDBRANCH   1  19
TORSDOF 8
ENDMDL
