MODEL 1
REMARK VINA RESULT:     -10.6      0.000      0.000
REMARK  5 active torsions:
REMARK  status: ('A' for Active; 'I' for Inactive)
REMARK    1  A    between atoms: C_9  and  C_10 
REMARK    2  A    between atoms: C_10  and  C_11 
REMARK       I    between atoms: C_11  and  N_12 
REMARK    3  A    between atoms: N_12  and  C_13 
REMARK    4  A    between atoms: C_13  and  C_14 
REMARK    5  A    between atoms: N_16  and  C_17 
ROOT
HETATM    1  C   UNL     1       7.840  29.371  58.010  1.00  0.00     0.084 A 
HETATM    2  N   UNL     1       7.992  28.095  57.805  1.00  0.00    -0.171 NA
HETATM    3  N   UNL     1       6.927  27.340  57.385  1.00  0.00    -0.229 N 
HETATM    4  C   UNL     1       5.662  27.864  57.116  1.00  0.00     0.275 A 
HETATM    5  O   UNL     1       4.715  27.201  56.700  1.00  0.00    -0.266 OA
HETATM    6  C   UNL     1       5.487  29.310  57.341  1.00  0.00     0.046 A 
HETATM    7  C   UNL     1       6.563  30.081  57.767  1.00  0.00     0.008 A 
HETATM    8  C   UNL     1       4.239  29.903  57.098  1.00  0.00     0.018 A 
HETATM    9  C   UNL     1       4.072  31.275  57.277  1.00  0.00     0.001 A 
HETATM   10  C   UNL     1       5.150  32.053  57.691  1.00  0.00     0.001 A 
HETATM   11  C   UNL     1       6.394  31.462  57.933  1.00  0.00     0.014 A 
ENDROOT
BRANCH   1  12
HETATM   12  C   UNL     1       9.066  30.150  58.486  1.00  0.00     0.184 C 
BRANCH  12  13
HETATM   13  N   UNL     1       8.936  30.451  59.898  1.00  0.00    -0.355 N 
HETATM   14  C   UNL     1       9.063  31.741  60.362  1.00  0.00     0.222 C 
HETATM   15  O   UNL     1       9.263  32.693  59.611  1.00  0.00    -0.273 OA
HETATM   16  H   UNL     1       9.021  29.672  60.545  1.00  0.00     0.162 HD
BRANCH  14  17
HETATM   17  C   UNL     1       8.883  31.895  61.856  1.00  0.00     0.143 C 
BRANCH  17  18
HETATM   18  C   UNL     1       7.503  32.222  62.340  1.00  0.00    -0.021 A 
HETATM   19  C   UNL     1       7.047  32.826  63.563  1.00  0.00    -0.001 A 
HETATM   20  C   UNL     1       5.649  32.897  63.502  1.00  0.00     0.044 A 
HETATM   21  C   UNL     1       7.678  33.327  64.724  1.00  0.00     0.014 A 
HETATM   22  N   UNL     1       5.270  32.376  62.286  1.00  0.00    -0.360 N 
HETATM   23  C   UNL     1       4.873  33.432  64.545  1.00  0.00     0.030 A 
HETATM   24  C   UNL     1       3.909  32.291  61.806  1.00  0.00     0.155 C 
HETATM   25  C   UNL     1       6.368  31.962  61.589  1.00  0.00     0.099 A 
HETATM   26  C   UNL     1       5.529  33.910  65.679  1.00  0.00     0.002 A 
HETATM   27  C   UNL     1       6.914  33.861  65.770  1.00  0.00     0.001 A 
ENDBRANCH  17  18
ENDBRANCH  14  17
ENDBRANCH  12  13
ENDBRANCH   1  12
BRANCH   3  28
HETATM   28  C   UNL     1       7.180  25.939  57.059  1.00  0.00     0.114 C 
HETATM   29  C   UNL     1       7.457  25.729  55.570  1.00  0.00     0.027 C 
HETATM   30  C   UNL     1       8.061  24.331  55.496  1.00  0.00     0.002 C 
HETATM   31  C   UNL     1       8.652  24.047  56.878  1.00  0.00     0.002 C 
HETATM   32  C   UNL     1       8.410  25.304  57.709  1.00  0.00     0.027 C 
ENDBRANCH   3  28
TORSDOF 5
ENDMDL
MODEL 2
REMARK VINA RESULT:     -10.4      1.742      9.026
REMARK  5 active torsions:
REMARK  status: ('A' for Active; 'I' for Inactive)
REMARK    1  A    between atoms: C_9  and  C_10 
REMARK    2  A    between atoms: C_10  and  C_11 
REMARK       I    between atoms: C_11  and  N_12 
REMARK    3  A    between atoms: N_12  and  C_13 
REMARK    4  A    between atoms: C_13  and  C_14 
REMARK    5  A    between atoms: N_16  and  C_17 
ROOT
HETATM    1  C   UNL     1       6.768  30.780  58.252  1.00  0.00     0.084 A 
HETATM    2  N   UNL     1       6.713  31.477  59.350  1.00  0.00    -0.171 NA
HETATM    3  N   UNL     1       7.873  31.859  59.974  1.00  0.00    -0.229 N 
HETATM    4  C   UNL     1       9.148  31.580  59.481  1.00  0.00     0.275 A 
HETATM    5  O   UNL     1      10.191  31.955  60.012  1.00  0.00    -0.266 OA
HETATM    6  C   UNL     1       9.216  30.797  58.234  1.00  0.00     0.046 A 
HETATM    7  C   UNL     1       8.043  30.406  57.597  1.00  0.00     0.008 A 
HETATM    8  C   UNL     1      10.466  30.473  57.685  1.00  0.00     0.018 A 
HETATM    9  C   UNL     1      10.539  29.760  56.491  1.00  0.00     0.001 A 
HETATM   10  C   UNL     1       9.368  29.377  55.843  1.00  0.00     0.001 A 
HETATM   11  C   UNL     1       8.122  29.700  56.389  1.00  0.00     0.014 A 
ENDROOT
BRANCH   1  12
HETATM   12  C   UNL     1       5.438  30.379  57.615  1.00  0.00     0.184 C 
BRANCH  12  13
HETATM   13  N   UNL     1       5.250  28.948  57.735  1.00  0.00    -0.355 N 
HETATM   14  C   UNL     1       4.944  28.178  56.636  1.00  0.00     0.222 C 
HETATM   15  O   UNL     1       4.843  28.654  55.507  1.00  0.00    -0.273 OA
HETATM   16  H   UNL     1       5.083  28.581  58.669  1.00  0.00     0.162 HD
BRANCH  14  17
HETATM   17  C   UNL     1       4.797  26.700  56.920  1.00  0.00     0.143 C 
BRANCH  17  18
HETATM   18  C   UNL     1       5.904  25.807  56.448  1.00  0.00    -0.021 A 
HETATM   19  C   UNL     1       6.141  25.187  55.172  1.00  0.00    -0.001 A 
HETATM   20  C   UNL     1       7.328  24.449  55.276  1.00  0.00     0.044 A 
HETATM   21  C   UNL     1       5.471  25.177  53.928  1.00  0.00     0.014 A 
HETATM   22  N   UNL     1       7.803  24.627  56.555  1.00  0.00    -0.360 N 
HETATM   23  C   UNL     1       7.854  23.708  54.204  1.00  0.00     0.030 A 
HETATM   24  C   UNL     1       9.029  24.061  57.072  1.00  0.00     0.155 C 
HETATM   25  C   UNL     1       6.956  25.428  57.265  1.00  0.00     0.099 A 
HETATM   26  C   UNL     1       7.161  23.714  52.993  1.00  0.00     0.002 A 
HETATM   27  C   UNL     1       5.985  24.440  52.853  1.00  0.00     0.001 A 
ENDBRANCH  17  18
ENDBRANCH  14  17
ENDBRANCH  12  13
ENDBRANCH   1  12
BRANCH   3  28
HETATM   28  C   UNL     1       7.756  32.737  61.136  1.00  0.00     0.114 C 
HETATM   29  C   UNL     1       6.320  33.207  61.367  1.00  0.00     0.027 C 
HETATM   30  C   UNL     1       6.334  33.764  62.787  1.00  0.00     0.002 C 
HETATM   31  C   UNL     1       7.504  33.084  63.501  1.00  0.00     0.002 C 
HETATM   32  C   UNL     1       8.116  32.121  62.489  1.00  0.00     0.027 C 
ENDBRANCH   3  28
TORSDOF 5
ENDMDL
MODEL 3
REMARK VINA RESULT:     -10.2      2.517      9.065
REMARK  5 active torsions:
REMARK  status: ('A' for Active; 'I' for Inactive)
REMARK    1  A    between atoms: C_9  and  C_10 
REMARK    2  A    between atoms: C_10  and  C_11 
REMARK       I    between atoms: C_11  and  N_12 
REMARK    3  A    between atoms: N_12  and  C_13 
REMARK    4  A    between atoms: C_13  and  C_14 
REMARK    5  A    between atoms: N_16  and  C_17 
ROOT
HETATM    1  C   UNL     1       7.315  30.122  58.475  1.00  0.00     0.084 A 
HETATM    2  N   UNL     1       6.243  30.491  57.836  1.00  0.00    -0.171 NA
HETATM    3  N   UNL     1       5.520  31.569  58.280  1.00  0.00    -0.229 N 
HETATM    4  C   UNL     1       5.885  32.347  59.379  1.00  0.00     0.275 A 
HETATM    5  O   UNL     1       5.266  33.339  59.758  1.00  0.00    -0.266 OA
HETATM    6  C   UNL     1       7.102  31.937  60.103  1.00  0.00     0.046 A 
HETATM    7  C   UNL     1       7.838  30.845  59.657  1.00  0.00     0.008 A 
HETATM    8  C   UNL     1       7.523  32.670  61.222  1.00  0.00     0.018 A 
HETATM    9  C   UNL     1       8.689  32.309  61.894  1.00  0.00     0.001 A 
HETATM   10  C   UNL     1       9.436  31.224  61.444  1.00  0.00     0.001 A 
HETATM   11  C   UNL     1       9.017  30.493  60.327  1.00  0.00     0.014 A 
ENDROOT
BRANCH   1  12
HETATM   12  C   UNL     1       8.066  28.906  57.931  1.00  0.00     0.184 C 
BRANCH  12  13
HETATM   13  N   UNL     1       7.122  27.861  57.592  1.00  0.00    -0.355 N 
HETATM   14  C   UNL     1       7.522  26.547  57.501  1.00  0.00     0.222 C 
HETATM   15  O   UNL     1       8.678  26.195  57.726  1.00  0.00    -0.273 OA
HETATM   16  H   UNL     1       6.245  28.151  57.167  1.00  0.00     0.162 HD
BRANCH  14  17
HETATM   17  C   UNL     1       6.418  25.572  57.157  1.00  0.00     0.143 C 
BRANCH  17  18
HETATM   18  C   UNL     1       6.432  24.997  55.773  1.00  0.00    -0.021 A 
HETATM   19  C   UNL     1       7.280  24.005  55.169  1.00  0.00    -0.001 A 
HETATM   20  C   UNL     1       6.857  23.841  53.842  1.00  0.00     0.044 A 
HETATM   21  C   UNL     1       8.368  23.219  55.611  1.00  0.00     0.014 A 
HETATM   22  N   UNL     1       5.786  24.683  53.653  1.00  0.00    -0.360 N 
HETATM   23  C   UNL     1       7.478  22.943  52.957  1.00  0.00     0.030 A 
HETATM   24  C   UNL     1       5.029  24.802  52.426  1.00  0.00     0.155 C 
HETATM   25  C   UNL     1       5.530  25.384  54.795  1.00  0.00     0.099 A 
HETATM   26  C   UNL     1       8.554  22.190  53.425  1.00  0.00     0.002 A 
HETATM   27  C   UNL     1       8.995  22.322  54.736  1.00  0.00     0.001 A 
ENDBRANCH  17  18
ENDBRANCH  14  17
ENDBRANCH  12  13
ENDBRANCH   1  12
BRANCH   3  28
HETATM   28  C   UNL     1       4.395  32.010  57.461  1.00  0.00     0.114 C 
HETATM   29  C   UNL     1       4.846  32.726  56.188  1.00  0.00     0.027 C 
HETATM   30  C   UNL     1       3.598  32.757  55.314  1.00  0.00     0.002 C 
HETATM   31  C   UNL     1       2.712  31.605  55.793  1.00  0.00     0.002 C 
HETATM   32  C   UNL     1       3.487  30.911  56.908  1.00  0.00     0.027 C 
ENDBRANCH   3  28
TORSDOF 5
ENDMDL
MODEL 4
REMARK VINA RESULT:     -10.2      5.787     11.400
REMARK  5 active torsions:
REMARK  status: ('A' for Active; 'I' for Inactive)
REMARK    1  A    between atoms: C_9  and  C_10 
REMARK    2  A    between atoms: C_10  and  C_11 
REMARK       I    between atoms: C_11  and  N_12 
REMARK    3  A    between atoms: N_12  and  C_13 
REMARK    4  A    between atoms: C_13  and  C_14 
REMARK    5  A    between atoms: N_16  and  C_17 
ROOT
HETATM    1  C   UNL     1       7.568  24.117  53.412  1.00  0.00     0.084 A 
HETATM    2  N   UNL     1       7.487  25.212  54.113  1.00  0.00    -0.171 NA
HETATM    3  N   UNL     1       7.632  25.161  55.476  1.00  0.00    -0.229 N 
HETATM    4  C   UNL     1       7.908  23.991  56.184  1.00  0.00     0.275 A 
HETATM    5  O   UNL     1       8.081  23.946  57.400  1.00  0.00    -0.266 OA
HETATM    6  C   UNL     1       8.008  22.751  55.395  1.00  0.00     0.046 A 
HETATM    7  C   UNL     1       7.861  22.796  54.012  1.00  0.00     0.008 A 
HETATM    8  C   UNL     1       8.276  21.536  56.043  1.00  0.00     0.018 A 
HETATM    9  C   UNL     1       8.403  20.363  55.302  1.00  0.00     0.001 A 
HETATM   10  C   UNL     1       8.270  20.405  53.917  1.00  0.00     0.001 A 
HETATM   11  C   UNL     1       8.003  21.616  53.269  1.00  0.00     0.014 A 
ENDROOT
BRANCH   1  12
HETATM   12  C   UNL     1       7.387  24.245  51.900  1.00  0.00     0.184 C 
BRANCH  12  13
HETATM   13  N   UNL     1       7.035  25.609  51.563  1.00  0.00    -0.355 N 
HETATM   14  C   UNL     1       5.719  25.986  51.419  1.00  0.00     0.222 C 
HETATM   15  O   UNL     1       4.787  25.203  51.592  1.00  0.00    -0.273 OA
HETATM   16  H   UNL     1       7.771  26.194  51.178  1.00  0.00     0.162 HD
BRANCH  14  17
HETATM   17  C   UNL     1       5.513  27.447  51.084  1.00  0.00     0.143 C 
BRANCH  17  18
HETATM   18  C   UNL     1       4.258  27.801  50.346  1.00  0.00    -0.021 A 
HETATM   19  C   UNL     1       3.644  27.213  49.186  1.00  0.00    -0.001 A 
HETATM   20  C   UNL     1       2.477  27.940  48.913  1.00  0.00     0.044 A 
HETATM   21  C   UNL     1       3.956  26.130  48.333  1.00  0.00     0.014 A 
HETATM   22  N   UNL     1       2.375  28.917  49.876  1.00  0.00    -0.360 N 
HETATM   23  C   UNL     1       1.632  27.635  47.832  1.00  0.00     0.030 A 
HETATM   24  C   UNL     1       1.293  29.871  49.981  1.00  0.00     0.155 C 
HETATM   25  C   UNL     1       3.437  28.848  50.731  1.00  0.00     0.099 A 
HETATM   26  C   UNL     1       1.975  26.564  47.006  1.00  0.00     0.002 A 
HETATM   27  C   UNL     1       3.121  25.818  47.252  1.00  0.00     0.001 A 
ENDBRANCH  17  18
ENDBRANCH  14  17
ENDBRANCH  12  13
ENDBRANCH   1  12
BRANCH   3  28
HETATM   28  C   UNL     1       7.648  26.430  56.199  1.00  0.00     0.114 C 
HETATM   29  C   UNL     1       7.715  27.634  55.261  1.00  0.00     0.027 C 
HETATM   30  C   UNL     1       7.339  28.819  56.145  1.00  0.00     0.002 C 
HETATM   31  C   UNL     1       6.521  28.244  57.303  1.00  0.00     0.002 C 
HETATM   32  C   UNL     1       6.410  26.745  57.041  1.00  0.00     0.027 C 
ENDBRANCH   3  28
TORSDOF 5
ENDMDL
MODEL 5
REMARK VINA RESULT:     -10.1      2.935      5.766
REMARK  5 active torsions:
REMARK  status: ('A' for Active; 'I' for Inactive)
REMARK    1  A    between atoms: C_9  and  C_10 
REMARK    2  A    between atoms: C_10  and  C_11 
REMARK       I    between atoms: C_11  and  N_12 
REMARK    3  A    between atoms: N_12  and  C_13 
REMARK    4  A    between atoms: C_13  and  C_14 
REMARK    5  A    between atoms: N_16  and  C_17 
ROOT
HETATM    1  C   UNL     1       6.453  26.004  55.410  1.00  0.00     0.084 A 
HETATM    2  N   UNL     1       6.187  26.497  54.234  1.00  0.00    -0.171 NA
HETATM    3  N   UNL     1       6.708  25.904  53.112  1.00  0.00    -0.229 N 
HETATM    4  C   UNL     1       7.495  24.753  53.138  1.00  0.00     0.275 A 
HETATM    5  O   UNL     1       7.930  24.193  52.134  1.00  0.00    -0.266 OA
HETATM    6  C   UNL     1       7.793  24.187  54.465  1.00  0.00     0.046 A 
HETATM    7  C   UNL     1       7.269  24.784  55.607  1.00  0.00     0.008 A 
HETATM    8  C   UNL     1       8.585  23.033  54.565  1.00  0.00     0.018 A 
HETATM    9  C   UNL     1       8.847  22.474  55.814  1.00  0.00     0.001 A 
HETATM   10  C   UNL     1       8.314  23.060  56.958  1.00  0.00     0.001 A 
HETATM   11  C   UNL     1       7.523  24.209  56.859  1.00  0.00     0.014 A 
ENDROOT
BRANCH   1  12
HETATM   12  C   UNL     1       5.848  26.720  56.618  1.00  0.00     0.184 C 
BRANCH  12  13
HETATM   13  N   UNL     1       6.299  28.096  56.646  1.00  0.00    -0.355 N 
HETATM   14  C   UNL     1       7.329  28.488  57.470  1.00  0.00     0.222 C 
HETATM   15  O   UNL     1       7.929  27.696  58.194  1.00  0.00    -0.273 OA
HETATM   16  H   UNL     1       5.671  28.795  56.258  1.00  0.00     0.162 HD
BRANCH  14  17
HETATM   17  C   UNL     1       7.695  29.952  57.373  1.00  0.00     0.143 C 
BRANCH  17  18
HETATM   18  C   UNL     1       7.289  30.828  58.519  1.00  0.00    -0.021 A 
HETATM   19  C   UNL     1       7.915  31.074  59.790  1.00  0.00    -0.001 A 
HETATM   20  C   UNL     1       7.107  31.982  60.489  1.00  0.00     0.044 A 
HETATM   21  C   UNL     1       9.093  30.621  60.427  1.00  0.00     0.014 A 
HETATM   22  N   UNL     1       6.045  32.290  59.670  1.00  0.00    -0.360 N 
HETATM   23  C   UNL     1       7.424  32.437  61.780  1.00  0.00     0.030 A 
HETATM   24  C   UNL     1       4.987  33.220  59.997  1.00  0.00     0.155 C 
HETATM   25  C   UNL     1       6.139  31.600  58.496  1.00  0.00     0.099 A 
HETATM   26  C   UNL     1       8.590  31.962  62.381  1.00  0.00     0.002 A 
HETATM   27  C   UNL     1       9.417  31.067  61.715  1.00  0.00     0.001 A 
ENDBRANCH  17  18
ENDBRANCH  14  17
ENDBRANCH  12  13
ENDBRANCH   1  12
BRANCH   3  28
HETATM   28  C   UNL     1       6.284  26.427  51.816  1.00  0.00     0.114 C 
HETATM   29  C   UNL     1       5.129  25.626  51.216  1.00  0.00     0.027 C 
HETATM   30  C   UNL     1       4.591  26.522  50.104  1.00  0.00     0.002 C 
HETATM   31  C   UNL     1       4.999  27.950  50.472  1.00  0.00     0.002 C 
HETATM   32  C   UNL     1       5.728  27.851  51.808  1.00  0.00     0.027 C 
ENDBRANCH   3  28
TORSDOF 5
ENDMDL
MODEL 6
REMARK VINA RESULT:     -10.1      6.034     10.843
REMARK  5 active torsions:
REMARK  status: ('A' for Active; 'I' for Inactive)
REMARK    1  A    between atoms: C_9  and  C_10 
REMARK    2  A    between atoms: C_10  and  C_11 
REMARK       I    between atoms: C_11  and  N_12 
REMARK    3  A    between atoms: N_12  and  C_13 
REMARK    4  A    between atoms: C_13  and  C_14 
REMARK    5  A    between atoms: N_16  and  C_17 
ROOT
HETATM    1  C   UNL     1       6.020  25.093  54.441  1.00  0.00     0.084 A 
HETATM    2  N   UNL     1       6.684  24.011  54.150  1.00  0.00    -0.171 NA
HETATM    3  N   UNL     1       7.810  23.689  54.864  1.00  0.00    -0.229 N 
HETATM    4  C   UNL     1       8.288  24.438  55.939  1.00  0.00     0.275 A 
HETATM    5  O   UNL     1       9.271  24.133  56.610  1.00  0.00    -0.266 OA
HETATM    6  C   UNL     1       7.536  25.660  56.277  1.00  0.00     0.046 A 
HETATM    7  C   UNL     1       6.394  25.993  55.556  1.00  0.00     0.008 A 
HETATM    8  C   UNL     1       7.965  26.466  57.343  1.00  0.00     0.018 A 
HETATM    9  C   UNL     1       7.243  27.605  57.690  1.00  0.00     0.001 A 
HETATM   10  C   UNL     1       6.093  27.936  56.979  1.00  0.00     0.001 A 
HETATM   11  C   UNL     1       5.664  27.133  55.918  1.00  0.00     0.014 A 
ENDROOT
BRANCH   1  12
HETATM   12  C   UNL     1       4.781  25.397  53.599  1.00  0.00     0.184 C 
BRANCH  12  13
HETATM   13  N   UNL     1       5.140  26.271  52.501  1.00  0.00    -0.355 N 
HETATM   14  C   UNL     1       4.532  27.496  52.342  1.00  0.00     0.222 C 
HETATM   15  O   UNL     1       3.685  27.916  53.128  1.00  0.00    -0.273 OA
HETATM   16  H   UNL     1       5.637  25.851  51.720  1.00  0.00     0.162 HD
BRANCH  14  17
HETATM   17  C   UNL     1       5.026  28.298  51.159  1.00  0.00     0.143 C 
BRANCH  17  18
HETATM   18  C   UNL     1       4.107  28.402  49.980  1.00  0.00    -0.021 A 
HETATM   19  C   UNL     1       3.663  27.412  49.037  1.00  0.00    -0.001 A 
HETATM   20  C   UNL     1       2.807  28.050  48.129  1.00  0.00     0.044 A 
HETATM   21  C   UNL     1       3.896  26.030  48.856  1.00  0.00     0.014 A 
HETATM   22  N   UNL     1       2.718  29.367  48.514  1.00  0.00    -0.360 N 
HETATM   23  C   UNL     1       2.194  27.370  47.062  1.00  0.00     0.030 A 
HETATM   24  C   UNL     1       1.908  30.371  47.862  1.00  0.00     0.155 C 
HETATM   25  C   UNL     1       3.497  29.591  49.613  1.00  0.00     0.099 A 
HETATM   26  C   UNL     1       2.453  26.008  46.910  1.00  0.00     0.002 A 
HETATM   27  C   UNL     1       3.292  25.343  47.795  1.00  0.00     0.001 A 
ENDBRANCH  17  18
ENDBRANCH  14  17
ENDBRANCH  12  13
ENDBRANCH   1  12
BRANCH   3  28
HETATM   28  C   UNL     1       8.448  22.408  54.573  1.00  0.00     0.114 C 
HETATM   29  C   UNL     1       7.903  21.275  55.443  1.00  0.00     0.027 C 
HETATM   30  C   UNL     1       8.386  20.006  54.750  1.00  0.00     0.002 C 
HETATM   31  C   UNL     1       8.632  20.385  53.288  1.00  0.00     0.002 C 
HETATM   32  C   UNL     1       8.247  21.856  53.161  1.00  0.00     0.027 C 
ENDBRANCH   3  28
TORSDOF 5
ENDMDL
MODEL 7
REMARK VINA RESULT:     -10.1      2.816      5.202
REMARK  5 active torsions:
REMARK  status: ('A' for Active; 'I' for Inactive)
REMARK    1  A    between atoms: C_9  and  C_10 
REMARK    2  A    between atoms: C_10  and  C_11 
REMARK       I    between atoms: C_11  and  N_12 
REMARK    3  A    between atoms: N_12  and  C_13 
REMARK    4  A    between atoms: C_13  and  C_14 
REMARK    5  A    between atoms: N_16  and  C_17 
ROOT
HETATM    1  C   UNL     1       6.177  25.523  55.445  1.00  0.00     0.084 A 
HETATM    2  N   UNL     1       6.806  24.435  55.787  1.00  0.00    -0.171 NA
HETATM    3  N   UNL     1       7.291  23.594  54.818  1.00  0.00    -0.229 N 
HETATM    4  C   UNL     1       7.192  23.849  53.450  1.00  0.00     0.275 A 
HETATM    5  O   UNL     1       7.662  23.122  52.578  1.00  0.00    -0.266 OA
HETATM    6  C   UNL     1       6.488  25.082  53.058  1.00  0.00     0.046 A 
HETATM    7  C   UNL     1       5.992  25.938  54.036  1.00  0.00     0.008 A 
HETATM    8  C   UNL     1       6.345  25.397  51.698  1.00  0.00     0.018 A 
HETATM    9  C   UNL     1       5.708  26.576  51.318  1.00  0.00     0.001 A 
HETATM   10  C   UNL     1       5.222  27.442  52.294  1.00  0.00     0.001 A 
HETATM   11  C   UNL     1       5.365  27.130  53.650  1.00  0.00     0.014 A 
ENDROOT
BRANCH   1  12
HETATM   12  C   UNL     1       5.654  26.408  56.576  1.00  0.00     0.184 C 
BRANCH  12  13
HETATM   13  N   UNL     1       6.473  27.598  56.683  1.00  0.00    -0.355 N 
HETATM   14  C   UNL     1       7.482  27.683  57.616  1.00  0.00     0.222 C 
HETATM   15  O   UNL     1       7.754  26.756  58.376  1.00  0.00    -0.273 OA
HETATM   16  H   UNL     1       6.114  28.446  56.252  1.00  0.00     0.162 HD
BRANCH  14  17
HETATM   17  C   UNL     1       8.258  28.981  57.592  1.00  0.00     0.143 C 
BRANCH  17  18
HETATM   18  C   UNL     1       7.700  30.117  58.393  1.00  0.00    -0.021 A 
HETATM   19  C   UNL     1       8.121  30.692  59.642  1.00  0.00    -0.001 A 
HETATM   20  C   UNL     1       7.238  31.738  59.944  1.00  0.00     0.044 A 
HETATM   21  C   UNL     1       9.169  30.436  60.555  1.00  0.00     0.014 A 
HETATM   22  N   UNL     1       6.329  31.809  58.914  1.00  0.00    -0.360 N 
HETATM   23  C   UNL     1       7.358  32.516  61.108  1.00  0.00     0.030 A 
HETATM   24  C   UNL     1       5.259  32.776  58.815  1.00  0.00     0.155 C 
HETATM   25  C   UNL     1       6.590  30.841  57.987  1.00  0.00     0.099 A 
HETATM   26  C   UNL     1       8.400  32.230  61.991  1.00  0.00     0.002 A 
HETATM   27  C   UNL     1       9.297  31.205  61.719  1.00  0.00     0.001 A 
ENDBRANCH  17  18
ENDBRANCH  14  17
ENDBRANCH  12  13
ENDBRANCH   1  12
BRANCH   3  28
HETATM   28  C   UNL     1       8.087  22.450  55.255  1.00  0.00     0.114 C 
HETATM   29  C   UNL     1       8.224  22.383  56.776  1.00  0.00     0.027 C 
HETATM   30  C   UNL     1       8.728  20.969  57.044  1.00  0.00     0.002 C 
HETATM   31  C   UNL     1       8.302  20.128  55.839  1.00  0.00     0.002 C 
HETATM   32  C   UNL     1       7.527  21.067  54.920  1.00  0.00     0.027 C 
ENDBRANCH   3  28
TORSDOF 5
ENDMDL
MODEL 8
REMARK VINA RESULT:      -9.9      1.400      4.187
REMARK  5 active torsions:
REMARK  status: ('A' for Active; 'I' for Inactive)
REMARK    1  A    between atoms: C_9  and  C_10 
REMARK    2  A    between atoms: C_10  and  C_11 
REMARK       I    between atoms: C_11  and  N_12 
REMARK    3  A    between atoms: N_12  and  C_13 
REMARK    4  A    between atoms: C_13  and  C_14 
REMARK    5  A    between atoms: N_16  and  C_17 
ROOT
HETATM    1  C   UNL     1       7.497  29.522  57.544  1.00  0.00     0.084 A 
HETATM    2  N   UNL     1       6.777  30.577  57.292  1.00  0.00    -0.171 NA
HETATM    3  N   UNL     1       5.502  30.434  56.810  1.00  0.00    -0.229 N 
HETATM    4  C   UNL     1       4.885  29.200  56.600  1.00  0.00     0.275 A 
HETATM    5  O   UNL     1       3.729  29.064  56.208  1.00  0.00    -0.266 OA
HETATM    6  C   UNL     1       5.693  28.002  56.890  1.00  0.00     0.046 A 
HETATM    7  C   UNL     1       6.988  28.141  57.379  1.00  0.00     0.008 A 
HETATM    8  C   UNL     1       5.139  26.728  56.695  1.00  0.00     0.018 A 
HETATM    9  C   UNL     1       5.884  25.590  56.996  1.00  0.00     0.001 A 
HETATM   10  C   UNL     1       7.176  25.724  57.497  1.00  0.00     0.001 A 
HETATM   11  C   UNL     1       7.729  26.994  57.693  1.00  0.00     0.014 A 
ENDROOT
BRANCH   1  12
HETATM   12  C   UNL     1       8.913  29.755  58.070  1.00  0.00     0.184 C 
BRANCH  12  13
HETATM   13  N   UNL     1       8.853  30.253  59.429  1.00  0.00    -0.355 N 
HETATM   14  C   UNL     1       9.189  31.556  59.722  1.00  0.00     0.222 C 
HETATM   15  O   UNL     1       9.526  32.359  58.854  1.00  0.00    -0.273 OA
HETATM   16  H   UNL     1       8.824  29.562  60.174  1.00  0.00     0.162 HD
BRANCH  14  17
HETATM   17  C   UNL     1       9.059  31.930  61.181  1.00  0.00     0.143 C 
BRANCH  17  18
HETATM   18  C   UNL     1       7.687  32.284  61.669  1.00  0.00    -0.021 A 
HETATM   19  C   UNL     1       7.230  32.761  62.946  1.00  0.00    -0.001 A 
HETATM   20  C   UNL     1       5.840  32.928  62.859  1.00  0.00     0.044 A 
HETATM   21  C   UNL     1       7.852  33.074  64.175  1.00  0.00     0.014 A 
HETATM   22  N   UNL     1       5.471  32.587  61.579  1.00  0.00    -0.360 N 
HETATM   23  C   UNL     1       5.066  33.381  63.941  1.00  0.00     0.030 A 
HETATM   24  C   UNL     1       4.123  32.649  61.059  1.00  0.00     0.155 C 
HETATM   25  C   UNL     1       6.563  32.192  60.863  1.00  0.00     0.099 A 
HETATM   26  C   UNL     1       5.713  33.673  65.142  1.00  0.00     0.002 A 
HETATM   27  C   UNL     1       7.089  33.524  65.260  1.00  0.00     0.001 A 
ENDBRANCH  17  18
ENDBRANCH  14  17
ENDBRANCH  12  13
ENDBRANCH   1  12
BRANCH   3  28
HETATM   28  C   UNL     1       4.699  31.645  56.655  1.00  0.00     0.114 C 
HETATM   29  C   UNL     1       5.191  32.786  57.544  1.00  0.00     0.027 C 
HETATM   30  C   UNL     1       4.507  34.025  56.975  1.00  0.00     0.002 C 
HETATM   31  C   UNL     1       4.174  33.697  55.518  1.00  0.00     0.002 C 
HETATM   32  C   UNL     1       4.708  32.290  55.268  1.00  0.00     0.027 C 
ENDBRANCH   3  28
TORSDOF 5
ENDMDL
MODEL 9
REMARK VINA RESULT:      -9.4      2.780      4.823
REMARK  5 active torsions:
REMARK  status: ('A' for Active; 'I' for Inactive)
REMARK    1  A    between atoms: C_9  and  C_10 
REMARK    2  A    between atoms: C_10  and  C_11 
REMARK       I    between atoms: C_11  and  N_12 
REMARK    3  A    between atoms: N_12  and  C_13 
REMARK    4  A    between atoms: C_13  and  C_14 
REMARK    5  A    between atoms: N_16  and  C_17 
ROOT
HETATM    1  C   UNL     1       5.804  26.804  55.231  1.00  0.00     0.084 A 
HETATM    2  N   UNL     1       6.617  25.798  55.078  1.00  0.00    -0.171 NA
HETATM    3  N   UNL     1       6.862  25.305  53.822  1.00  0.00    -0.229 N 
HETATM    4  C   UNL     1       6.317  25.844  52.656  1.00  0.00     0.275 A 
HETATM    5  O   UNL     1       6.565  25.434  51.525  1.00  0.00    -0.266 OA
HETATM    6  C   UNL     1       5.402  26.987  52.824  1.00  0.00     0.046 A 
HETATM    7  C   UNL     1       5.149  27.491  54.095  1.00  0.00     0.008 A 
HETATM    8  C   UNL     1       4.812  27.574  51.695  1.00  0.00     0.018 A 
HETATM    9  C   UNL     1       3.970  28.674  51.841  1.00  0.00     0.001 A 
HETATM   10  C   UNL     1       3.723  29.191  53.110  1.00  0.00     0.001 A 
HETATM   11  C   UNL     1       4.312  28.606  54.236  1.00  0.00     0.014 A 
ENDROOT
BRANCH   1  12
HETATM   12  C   UNL     1       5.569  27.297  56.659  1.00  0.00     0.184 C 
BRANCH  12  13
HETATM   13  N   UNL     1       6.475  28.388  56.955  1.00  0.00    -0.355 N 
HETATM   14  C   UNL     1       7.571  28.199  57.767  1.00  0.00     0.222 C 
HETATM   15  O   UNL     1       7.847  27.104  58.254  1.00  0.00    -0.273 OA
HETATM   16  H   UNL     1       6.137  29.329  56.776  1.00  0.00     0.162 HD
BRANCH  14  17
HETATM   17  C   UNL     1       8.430  29.428  57.966  1.00  0.00     0.143 C 
BRANCH  17  18
HETATM   18  C   UNL     1       8.004  30.383  59.039  1.00  0.00    -0.021 A 
HETATM   19  C   UNL     1       6.921  31.327  59.090  1.00  0.00    -0.001 A 
HETATM   20  C   UNL     1       6.982  31.971  60.335  1.00  0.00     0.044 A 
HETATM   21  C   UNL     1       5.884  31.705  58.208  1.00  0.00     0.014 A 
HETATM   22  N   UNL     1       8.045  31.428  61.018  1.00  0.00    -0.360 N 
HETATM   23  C   UNL     1       6.066  32.966  60.716  1.00  0.00     0.030 A 
HETATM   24  C   UNL     1       8.441  31.790  62.361  1.00  0.00     0.155 C 
HETATM   25  C   UNL     1       8.667  30.486  60.251  1.00  0.00     0.099 A 
HETATM   26  C   UNL     1       5.060  33.320  59.816  1.00  0.00     0.002 A 
HETATM   27  C   UNL     1       4.967  32.698  58.578  1.00  0.00     0.001 A 
ENDBRANCH  17  18
ENDBRANCH  14  17
ENDBRANCH  12  13
ENDBRANCH   1  12
BRANCH   3  28
HETATM   28  C   UNL     1       7.869  24.254  53.695  1.00  0.00     0.114 C 
HETATM   29  C   UNL     1       8.370  23.762  55.052  1.00  0.00     0.027 C 
HETATM   30  C   UNL     1       9.088  22.455  54.734  1.00  0.00     0.002 C 
HETATM   31  C   UNL     1       8.489  21.948  53.420  1.00  0.00     0.002 C 
HETATM   32  C   UNL     1       7.412  22.955  53.029  1.00  0.00     0.027 C 
ENDBRANCH   3  28
TORSDOF 5
ENDMDL
MODEL 10
REMARK VINA RESULT:      -9.4      2.015      3.597
REMARK  5 active torsions:
REMARK  status: ('A' for Active; 'I' for Inactive)
REMARK    1  A    between atoms: C_9  and  C_10 
REMARK    2  A    between atoms: C_10  and  C_11 
REMARK       I    between atoms: C_11  and  N_12 
REMARK    3  A    between atoms: N_12  and  C_13 
REMARK    4  A    between atoms: C_13  and  C_14 
REMARK    5  A    between atoms: N_16  and  C_17 
ROOT
HETATM    1  C   UNL     1       5.944  30.384  57.778  1.00  0.00     0.084 A 
HETATM    2  N   UNL     1       5.872  29.278  57.094  1.00  0.00    -0.171 NA
HETATM    3  N   UNL     1       6.995  28.509  56.923  1.00  0.00    -0.229 N 
HETATM    4  C   UNL     1       8.237  28.814  57.480  1.00  0.00     0.275 A 
HETATM    5  O   UNL     1       9.236  28.108  57.366  1.00  0.00    -0.266 OA
HETATM    6  C   UNL     1       8.321  30.061  58.260  1.00  0.00     0.046 A 
HETATM    7  C   UNL     1       7.187  30.847  58.436  1.00  0.00     0.008 A 
HETATM    8  C   UNL     1       9.542  30.434  58.842  1.00  0.00     0.018 A 
HETATM    9  C   UNL     1       9.624  31.595  59.608  1.00  0.00     0.001 A 
HETATM   10  C   UNL     1       8.488  32.378  59.797  1.00  0.00     0.001 A 
HETATM   11  C   UNL     1       7.270  32.006  59.218  1.00  0.00     0.014 A 
ENDROOT
BRANCH   1  12
HETATM   12  C   UNL     1       4.657  31.198  57.920  1.00  0.00     0.184 C 
BRANCH  12  13
HETATM   13  N   UNL     1       4.198  31.149  59.293  1.00  0.00    -0.355 N 
HETATM   14  C   UNL     1       3.897  32.303  59.981  1.00  0.00     0.222 C 
HETATM   15  O   UNL     1       3.974  33.416  59.464  1.00  0.00    -0.273 OA
HETATM   16  H   UNL     1       4.365  30.287  59.805  1.00  0.00     0.162 HD
BRANCH  14  17
HETATM   17  C   UNL     1       3.414  32.087  61.398  1.00  0.00     0.143 C 
BRANCH  17  18
HETATM   18  C   UNL     1       4.064  32.912  62.467  1.00  0.00    -0.021 A 
HETATM   19  C   UNL     1       5.398  32.887  63.003  1.00  0.00    -0.001 A 
HETATM   20  C   UNL     1       5.473  33.877  63.993  1.00  0.00     0.044 A 
HETATM   21  C   UNL     1       6.561  32.124  62.750  1.00  0.00     0.014 A 
HETATM   22  N   UNL     1       4.243  34.491  64.043  1.00  0.00    -0.360 N 
HETATM   23  C   UNL     1       6.644  34.120  64.730  1.00  0.00     0.030 A 
HETATM   24  C   UNL     1       3.901  35.595  64.912  1.00  0.00     0.155 C 
HETATM   25  C   UNL     1       3.392  33.918  63.143  1.00  0.00     0.099 A 
HETATM   26  C   UNL     1       7.771  33.343  64.459  1.00  0.00     0.002 A 
HETATM   27  C   UNL     1       7.733  32.358  63.481  1.00  0.00     0.001 A 
ENDBRANCH  17  18
ENDBRANCH  14  17
ENDBRANCH  12  13
ENDBRANCH   1  12
BRANCH   3  28
HETATM   28  C   UNL     1       6.835  27.223  56.249  1.00  0.00     0.114 C 
HETATM   29  C   UNL     1       6.279  26.144  57.178  1.00  0.00     0.027 C 
HETATM   30  C   UNL     1       5.830  25.033  56.234  1.00  0.00     0.002 C 
HETATM   31  C   UNL     1       5.574  25.701  54.881  1.00  0.00     0.002 C 
HETATM   32  C   UNL     1       5.843  27.188  55.085  1.00  0.00     0.027 C 
ENDBRANCH   3  28
TORSDOF 5
ENDMDL
