MODEL 1
REMARK VINA RESULT:     -10.9      0.000      0.000
REMARK  3 active torsions:
REMARK  status: ('A' for Active; 'I' for Inactive)
REMARK    1  A    between atoms: N_12  and  C_13 
REMARK    2  A    between atoms: C_13  and  C_14 
REMARK       I    between atoms: C_14  and  N_15 
REMARK    3  A    between atoms: N_15  and  C_16 
ROOT
HETATM    1  C   UNL     1       8.262  19.899  55.044  1.00  0.00     0.048 C 
HETATM    2  C   UNL     1       8.085  21.329  54.623  1.00  0.00    -0.061 A 
HETATM    3  C   UNL     1       7.709  22.307  55.558  1.00  0.00     0.021 A 
HETATM    4  C   UNL     1       7.552  23.647  55.146  1.00  0.00     0.005 A 
HETATM    5  C   UNL     1       7.780  23.971  53.804  1.00  0.00     0.044 A 
HETATM    6  N   UNL     1       7.568  25.329  53.664  1.00  0.00    -0.350 N 
HETATM    7  H   UNL     1       7.666  25.854  52.804  1.00  0.00     0.166 HD
HETATM    8  C   UNL     1       7.217  25.863  54.870  1.00  0.00     0.116 A 
HETATM    9  C   UNL     1       7.200  24.853  55.799  1.00  0.00     0.028 A 
HETATM   10  C   UNL     1       6.919  27.229  55.188  1.00  0.00     0.291 A 
HETATM   11  O   UNL     1       6.960  28.131  54.357  1.00  0.00    -0.264 OA
HETATM   12  N   UNL     1       6.566  27.411  56.539  1.00  0.00    -0.224 N 
HETATM   13  N   UNL     1       6.577  26.386  57.509  1.00  0.00    -0.180 NA
HETATM   14  C   UNL     1       6.871  25.167  57.159  1.00  0.00     0.153 A 
HETATM   15  C   UNL     1       8.155  23.015  52.855  1.00  0.00     0.031 A 
HETATM   16  C   UNL     1       8.303  21.692  53.290  1.00  0.00     0.009 A 
ENDROOT
BRANCH  12  17
HETATM   17  C   UNL     1       6.381  28.764  57.040  1.00  0.00     0.258 C 
BRANCH  17  18
HETATM   18  C   UNL     1       7.372  29.380  58.042  1.00  0.00     0.244 C 
HETATM   19  N   UNL     1       7.246  30.708  58.455  1.00  0.00    -0.320 N 
HETATM   20  C   UNL     1       6.187  31.611  58.017  1.00  0.00     0.159 C 
HETATM   21  O   UNL     1       8.199  28.610  58.555  1.00  0.00    -0.271 OA
BRANCH  19  22
HETATM   22  C   UNL     1       8.022  31.179  59.562  1.00  0.00     0.043 A 
HETATM   23  C   UNL     1       9.374  31.541  59.414  1.00  0.00    -0.035 A 
HETATM   24  C   UNL     1      10.139  31.312  58.140  1.00  0.00     0.050 C 
HETATM   25  C   UNL     1      10.043  32.125  60.503  1.00  0.00     0.009 A 
HETATM   26  C   UNL     1       9.394  32.323  61.724  1.00  0.00     0.007 A 
HETATM   27  C   UNL     1       8.066  31.927  61.890  1.00  0.00    -0.060 A 
HETATM   28  C   UNL     1       7.345  32.164  63.182  1.00  0.00     0.048 C 
HETATM   29  C   UNL     1       7.389  31.358  60.804  1.00  0.00     0.037 A 
ENDBRANCH  19  22
ENDBRANCH  17  18
ENDBRANCH  12  17
TORSDOF 3
ENDMDL
MODEL 2
REMARK VINA RESULT:     -10.3      1.668      8.971
REMARK  3 active torsions:
REMARK  status: ('A' for Active; 'I' for Inactive)
REMARK    1  A    between atoms: N_12  and  C_13 
REMARK    2  A    between atoms: C_13  and  C_14 
REMARK       I    between atoms: C_14  and  N_15 
REMARK    3  A    between atoms: N_15  and  C_16 
ROOT
HETATM    1  C   UNL     1       9.923  32.109  61.450  1.00  0.00     0.048 C 
HETATM    2  C   UNL     1       8.732  31.805  60.588  1.00  0.00    -0.061 A 
HETATM    3  C   UNL     1       8.745  30.704  59.716  1.00  0.00     0.021 A 
HETATM    4  C   UNL     1       7.616  30.430  58.917  1.00  0.00     0.005 A 
HETATM    5  C   UNL     1       6.501  31.268  59.015  1.00  0.00     0.044 A 
HETATM    6  N   UNL     1       5.542  30.786  58.145  1.00  0.00    -0.350 N 
HETATM    7  H   UNL     1       4.621  31.184  58.004  1.00  0.00     0.166 HD
HETATM    8  C   UNL     1       6.019  29.677  57.509  1.00  0.00     0.116 A 
HETATM    9  C   UNL     1       7.290  29.434  57.964  1.00  0.00     0.028 A 
HETATM   10  C   UNL     1       5.360  28.853  56.537  1.00  0.00     0.291 A 
HETATM   11  O   UNL     1       4.213  29.062  56.154  1.00  0.00    -0.264 OA
HETATM   12  N   UNL     1       6.173  27.801  56.072  1.00  0.00    -0.224 N 
HETATM   13  N   UNL     1       7.469  27.523  56.557  1.00  0.00    -0.180 NA
HETATM   14  C   UNL     1       8.006  28.302  57.451  1.00  0.00     0.153 A 
HETATM   15  C   UNL     1       6.464  32.370  59.875  1.00  0.00     0.031 A 
HETATM   16  C   UNL     1       7.598  32.621  60.657  1.00  0.00     0.009 A 
ENDROOT
BRANCH  12  17
HETATM   17  C   UNL     1       5.589  26.799  55.195  1.00  0.00     0.258 C 
BRANCH  17  18
HETATM   18  C   UNL     1       6.134  25.360  55.163  1.00  0.00     0.244 C 
HETATM   19  N   UNL     1       7.176  25.003  54.305  1.00  0.00    -0.320 N 
HETATM   20  C   UNL     1       7.851  25.926  53.399  1.00  0.00     0.159 C 
HETATM   21  O   UNL     1       5.693  24.577  56.019  1.00  0.00    -0.271 OA
BRANCH  19  22
HETATM   22  C   UNL     1       7.823  23.737  54.469  1.00  0.00     0.043 A 
HETATM   23  C   UNL     1       8.560  23.431  55.628  1.00  0.00    -0.035 A 
HETATM   24  C   UNL     1       8.855  24.449  56.693  1.00  0.00     0.050 C 
HETATM   25  C   UNL     1       9.056  22.126  55.791  1.00  0.00     0.009 A 
HETATM   26  C   UNL     1       8.849  21.150  54.813  1.00  0.00     0.007 A 
HETATM   27  C   UNL     1       8.155  21.459  53.643  1.00  0.00    -0.060 A 
HETATM   28  C   UNL     1       7.893  20.414  52.601  1.00  0.00     0.048 C 
HETATM   29  C   UNL     1       7.645  22.754  53.481  1.00  0.00     0.037 A 
ENDBRANCH  19  22
ENDBRANCH  17  18
ENDBRANCH  12  17
TORSDOF 3
ENDMDL
MODEL 3
REMARK VINA RESULT:     -10.2      1.928      9.598
REMARK  3 active torsions:
REMARK  status: ('A' for Active; 'I' for Inactive)
REMARK    1  A    between atoms: N_12  and  C_13 
REMARK    2  A    between atoms: C_13  and  C_14 
REMARK       I    between atoms: C_14  and  N_15 
REMARK    3  A    between atoms: N_15  and  C_16 
ROOT
HETATM    1  C   UNL     1       7.211  33.824  65.669  1.00  0.00     0.048 C 
HETATM    2  C   UNL     1       6.869  33.547  64.234  1.00  0.00    -0.061 A 
HETATM    3  C   UNL     1       7.686  32.713  63.453  1.00  0.00     0.021 A 
HETATM    4  C   UNL     1       7.348  32.458  62.108  1.00  0.00     0.005 A 
HETATM    5  C   UNL     1       6.194  33.047  61.580  1.00  0.00     0.044 A 
HETATM    6  N   UNL     1       6.086  32.641  60.265  1.00  0.00    -0.350 N 
HETATM    7  H   UNL     1       5.343  32.901  59.627  1.00  0.00     0.166 HD
HETATM    8  C   UNL     1       7.130  31.819  59.953  1.00  0.00     0.116 A 
HETATM    9  C   UNL     1       7.921  31.688  61.067  1.00  0.00     0.028 A 
HETATM   10  C   UNL     1       7.408  31.161  58.709  1.00  0.00     0.291 A 
HETATM   11  O   UNL     1       6.682  31.263  57.725  1.00  0.00    -0.264 OA
HETATM   12  N   UNL     1       8.598  30.409  58.744  1.00  0.00    -0.224 N 
HETATM   13  N   UNL     1       9.401  30.241  59.893  1.00  0.00    -0.180 NA
HETATM   14  C   UNL     1       9.085  30.854  60.997  1.00  0.00     0.153 A 
HETATM   15  C   UNL     1       5.364  33.881  62.337  1.00  0.00     0.031 A 
HETATM   16  C   UNL     1       5.723  34.118  63.669  1.00  0.00     0.009 A 
ENDROOT
BRANCH  12  17
HETATM   17  C   UNL     1       8.930  29.570  57.603  1.00  0.00     0.258 C 
BRANCH  17  18
HETATM   18  C   UNL     1       8.129  28.292  57.298  1.00  0.00     0.244 C 
HETATM   19  N   UNL     1       7.894  27.886  55.984  1.00  0.00    -0.320 N 
HETATM   20  C   UNL     1       8.386  28.588  54.803  1.00  0.00     0.159 C 
HETATM   21  O   UNL     1       7.819  27.583  58.269  1.00  0.00    -0.271 OA
BRANCH  19  22
HETATM   22  C   UNL     1       7.367  26.579  55.732  1.00  0.00     0.043 A 
HETATM   23  C   UNL     1       6.021  26.385  55.367  1.00  0.00    -0.035 A 
HETATM   24  C   UNL     1       5.012  27.499  55.371  1.00  0.00     0.050 C 
HETATM   25  C   UNL     1       5.598  25.096  55.001  1.00  0.00     0.009 A 
HETATM   26  C   UNL     1       6.482  24.015  55.020  1.00  0.00     0.007 A 
HETATM   27  C   UNL     1       7.806  24.194  55.422  1.00  0.00    -0.060 A 
HETATM   28  C   UNL     1       8.777  23.051  55.415  1.00  0.00     0.048 C 
HETATM   29  C   UNL     1       8.239  25.478  55.775  1.00  0.00     0.037 A 
ENDBRANCH  19  22
ENDBRANCH  17  18
ENDBRANCH  12  17
TORSDOF 3
ENDMDL
MODEL 4
REMARK VINA RESULT:     -10.2      1.827      9.211
REMARK  3 active torsions:
REMARK  status: ('A' for Active; 'I' for Inactive)
REMARK    1  A    between atoms: N_12  and  C_13 
REMARK    2  A    between atoms: C_13  and  C_14 
REMARK       I    between atoms: C_14  and  N_15 
REMARK    3  A    between atoms: N_15  and  C_16 
ROOT
HETATM    1  C   UNL     1       6.351  34.298  63.861  1.00  0.00     0.048 C 
HETATM    2  C   UNL     1       6.926  33.280  62.920  1.00  0.00    -0.061 A 
HETATM    3  C   UNL     1       6.312  33.022  61.684  1.00  0.00     0.021 A 
HETATM    4  C   UNL     1       6.869  32.067  60.810  1.00  0.00     0.005 A 
HETATM    5  C   UNL     1       8.032  31.394  61.199  1.00  0.00     0.044 A 
HETATM    6  N   UNL     1       8.371  30.528  60.178  1.00  0.00    -0.350 N 
HETATM    7  H   UNL     1       9.175  29.912  60.171  1.00  0.00     0.166 HD
HETATM    8  C   UNL     1       7.462  30.637  59.165  1.00  0.00     0.116 A 
HETATM    9  C   UNL     1       6.528  31.575  59.526  1.00  0.00     0.028 A 
HETATM   10  C   UNL     1       7.433  29.938  57.913  1.00  0.00     0.291 A 
HETATM   11  O   UNL     1       8.285  29.118  57.588  1.00  0.00    -0.264 OA
HETATM   12  N   UNL     1       6.322  30.286  57.120  1.00  0.00    -0.224 N 
HETATM   13  N   UNL     1       5.374  31.273  57.467  1.00  0.00    -0.180 NA
HETATM   14  C   UNL     1       5.466  31.883  58.614  1.00  0.00     0.153 A 
HETATM   15  C   UNL     1       8.662  31.633  62.424  1.00  0.00     0.031 A 
HETATM   16  C   UNL     1       8.089  32.586  63.274  1.00  0.00     0.009 A 
ENDROOT
BRANCH  12  17
HETATM   17  C   UNL     1       6.239  29.768  55.764  1.00  0.00     0.258 C 
BRANCH  17  18
HETATM   18  C   UNL     1       6.073  28.261  55.500  1.00  0.00     0.244 C 
HETATM   19  N   UNL     1       6.996  27.560  54.723  1.00  0.00    -0.320 N 
HETATM   20  C   UNL     1       8.186  28.153  54.121  1.00  0.00     0.159 C 
HETATM   21  O   UNL     1       5.161  27.684  56.113  1.00  0.00    -0.271 OA
BRANCH  19  22
HETATM   22  C   UNL     1       6.956  26.129  54.698  1.00  0.00     0.043 A 
HETATM   23  C   UNL     1       6.333  25.427  53.649  1.00  0.00    -0.035 A 
HETATM   24  C   UNL     1       5.535  26.114  52.577  1.00  0.00     0.050 C 
HETATM   25  C   UNL     1       6.446  24.027  53.610  1.00  0.00     0.009 A 
HETATM   26  C   UNL     1       7.139  23.333  54.604  1.00  0.00     0.007 A 
HETATM   27  C   UNL     1       7.723  24.020  55.668  1.00  0.00    -0.060 A 
HETATM   28  C   UNL     1       8.501  23.293  56.724  1.00  0.00     0.048 C 
HETATM   29  C   UNL     1       7.627  25.416  55.706  1.00  0.00     0.037 A 
ENDBRANCH  19  22
ENDBRANCH  17  18
ENDBRANCH  12  17
TORSDOF 3
ENDMDL
MODEL 5
REMARK VINA RESULT:     -10.0      2.059      9.694
REMARK  3 active torsions:
REMARK  status: ('A' for Active; 'I' for Inactive)
REMARK    1  A    between atoms: N_12  and  C_13 
REMARK    2  A    between atoms: C_13  and  C_14 
REMARK       I    between atoms: C_14  and  N_15 
REMARK    3  A    between atoms: N_15  and  C_16 
ROOT
HETATM    1  C   UNL     1       4.728  34.616  64.220  1.00  0.00     0.048 C 
HETATM    2  C   UNL     1       5.783  33.770  63.567  1.00  0.00    -0.061 A 
HETATM    3  C   UNL     1       5.620  33.318  62.248  1.00  0.00     0.021 A 
HETATM    4  C   UNL     1       6.623  32.530  61.648  1.00  0.00     0.005 A 
HETATM    5  C   UNL     1       7.767  32.215  62.389  1.00  0.00     0.044 A 
HETATM    6  N   UNL     1       8.586  31.449  61.583  1.00  0.00    -0.350 N 
HETATM    7  H   UNL     1       9.491  31.079  61.845  1.00  0.00     0.166 HD
HETATM    8  C   UNL     1       7.994  31.274  60.365  1.00  0.00     0.116 A 
HETATM    9  C   UNL     1       6.788  31.928  60.376  1.00  0.00     0.028 A 
HETATM   10  C   UNL     1       8.492  30.560  59.225  1.00  0.00     0.291 A 
HETATM   11  O   UNL     1       9.582  29.999  59.215  1.00  0.00    -0.264 OA
HETATM   12  N   UNL     1       7.591  30.566  58.142  1.00  0.00    -0.224 N 
HETATM   13  N   UNL     1       6.363  31.262  58.132  1.00  0.00    -0.180 NA
HETATM   14  C   UNL     1       5.975  31.904  59.195  1.00  0.00     0.153 A 
HETATM   15  C   UNL     1       7.952  32.653  63.704  1.00  0.00     0.031 A 
HETATM   16  C   UNL     1       6.941  33.434  64.277  1.00  0.00     0.009 A 
ENDROOT
BRANCH  12  17
HETATM   17  C   UNL     1       8.021  30.007  56.870  1.00  0.00     0.258 C 
BRANCH  17  18
HETATM   18  C   UNL     1       7.821  28.515  56.552  1.00  0.00     0.244 C 
HETATM   19  N   UNL     1       6.802  28.092  55.696  1.00  0.00    -0.320 N 
HETATM   20  C   UNL     1       5.870  28.986  55.018  1.00  0.00     0.159 C 
HETATM   21  O   UNL     1       8.680  27.731  56.985  1.00  0.00    -0.271 OA
BRANCH  19  22
HETATM   22  C   UNL     1       6.792  26.740  55.225  1.00  0.00     0.043 A 
HETATM   23  C   UNL     1       6.066  25.734  55.890  1.00  0.00    -0.035 A 
HETATM   24  C   UNL     1       5.389  25.962  57.212  1.00  0.00     0.050 C 
HETATM   25  C   UNL     1       5.983  24.459  55.304  1.00  0.00     0.009 A 
HETATM   26  C   UNL     1       6.628  24.178  54.098  1.00  0.00     0.007 A 
HETATM   27  C   UNL     1       7.384  25.159  53.456  1.00  0.00    -0.060 A 
HETATM   28  C   UNL     1       8.053  24.884  52.143  1.00  0.00     0.048 C 
HETATM   29  C   UNL     1       7.459  26.436  54.027  1.00  0.00     0.037 A 
ENDBRANCH  19  22
ENDBRANCH  17  18
ENDBRANCH  12  17
TORSDOF 3
ENDMDL
MODEL 6
REMARK VINA RESULT:     -10.0      5.609      9.178
REMARK  3 active torsions:
REMARK  status: ('A' for Active; 'I' for Inactive)
REMARK    1  A    between atoms: N_12  and  C_13 
REMARK    2  A    between atoms: C_13  and  C_14 
REMARK       I    between atoms: C_14  and  N_15 
REMARK    3  A    between atoms: N_15  and  C_16 
ROOT
HETATM    1  C   UNL     1       8.693  20.325  53.328  1.00  0.00     0.048 C 
HETATM    2  C   UNL     1       8.436  21.740  53.758  1.00  0.00    -0.061 A 
HETATM    3  C   UNL     1       7.769  22.635  52.905  1.00  0.00     0.021 A 
HETATM    4  C   UNL     1       7.531  23.960  53.327  1.00  0.00     0.005 A 
HETATM    5  C   UNL     1       7.968  24.352  54.597  1.00  0.00     0.044 A 
HETATM    6  N   UNL     1       7.611  25.676  54.767  1.00  0.00    -0.350 N 
HETATM    7  H   UNL     1       7.789  26.232  55.595  1.00  0.00     0.166 HD
HETATM    8  C   UNL     1       6.968  26.123  53.649  1.00  0.00     0.116 A 
HETATM    9  C   UNL     1       6.903  25.090  52.749  1.00  0.00     0.028 A 
HETATM   10  C   UNL     1       6.417  27.423  53.397  1.00  0.00     0.291 A 
HETATM   11  O   UNL     1       6.457  28.334  54.217  1.00  0.00    -0.264 OA
HETATM   12  N   UNL     1       5.847  27.534  52.114  1.00  0.00    -0.224 N 
HETATM   13  N   UNL     1       5.746  26.469  51.193  1.00  0.00    -0.180 NA
HETATM   14  C   UNL     1       6.253  25.308  51.489  1.00  0.00     0.153 A 
HETATM   15  C   UNL     1       8.634  23.480  55.463  1.00  0.00     0.031 A 
HETATM   16  C   UNL     1       8.858  22.171  55.020  1.00  0.00     0.009 A 
ENDROOT
BRANCH  12  17
HETATM   17  C   UNL     1       5.121  28.747  51.772  1.00  0.00     0.258 C 
BRANCH  17  18
HETATM   18  C   UNL     1       3.913  28.706  50.819  1.00  0.00     0.244 C 
HETATM   19  N   UNL     1       4.084  28.791  49.436  1.00  0.00    -0.320 N 
HETATM   20  C   UNL     1       5.377  28.899  48.770  1.00  0.00     0.159 C 
HETATM   21  O   UNL     1       2.808  28.465  51.329  1.00  0.00    -0.271 OA
BRANCH  19  22
HETATM   22  C   UNL     1       2.981  28.504  48.570  1.00  0.00     0.043 A 
HETATM   23  C   UNL     1       2.688  27.190  48.160  1.00  0.00    -0.035 A 
HETATM   24  C   UNL     1       3.591  26.026  48.463  1.00  0.00     0.050 C 
HETATM   25  C   UNL     1       1.515  26.955  47.423  1.00  0.00     0.009 A 
HETATM   26  C   UNL     1       0.662  28.004  47.075  1.00  0.00     0.007 A 
HETATM   27  C   UNL     1       0.968  29.315  47.443  1.00  0.00    -0.060 A 
HETATM   28  C   UNL     1       0.045  30.448  47.108  1.00  0.00     0.048 C 
HETATM   29  C   UNL     1       2.128  29.554  48.190  1.00  0.00     0.037 A 
ENDBRANCH  19  22
ENDBRANCH  17  18
ENDBRANCH  12  17
TORSDOF 3
ENDMDL
MODEL 7
REMARK VINA RESULT:      -9.8      2.061     10.020
REMARK  3 active torsions:
REMARK  status: ('A' for Active; 'I' for Inactive)
REMARK    1  A    between atoms: N_12  and  C_13 
REMARK    2  A    between atoms: C_13  and  C_14 
REMARK       I    between atoms: C_14  and  N_15 
REMARK    3  A    between atoms: N_15  and  C_16 
ROOT
HETATM    1  C   UNL     1       4.830  35.836  64.450  1.00  0.00     0.048 C 
HETATM    2  C   UNL     1       5.756  34.751  63.980  1.00  0.00    -0.061 A 
HETATM    3  C   UNL     1       5.697  34.286  62.657  1.00  0.00     0.021 A 
HETATM    4  C   UNL     1       6.578  33.270  62.231  1.00  0.00     0.005 A 
HETATM    5  C   UNL     1       7.497  32.747  63.146  1.00  0.00     0.044 A 
HETATM    6  N   UNL     1       8.236  31.784  62.487  1.00  0.00    -0.350 N 
HETATM    7  H   UNL     1       8.986  31.237  62.893  1.00  0.00     0.166 HD
HETATM    8  C   UNL     1       7.811  31.688  61.194  1.00  0.00     0.116 A 
HETATM    9  C   UNL     1       6.794  32.589  61.008  1.00  0.00     0.028 A 
HETATM   10  C   UNL     1       8.303  30.831  60.154  1.00  0.00     0.291 A 
HETATM   11  O   UNL     1       9.229  30.044  60.322  1.00  0.00    -0.264 OA
HETATM   12  N   UNL     1       7.600  30.984  58.943  1.00  0.00    -0.224 N 
HETATM   13  N   UNL     1       6.575  31.930  58.732  1.00  0.00    -0.180 NA
HETATM   14  C   UNL     1       6.185  32.691  59.714  1.00  0.00     0.153 A 
HETATM   15  C   UNL     1       7.575  33.194  64.469  1.00  0.00     0.031 A 
HETATM   16  C   UNL     1       6.689  34.203  64.867  1.00  0.00     0.009 A 
ENDROOT
BRANCH  12  17
HETATM   17  C   UNL     1       8.082  30.287  57.761  1.00  0.00     0.258 C 
BRANCH  17  18
HETATM   18  C   UNL     1       7.257  29.162  57.113  1.00  0.00     0.244 C 
HETATM   19  N   UNL     1       7.651  28.582  55.906  1.00  0.00    -0.320 N 
HETATM   20  C   UNL     1       8.856  28.950  55.170  1.00  0.00     0.159 C 
HETATM   21  O   UNL     1       6.308  28.713  57.776  1.00  0.00    -0.271 OA
BRANCH  19  22
HETATM   22  C   UNL     1       7.012  27.383  55.456  1.00  0.00     0.043 A 
HETATM   23  C   UNL     1       5.920  27.419  54.568  1.00  0.00    -0.035 A 
HETATM   24  C   UNL     1       5.251  28.701  54.158  1.00  0.00     0.050 C 
HETATM   25  C   UNL     1       5.423  26.209  54.055  1.00  0.00     0.009 A 
HETATM   26  C   UNL     1       5.979  24.985  54.435  1.00  0.00     0.007 A 
HETATM   27  C   UNL     1       7.033  24.941  55.347  1.00  0.00    -0.060 A 
HETATM   28  C   UNL     1       7.664  23.638  55.737  1.00  0.00     0.048 C 
HETATM   29  C   UNL     1       7.543  26.144  55.850  1.00  0.00     0.037 A 
ENDBRANCH  19  22
ENDBRANCH  17  18
ENDBRANCH  12  17
TORSDOF 3
ENDMDL
MODEL 8
REMARK VINA RESULT:      -9.8      1.902      9.420
REMARK  3 active torsions:
REMARK  status: ('A' for Active; 'I' for Inactive)
REMARK    1  A    between atoms: N_12  and  C_13 
REMARK    2  A    between atoms: C_13  and  C_14 
REMARK       I    between atoms: C_14  and  N_15 
REMARK    3  A    between atoms: N_15  and  C_16 
ROOT
HETATM    1  C   UNL     1       7.637  33.335  64.507  1.00  0.00     0.048 C 
HETATM    2  C   UNL     1       6.903  33.296  63.199  1.00  0.00    -0.061 A 
HETATM    3  C   UNL     1       7.339  32.457  62.160  1.00  0.00     0.021 A 
HETATM    4  C   UNL     1       6.635  32.428  60.939  1.00  0.00     0.005 A 
HETATM    5  C   UNL     1       5.507  33.243  60.792  1.00  0.00     0.044 A 
HETATM    6  N   UNL     1       5.002  33.027  59.524  1.00  0.00    -0.350 N 
HETATM    7  H   UNL     1       4.181  33.473  59.133  1.00  0.00     0.166 HD
HETATM    8  C   UNL     1       5.774  32.107  58.876  1.00  0.00     0.116 A 
HETATM    9  C   UNL     1       6.784  31.721  59.721  1.00  0.00     0.028 A 
HETATM   10  C   UNL     1       5.611  31.580  57.552  1.00  0.00     0.291 A 
HETATM   11  O   UNL     1       4.691  31.912  56.811  1.00  0.00    -0.264 OA
HETATM   12  N   UNL     1       6.621  30.662  57.202  1.00  0.00    -0.224 N 
HETATM   13  N   UNL     1       7.644  30.234  58.075  1.00  0.00    -0.180 NA
HETATM   14  C   UNL     1       7.728  30.741  59.271  1.00  0.00     0.153 A 
HETATM   15  C   UNL     1       5.053  34.087  61.810  1.00  0.00     0.031 A 
HETATM   16  C   UNL     1       5.771  34.096  63.013  1.00  0.00     0.009 A 
ENDROOT
BRANCH  12  17
HETATM   17  C   UNL     1       6.504  29.936  55.947  1.00  0.00     0.258 C 
BRANCH  17  18
HETATM   18  C   UNL     1       7.242  28.603  55.731  1.00  0.00     0.244 C 
HETATM   19  N   UNL     1       6.571  27.383  55.829  1.00  0.00    -0.320 N 
HETATM   20  C   UNL     1       5.145  27.248  56.110  1.00  0.00     0.159 C 
HETATM   21  O   UNL     1       8.419  28.673  55.344  1.00  0.00    -0.271 OA
BRANCH  19  22
HETATM   22  C   UNL     1       7.215  26.185  55.385  1.00  0.00     0.043 A 
HETATM   23  C   UNL     1       7.791  25.278  56.294  1.00  0.00    -0.035 A 
HETATM   24  C   UNL     1       7.914  25.571  57.763  1.00  0.00     0.050 C 
HETATM   25  C   UNL     1       8.286  24.055  55.809  1.00  0.00     0.009 A 
HETATM   26  C   UNL     1       8.237  23.748  54.448  1.00  0.00     0.007 A 
HETATM   27  C   UNL     1       7.706  24.661  53.537  1.00  0.00    -0.060 A 
HETATM   28  C   UNL     1       7.613  24.332  52.077  1.00  0.00     0.048 C 
HETATM   29  C   UNL     1       7.197  25.875  54.014  1.00  0.00     0.037 A 
ENDBRANCH  19  22
ENDBRANCH  17  18
ENDBRANCH  12  17
TORSDOF 3
ENDMDL
MODEL 9
REMARK VINA RESULT:      -9.5      2.078      9.220
REMARK  3 active torsions:
REMARK  status: ('A' for Active; 'I' for Inactive)
REMARK    1  A    between atoms: N_12  and  C_13 
REMARK    2  A    between atoms: C_13  and  C_14 
REMARK       I    between atoms: C_14  and  N_15 
REMARK    3  A    between atoms: N_15  and  C_16 
ROOT
HETATM    1  C   UNL     1       7.931  33.059  63.918  1.00  0.00     0.048 C 
HETATM    2  C   UNL     1       7.090  33.088  62.674  1.00  0.00    -0.061 A 
HETATM    3  C   UNL     1       7.372  32.226  61.602  1.00  0.00     0.021 A 
HETATM    4  C   UNL     1       6.569  32.263  60.443  1.00  0.00     0.005 A 
HETATM    5  C   UNL     1       5.501  33.165  60.391  1.00  0.00     0.044 A 
HETATM    6  N   UNL     1       4.878  33.000  59.170  1.00  0.00    -0.350 N 
HETATM    7  H   UNL     1       4.065  33.512  58.849  1.00  0.00     0.166 HD
HETATM    8  C   UNL     1       5.519  32.027  58.458  1.00  0.00     0.116 A 
HETATM    9  C   UNL     1       6.560  31.556  59.216  1.00  0.00     0.028 A 
HETATM   10  C   UNL     1       5.205  31.525  57.152  1.00  0.00     0.291 A 
HETATM   11  O   UNL     1       4.257  31.934  56.490  1.00  0.00    -0.264 OA
HETATM   12  N   UNL     1       6.107  30.533  56.718  1.00  0.00    -0.224 N 
HETATM   13  N   UNL     1       7.162  30.019  57.502  1.00  0.00    -0.180 NA
HETATM   14  C   UNL     1       7.384  30.508  58.688  1.00  0.00     0.153 A 
HETATM   15  C   UNL     1       5.201  34.033  61.446  1.00  0.00     0.031 A 
HETATM   16  C   UNL     1       6.014  33.977  62.584  1.00  0.00     0.009 A 
ENDROOT
BRANCH  12  17
HETATM   17  C   UNL     1       5.830  29.829  55.476  1.00  0.00     0.258 C 
BRANCH  17  18
HETATM   18  C   UNL     1       5.808  28.291  55.425  1.00  0.00     0.244 C 
HETATM   19  N   UNL     1       6.803  27.578  54.755  1.00  0.00    -0.320 N 
HETATM   20  C   UNL     1       7.941  28.190  54.077  1.00  0.00     0.159 C 
HETATM   21  O   UNL     1       4.945  27.722  56.112  1.00  0.00    -0.271 OA
BRANCH  19  22
HETATM   22  C   UNL     1       6.896  26.161  54.930  1.00  0.00     0.043 A 
HETATM   23  C   UNL     1       6.321  25.265  54.010  1.00  0.00    -0.035 A 
HETATM   24  C   UNL     1       5.441  25.719  52.879  1.00  0.00     0.050 C 
HETATM   25  C   UNL     1       6.563  23.889  54.161  1.00  0.00     0.009 A 
HETATM   26  C   UNL     1       7.337  23.406  55.219  1.00  0.00     0.007 A 
HETATM   27  C   UNL     1       7.875  24.286  56.158  1.00  0.00    -0.060 A 
HETATM   28  C   UNL     1       8.738  23.788  57.278  1.00  0.00     0.048 C 
HETATM   29  C   UNL     1       7.650  25.660  56.005  1.00  0.00     0.037 A 
ENDBRANCH  19  22
ENDBRANCH  17  18
ENDBRANCH  12  17
TORSDOF 3
ENDMDL
MODEL 10
REMARK VINA RESULT:      -9.5      1.832      3.028
REMARK  3 active torsions:
REMARK  status: ('A' for Active; 'I' for Inactive)
REMARK    1  A    between atoms: N_12  and  C_13 
REMARK    2  A    between atoms: C_13  and  C_14 
REMARK       I    between atoms: C_14  and  N_15 
REMARK    3  A    between atoms: N_15  and  C_16 
ROOT
HETATM    1  C   UNL     1       7.655  22.441  54.062  1.00  0.00     0.048 C 
HETATM    2  C   UNL     1       7.086  23.826  54.168  1.00  0.00    -0.061 A 
HETATM    3  C   UNL     1       7.617  24.748  55.084  1.00  0.00     0.021 A 
HETATM    4  C   UNL     1       7.074  26.047  55.167  1.00  0.00     0.005 A 
HETATM    5  C   UNL     1       6.011  26.388  54.324  1.00  0.00     0.044 A 
HETATM    6  N   UNL     1       5.671  27.699  54.595  1.00  0.00    -0.350 N 
HETATM    7  H   UNL     1       4.939  28.226  54.133  1.00  0.00     0.166 HD
HETATM    8  C   UNL     1       6.485  28.188  55.576  1.00  0.00     0.116 A 
HETATM    9  C   UNL     1       7.357  27.196  55.945  1.00  0.00     0.028 A 
HETATM   10  C   UNL     1       6.494  29.500  56.155  1.00  0.00     0.291 A 
HETATM   11  O   UNL     1       5.728  30.390  55.802  1.00  0.00    -0.264 OA
HETATM   12  N   UNL     1       7.461  29.641  57.171  1.00  0.00    -0.224 N 
HETATM   13  N   UNL     1       8.383  28.638  57.536  1.00  0.00    -0.180 NA
HETATM   14  C   UNL     1       8.332  27.471  56.960  1.00  0.00     0.153 A 
HETATM   15  C   UNL     1       5.465  25.488  53.403  1.00  0.00     0.031 A 
HETATM   16  C   UNL     1       6.022  24.205  53.342  1.00  0.00     0.009 A 
ENDROOT
BRANCH  12  17
HETATM   17  C   UNL     1       7.685  30.957  57.747  1.00  0.00     0.258 C 
BRANCH  17  18
HETATM   18  C   UNL     1       7.273  31.268  59.197  1.00  0.00     0.244 C 
HETATM   19  N   UNL     1       8.188  31.801  60.107  1.00  0.00    -0.320 N 
HETATM   20  C   UNL     1       9.573  32.130  59.787  1.00  0.00     0.159 C 
HETATM   21  O   UNL     1       6.070  31.145  59.474  1.00  0.00    -0.271 OA
BRANCH  19  22
HETATM   22  C   UNL     1       7.722  32.307  61.362  1.00  0.00     0.043 A 
HETATM   23  C   UNL     1       8.087  31.704  62.581  1.00  0.00    -0.035 A 
HETATM   24  C   UNL     1       8.848  30.410  62.649  1.00  0.00     0.050 C 
HETATM   25  C   UNL     1       7.711  32.327  63.783  1.00  0.00     0.009 A 
HETATM   26  C   UNL     1       6.967  33.508  63.780  1.00  0.00     0.007 A 
HETATM   27  C   UNL     1       6.567  34.087  62.576  1.00  0.00    -0.060 A 
HETATM   28  C   UNL     1       5.798  35.374  62.554  1.00  0.00     0.048 C 
HETATM   29  C   UNL     1       6.950  33.480  61.373  1.00  0.00     0.037 A 
ENDBRANCH  19  22
ENDBRANCH  17  18
ENDBRANCH  12  17
TORSDOF 3
ENDMDL
