MODEL 1
REMARK VINA RESULT:      -9.3      0.000      0.000
REMARK  5 active torsions:
REMARK  status: ('A' for Active; 'I' for Inactive)
REMARK    1  A    between atoms: C_4  and  C_5 
REMARK    2  A    between atoms: C_5  and  N_6 
REMARK       I    between atoms: N_6  and  C_7 
REMARK    3  A    between atoms: C_7  and  C_8 
REMARK    4  A    between atoms: C_11  and  N_12 
REMARK       I    between atoms: N_12  and  C_13 
REMARK       I    between atoms: C_13  and  N_14 
REMARK    5  A    between atoms: N_14  and  C_15 
ROOT
HETATM    1  C   UNL     1       7.433  28.634  55.869  1.00  0.00     0.032 A 
HETATM    2  C   UNL     1       8.157  28.409  57.044  1.00  0.00     0.019 A 
HETATM    3  C   UNL     1       7.914  29.191  58.181  1.00  0.00     0.030 A 
HETATM    4  C   UNL     1       6.955  30.206  58.156  1.00  0.00     0.036 A 
HETATM    5  C   UNL     1       6.199  30.395  56.993  1.00  0.00     0.030 A 
HETATM    6  C   UNL     1       6.433  29.614  55.859  1.00  0.00     0.019 A 
ENDROOT
BRANCH   4   7
HETATM    7  N   UNL     1       6.690  31.070  59.240  1.00  0.00    -0.309 N 
HETATM    8  C   UNL     1       7.493  32.062  59.734  1.00  0.00     0.325 C 
HETATM    9  N   UNL     1       7.015  32.752  60.818  1.00  0.00    -0.306 N 
HETATM   10  O   UNL     1       8.562  32.428  59.250  1.00  0.00    -0.247 OA
HETATM   11  H   UNL     1       7.544  33.595  61.003  1.00  0.00     0.171 HD
HETATM   12  H   UNL     1       5.725  31.121  59.528  1.00  0.00     0.170 HD
BRANCH   9  13
HETATM   13  C   UNL     1       6.014  32.436  61.714  1.00  0.00     0.072 A 
HETATM   14  C   UNL     1       5.987  31.660  62.893  1.00  0.00     0.169 A 
HETATM   15  N   UNL     1       4.773  31.613  63.449  1.00  0.00    -0.185 NA
HETATM   16  N   UNL     1       4.031  32.401  62.654  1.00  0.00    -0.287 N 
HETATM   17  H   UNL     1       3.051  32.534  62.884  1.00  0.00     0.188 HD
HETATM   18  C   UNL     1       4.735  32.930  61.611  1.00  0.00     0.140 A 
ENDBRANCH   9  13
ENDBRANCH   4   7
BRANCH   1  19
HETATM   19  C   UNL     1       7.688  27.884  54.610  1.00  0.00     0.251 C 
HETATM   20  N   UNL     1       7.148  26.621  54.528  1.00  0.00    -0.353 N 
HETATM   21  H   UNL     1       6.603  26.238  55.286  1.00  0.00     0.163 HD
HETATM   22  O   UNL     1       8.398  28.371  53.737  1.00  0.00    -0.268 OA
BRANCH  20  23
HETATM   23  C   UNL     1       7.452  25.762  53.404  1.00  0.00     0.161 C 
BRANCH  23  24
HETATM   24  C   UNL     1       7.626  24.322  53.817  1.00  0.00    -0.041 A 
HETATM   25  C   UNL     1       7.435  23.942  55.153  1.00  0.00     0.009 A 
HETATM   26  C   UNL     1       7.555  22.604  55.536  1.00  0.00     0.001 A 
HETATM   27  C   UNL     1       7.868  21.631  54.588  1.00  0.00     0.000 A 
HETATM   28  C   UNL     1       8.049  21.992  53.255  1.00  0.00     0.001 A 
HETATM   29  C   UNL     1       7.918  23.328  52.870  1.00  0.00     0.009 A 
ENDBRANCH  23  24
ENDBRANCH  20  23
ENDBRANCH   1  19
TORSDOF 5
ENDMDL
MODEL 2
REMARK VINA RESULT:      -9.2      1.932      2.741
REMARK  5 active torsions:
REMARK  status: ('A' for Active; 'I' for Inactive)
REMARK    1  A    between atoms: C_4  and  C_5 
REMARK    2  A    between atoms: C_5  and  N_6 
REMARK       I    between atoms: N_6  and  C_7 
REMARK    3  A    between atoms: C_7  and  C_8 
REMARK    4  A    between atoms: C_11  and  N_12 
REMARK       I    between atoms: N_12  and  C_13 
REMARK       I    between atoms: C_13  and  N_14 
REMARK    5  A    between atoms: N_14  and  C_15 
ROOT
HETATM    1  C   UNL     1       7.145  27.063  55.277  1.00  0.00     0.032 A 
HETATM    2  C   UNL     1       7.013  28.432  55.027  1.00  0.00     0.019 A 
HETATM    3  C   UNL     1       7.390  29.365  56.003  1.00  0.00     0.030 A 
HETATM    4  C   UNL     1       7.894  28.942  57.236  1.00  0.00     0.036 A 
HETATM    5  C   UNL     1       8.069  27.572  57.461  1.00  0.00     0.030 A 
HETATM    6  C   UNL     1       7.701  26.639  56.489  1.00  0.00     0.019 A 
ENDROOT
BRANCH   4   7
HETATM    7  N   UNL     1       8.244  29.815  58.287  1.00  0.00    -0.309 N 
HETATM    8  C   UNL     1       9.360  30.601  58.386  1.00  0.00     0.325 C 
HETATM    9  N   UNL     1       9.482  31.349  59.527  1.00  0.00    -0.306 N 
HETATM   10  O   UNL     1      10.218  30.741  57.516  1.00  0.00    -0.247 OA
HETATM   11  H   UNL     1      10.204  32.056  59.451  1.00  0.00     0.171 HD
HETATM   12  H   UNL     1       7.493  30.065  58.912  1.00  0.00     0.170 HD
BRANCH   9  13
HETATM   13  C   UNL     1       8.852  31.233  60.750  1.00  0.00     0.072 A 
HETATM   14  C   UNL     1       7.698  31.832  61.300  1.00  0.00     0.169 A 
HETATM   15  N   UNL     1       7.459  31.430  62.551  1.00  0.00    -0.185 NA
HETATM   16  N   UNL     1       8.431  30.535  62.787  1.00  0.00    -0.287 N 
HETATM   17  H   UNL     1       8.452  30.073  63.691  1.00  0.00     0.188 HD
HETATM   18  C   UNL     1       9.280  30.370  61.732  1.00  0.00     0.140 A 
ENDBRANCH   9  13
ENDBRANCH   4   7
BRANCH   1  19
HETATM   19  C   UNL     1       6.703  26.022  54.310  1.00  0.00     0.251 C 
HETATM   20  N   UNL     1       7.264  24.774  54.452  1.00  0.00    -0.353 N 
HETATM   21  H   UNL     1       7.935  24.584  55.182  1.00  0.00     0.163 HD
HETATM   22  O   UNL     1       5.924  26.311  53.409  1.00  0.00    -0.268 OA
BRANCH  20  23
HETATM   23  C   UNL     1       7.002  23.734  53.481  1.00  0.00     0.161 C 
BRANCH  23  24
HETATM   24  C   UNL     1       7.633  22.420  53.867  1.00  0.00    -0.041 A 
HETATM   25  C   UNL     1       7.671  22.022  55.212  1.00  0.00     0.009 A 
HETATM   26  C   UNL     1       8.218  20.789  55.574  1.00  0.00     0.001 A 
HETATM   27  C   UNL     1       8.733  19.939  54.597  1.00  0.00     0.000 A 
HETATM   28  C   UNL     1       8.692  20.315  53.256  1.00  0.00     0.001 A 
HETATM   29  C   UNL     1       8.135  21.544  52.892  1.00  0.00     0.009 A 
ENDBRANCH  23  24
ENDBRANCH  20  23
ENDBRANCH   1  19
TORSDOF 5
ENDMDL
MODEL 3
REMARK VINA RESULT:      -9.1      1.932      2.631
REMARK  5 active torsions:
REMARK  status: ('A' for Active; 'I' for Inactive)
REMARK    1  A    between atoms: C_4  and  C_5 
REMARK    2  A    between atoms: C_5  and  N_6 
REMARK       I    between atoms: N_6  and  C_7 
REMARK    3  A    between atoms: C_7  and  C_8 
REMARK    4  A    between atoms: C_11  and  N_12 
REMARK       I    between atoms: N_12  and  C_13 
REMARK       I    between atoms: C_13  and  N_14 
REMARK    5  A    between atoms: N_14  and  C_15 
ROOT
HETATM    1  C   UNL     1       6.401  27.287  55.496  1.00  0.00     0.032 A 
HETATM    2  C   UNL     1       5.276  27.638  56.250  1.00  0.00     0.019 A 
HETATM    3  C   UNL     1       5.371  28.631  57.234  1.00  0.00     0.030 A 
HETATM    4  C   UNL     1       6.585  29.277  57.480  1.00  0.00     0.036 A 
HETATM    5  C   UNL     1       7.695  28.956  56.689  1.00  0.00     0.030 A 
HETATM    6  C   UNL     1       7.604  27.971  55.702  1.00  0.00     0.019 A 
ENDROOT
BRANCH   4   7
HETATM    7  N   UNL     1       6.774  30.246  58.486  1.00  0.00    -0.309 N 
HETATM    8  C   UNL     1       6.477  31.581  58.429  1.00  0.00     0.325 C 
HETATM    9  N   UNL     1       6.779  32.323  59.542  1.00  0.00    -0.306 N 
HETATM   10  O   UNL     1       5.905  32.150  57.501  1.00  0.00    -0.247 OA
HETATM   11  H   UNL     1       6.351  33.240  59.522  1.00  0.00     0.171 HD
HETATM   12  H   UNL     1       6.921  29.884  59.416  1.00  0.00     0.170 HD
BRANCH   9  13
HETATM   13  C   UNL     1       7.619  32.051  60.603  1.00  0.00     0.072 A 
HETATM   14  C   UNL     1       7.396  31.548  61.903  1.00  0.00     0.169 A 
HETATM   15  N   UNL     1       8.521  31.456  62.617  1.00  0.00    -0.185 NA
HETATM   16  N   UNL     1       9.473  31.853  61.759  1.00  0.00    -0.287 N 
HETATM   17  H   UNL     1      10.438  31.858  62.077  1.00  0.00     0.188 HD
HETATM   18  C   UNL     1       8.984  32.203  60.534  1.00  0.00     0.140 A 
ENDBRANCH   9  13
ENDBRANCH   4   7
BRANCH   1  19
HETATM   19  C   UNL     1       6.382  26.196  54.483  1.00  0.00     0.251 C 
HETATM   20  N   UNL     1       7.546  25.479  54.333  1.00  0.00    -0.353 N 
HETATM   21  H   UNL     1       8.361  25.685  54.892  1.00  0.00     0.163 HD
HETATM   22  O   UNL     1       5.385  26.015  53.794  1.00  0.00    -0.268 OA
BRANCH  20  23
HETATM   23  C   UNL     1       7.672  24.491  53.284  1.00  0.00     0.161 C 
BRANCH  23  24
HETATM   24  C   UNL     1       7.734  23.085  53.827  1.00  0.00    -0.041 A 
HETATM   25  C   UNL     1       7.906  21.998  52.958  1.00  0.00     0.009 A 
HETATM   26  C   UNL     1       8.004  20.698  53.456  1.00  0.00     0.001 A 
HETATM   27  C   UNL     1       7.932  20.468  54.829  1.00  0.00     0.000 A 
HETATM   28  C   UNL     1       7.773  21.538  55.705  1.00  0.00     0.001 A 
HETATM   29  C   UNL     1       7.686  22.841  55.209  1.00  0.00     0.009 A 
ENDBRANCH  23  24
ENDBRANCH  20  23
ENDBRANCH   1  19
TORSDOF 5
ENDMDL
MODEL 4
REMARK VINA RESULT:      -8.9      2.545      9.709
REMARK  5 active torsions:
REMARK  status: ('A' for Active; 'I' for Inactive)
REMARK    1  A    between atoms: C_4  and  C_5 
REMARK    2  A    between atoms: C_5  and  N_6 
REMARK       I    between atoms: N_6  and  C_7 
REMARK    3  A    between atoms: C_7  and  C_8 
REMARK    4  A    between atoms: C_11  and  N_12 
REMARK       I    between atoms: N_12  and  C_13 
REMARK       I    between atoms: C_13  and  N_14 
REMARK    5  A    between atoms: N_14  and  C_15 
ROOT
HETATM    1  C   UNL     1       8.920  30.213  58.383  1.00  0.00     0.032 A 
HETATM    2  C   UNL     1       9.803  29.743  57.405  1.00  0.00     0.019 A 
HETATM    3  C   UNL     1       9.413  28.707  56.545  1.00  0.00     0.030 A 
HETATM    4  C   UNL     1       8.146  28.128  56.656  1.00  0.00     0.036 A 
HETATM    5  C   UNL     1       7.250  28.636  57.604  1.00  0.00     0.030 A 
HETATM    6  C   UNL     1       7.632  29.672  58.459  1.00  0.00     0.019 A 
ENDROOT
BRANCH   4   7
HETATM    7  N   UNL     1       7.700  27.048  55.866  1.00  0.00    -0.309 N 
HETATM    8  C   UNL     1       7.770  25.713  56.157  1.00  0.00     0.325 C 
HETATM    9  N   UNL     1       7.284  24.853  55.207  1.00  0.00    -0.306 N 
HETATM   10  O   UNL     1       8.165  25.229  57.216  1.00  0.00    -0.247 OA
HETATM   11  H   UNL     1       7.169  23.911  55.560  1.00  0.00     0.171 HD
HETATM   12  H   UNL     1       7.058  27.288  55.126  1.00  0.00     0.170 HD
BRANCH   9  13
HETATM   13  C   UNL     1       7.020  25.051  53.867  1.00  0.00     0.072 A 
HETATM   14  C   UNL     1       5.851  25.405  53.157  1.00  0.00     0.169 A 
HETATM   15  N   UNL     1       6.053  25.473  51.838  1.00  0.00    -0.185 NA
HETATM   16  N   UNL     1       7.363  25.211  51.705  1.00  0.00    -0.287 N 
HETATM   17  H   UNL     1       7.763  25.217  50.772  1.00  0.00     0.188 HD
HETATM   18  C   UNL     1       7.988  24.969  52.893  1.00  0.00     0.140 A 
ENDBRANCH   9  13
ENDBRANCH   4   7
BRANCH   1  19
HETATM   19  C   UNL     1       9.296  31.263  59.368  1.00  0.00     0.251 C 
HETATM   20  N   UNL     1       9.097  30.959  60.695  1.00  0.00    -0.353 N 
HETATM   21  H   UNL     1       8.723  30.064  60.974  1.00  0.00     0.163 HD
HETATM   22  O   UNL     1       9.701  32.353  58.980  1.00  0.00    -0.268 OA
BRANCH  20  23
HETATM   23  C   UNL     1       9.304  31.960  61.719  1.00  0.00     0.161 C 
BRANCH  23  24
HETATM   24  C   UNL     1       8.027  32.312  62.440  1.00  0.00    -0.041 A 
HETATM   25  C   UNL     1       6.786  32.103  61.822  1.00  0.00     0.009 A 
HETATM   26  C   UNL     1       5.598  32.389  62.498  1.00  0.00     0.001 A 
HETATM   27  C   UNL     1       5.636  32.886  63.799  1.00  0.00     0.000 A 
HETATM   28  C   UNL     1       6.862  33.087  64.430  1.00  0.00     0.001 A 
HETATM   29  C   UNL     1       8.050  32.791  63.759  1.00  0.00     0.009 A 
ENDBRANCH  23  24
ENDBRANCH  20  23
ENDBRANCH   1  19
TORSDOF 5
ENDMDL
MODEL 5
REMARK VINA RESULT:      -8.5      4.598     12.092
REMARK  5 active torsions:
REMARK  status: ('A' for Active; 'I' for Inactive)
REMARK    1  A    between atoms: C_4  and  C_5 
REMARK    2  A    between atoms: C_5  and  N_6 
REMARK       I    between atoms: N_6  and  C_7 
REMARK    3  A    between atoms: C_7  and  C_8 
REMARK    4  A    between atoms: C_11  and  N_12 
REMARK       I    between atoms: N_12  and  C_13 
REMARK       I    between atoms: C_13  and  N_14 
REMARK    5  A    between atoms: N_14  and  C_15 
ROOT
HETATM    1  C   UNL     1       5.969  33.561  64.307  1.00  0.00     0.032 A 
HETATM    2  C   UNL     1       5.018  33.328  63.309  1.00  0.00     0.019 A 
HETATM    3  C   UNL     1       5.376  32.638  62.143  1.00  0.00     0.030 A 
HETATM    4  C   UNL     1       6.683  32.180  61.959  1.00  0.00     0.036 A 
HETATM    5  C   UNL     1       7.618  32.374  62.982  1.00  0.00     0.030 A 
HETATM    6  C   UNL     1       7.265  33.056  64.149  1.00  0.00     0.019 A 
ENDROOT
BRANCH   4   7
HETATM    7  N   UNL     1       7.134  31.527  60.793  1.00  0.00    -0.309 N 
HETATM    8  C   UNL     1       8.083  31.957  59.907  1.00  0.00     0.325 C 
HETATM    9  N   UNL     1       8.329  31.144  58.831  1.00  0.00    -0.306 N 
HETATM   10  O   UNL     1       8.775  32.966  60.029  1.00  0.00    -0.247 OA
HETATM   11  H   UNL     1       9.172  31.404  58.334  1.00  0.00     0.171 HD
HETATM   12  H   UNL     1       6.910  30.545  60.732  1.00  0.00     0.170 HD
BRANCH   9  13
HETATM   13  C   UNL     1       7.581  30.118  58.291  1.00  0.00     0.072 A 
HETATM   14  C   UNL     1       6.299  30.067  57.701  1.00  0.00     0.169 A 
HETATM   15  N   UNL     1       5.959  28.832  57.320  1.00  0.00    -0.185 NA
HETATM   16  N   UNL     1       7.042  28.099  57.620  1.00  0.00    -0.287 N 
HETATM   17  H   UNL     1       7.027  27.106  57.408  1.00  0.00     0.188 HD
HETATM   18  C   UNL     1       8.047  28.827  58.188  1.00  0.00     0.140 A 
ENDBRANCH   9  13
ENDBRANCH   4   7
BRANCH   1  19
HETATM   19  C   UNL     1       5.670  34.343  65.537  1.00  0.00     0.251 C 
HETATM   20  N   UNL     1       5.676  33.647  66.724  1.00  0.00    -0.353 N 
HETATM   21  H   UNL     1       5.881  32.659  66.747  1.00  0.00     0.163 HD
HETATM   22  O   UNL     1       5.379  35.531  65.454  1.00  0.00    -0.268 OA
BRANCH  20  23
HETATM   23  C   UNL     1       5.266  34.287  67.955  1.00  0.00     0.161 C 
BRANCH  23  24
HETATM   24  C   UNL     1       6.333  34.215  69.018  1.00  0.00    -0.041 A 
HETATM   25  C   UNL     1       6.167  33.377  70.131  1.00  0.00     0.009 A 
HETATM   26  C   UNL     1       7.168  33.275  71.100  1.00  0.00     0.001 A 
HETATM   27  C   UNL     1       8.345  34.008  70.969  1.00  0.00     0.000 A 
HETATM   28  C   UNL     1       8.529  34.835  69.863  1.00  0.00     0.001 A 
HETATM   29  C   UNL     1       7.534  34.930  68.888  1.00  0.00     0.009 A 
ENDBRANCH  23  24
ENDBRANCH  20  23
ENDBRANCH   1  19
TORSDOF 5
ENDMDL
MODEL 6
REMARK VINA RESULT:      -8.4      1.572      1.896
REMARK  5 active torsions:
REMARK  status: ('A' for Active; 'I' for Inactive)
REMARK    1  A    between atoms: C_4  and  C_5 
REMARK    2  A    between atoms: C_5  and  N_6 
REMARK       I    between atoms: N_6  and  C_7 
REMARK    3  A    between atoms: C_7  and  C_8 
REMARK    4  A    between atoms: C_11  and  N_12 
REMARK       I    between atoms: N_12  and  C_13 
REMARK       I    between atoms: C_13  and  N_14 
REMARK    5  A    between atoms: N_14  and  C_15 
ROOT
HETATM    1  C   UNL     1       5.669  28.206  55.301  1.00  0.00     0.032 A 
HETATM    2  C   UNL     1       4.397  28.678  55.637  1.00  0.00     0.019 A 
HETATM    3  C   UNL     1       4.243  29.604  56.678  1.00  0.00     0.030 A 
HETATM    4  C   UNL     1       5.351  30.061  57.395  1.00  0.00     0.036 A 
HETATM    5  C   UNL     1       6.627  29.622  57.022  1.00  0.00     0.030 A 
HETATM    6  C   UNL     1       6.786  28.704  55.981  1.00  0.00     0.019 A 
ENDROOT
BRANCH   4   7
HETATM    7  N   UNL     1       5.273  30.949  58.488  1.00  0.00    -0.309 N 
HETATM    8  C   UNL     1       5.416  32.310  58.472  1.00  0.00     0.325 C 
HETATM    9  N   UNL     1       5.318  32.949  59.681  1.00  0.00    -0.306 N 
HETATM   10  O   UNL     1       5.554  33.005  57.468  1.00  0.00    -0.247 OA
HETATM   11  H   UNL     1       5.221  33.952  59.581  1.00  0.00     0.171 HD
HETATM   12  H   UNL     1       4.839  30.577  59.319  1.00  0.00     0.170 HD
BRANCH   9  13
HETATM   13  C   UNL     1       5.416  32.459  60.967  1.00  0.00     0.072 A 
HETATM   14  C   UNL     1       6.514  32.102  61.781  1.00  0.00     0.169 A 
HETATM   15  N   UNL     1       6.137  31.651  62.981  1.00  0.00    -0.185 NA
HETATM   16  N   UNL     1       4.800  31.765  62.956  1.00  0.00    -0.287 N 
HETATM   17  H   UNL     1       4.276  31.488  63.781  1.00  0.00     0.188 HD
HETATM   18  C   UNL     1       4.322  32.260  61.778  1.00  0.00     0.140 A 
ENDBRANCH   9  13
ENDBRANCH   4   7
BRANCH   1  19
HETATM   19  C   UNL     1       5.893  27.174  54.251  1.00  0.00     0.251 C 
HETATM   20  N   UNL     1       7.119  26.549  54.257  1.00  0.00    -0.353 N 
HETATM   21  H   UNL     1       7.818  26.780  54.948  1.00  0.00     0.163 HD
HETATM   22  O   UNL     1       5.033  26.963  53.404  1.00  0.00    -0.268 OA
BRANCH  20  23
HETATM   23  C   UNL     1       7.482  25.631  53.200  1.00  0.00     0.161 C 
BRANCH  23  24
HETATM   24  C   UNL     1       7.639  24.217  53.699  1.00  0.00    -0.041 A 
HETATM   25  C   UNL     1       7.430  23.919  55.054  1.00  0.00     0.009 A 
HETATM   26  C   UNL     1       7.534  22.605  55.517  1.00  0.00     0.001 A 
HETATM   27  C   UNL     1       7.847  21.575  54.633  1.00  0.00     0.000 A 
HETATM   28  C   UNL     1       8.045  21.854  53.283  1.00  0.00     0.001 A 
HETATM   29  C   UNL     1       7.931  23.166  52.817  1.00  0.00     0.009 A 
ENDBRANCH  23  24
ENDBRANCH  20  23
ENDBRANCH   1  19
TORSDOF 5
ENDMDL
MODEL 7
REMARK VINA RESULT:      -8.1      6.589      9.600
REMARK  5 active torsions:
REMARK  status: ('A' for Active; 'I' for Inactive)
REMARK    1  A    between atoms: C_4  and  C_5 
REMARK    2  A    between atoms: C_5  and  N_6 
REMARK       I    between atoms: N_6  and  C_7 
REMARK    3  A    between atoms: C_7  and  C_8 
REMARK    4  A    between atoms: C_11  and  N_12 
REMARK       I    between atoms: N_12  and  C_13 
REMARK       I    between atoms: C_13  and  N_14 
REMARK    5  A    between atoms: N_14  and  C_15 
ROOT
HETATM    1  C   UNL     1       5.606  26.331  52.921  1.00  0.00     0.032 A 
HETATM    2  C   UNL     1       4.949  27.565  52.939  1.00  0.00     0.019 A 
HETATM    3  C   UNL     1       4.350  28.060  51.773  1.00  0.00     0.030 A 
HETATM    4  C   UNL     1       4.406  27.334  50.580  1.00  0.00     0.036 A 
HETATM    5  C   UNL     1       5.023  26.078  50.581  1.00  0.00     0.030 A 
HETATM    6  C   UNL     1       5.616  25.577  51.742  1.00  0.00     0.019 A 
ENDROOT
BRANCH   4   7
HETATM    7  N   UNL     1       3.876  27.788  49.354  1.00  0.00    -0.309 N 
HETATM    8  C   UNL     1       4.448  28.658  48.466  1.00  0.00     0.325 C 
HETATM    9  N   UNL     1       3.715  28.961  47.349  1.00  0.00    -0.306 N 
HETATM   10  O   UNL     1       5.579  29.132  48.553  1.00  0.00    -0.247 OA
HETATM   11  H   UNL     1       4.266  29.432  46.641  1.00  0.00     0.171 HD
HETATM   12  H   UNL     1       3.115  27.241  48.982  1.00  0.00     0.170 HD
BRANCH   9  13
HETATM   13  C   UNL     1       2.369  28.804  47.087  1.00  0.00     0.072 A 
HETATM   14  C   UNL     1       1.569  27.678  46.795  1.00  0.00     0.169 A 
HETATM   15  N   UNL     1       0.287  27.998  46.593  1.00  0.00    -0.185 NA
HETATM   16  N   UNL     1       0.255  29.323  46.803  1.00  0.00    -0.287 N 
HETATM   17  H   UNL     1      -0.635  29.804  46.717  1.00  0.00     0.188 HD
HETATM   18  C   UNL     1       1.474  29.849  47.119  1.00  0.00     0.140 A 
ENDBRANCH   9  13
ENDBRANCH   4   7
BRANCH   1  19
HETATM   19  C   UNL     1       6.318  25.781  54.108  1.00  0.00     0.251 C 
HETATM   20  N   UNL     1       6.582  24.431  54.094  1.00  0.00    -0.353 N 
HETATM   21  H   UNL     1       6.309  23.855  53.310  1.00  0.00     0.163 HD
HETATM   22  O   UNL     1       6.585  26.510  55.056  1.00  0.00    -0.268 OA
BRANCH  20  23
HETATM   23  C   UNL     1       7.147  23.779  55.254  1.00  0.00     0.161 C 
BRANCH  23  24
HETATM   24  C   UNL     1       7.681  22.405  54.935  1.00  0.00    -0.041 A 
HETATM   25  C   UNL     1       7.902  22.025  53.603  1.00  0.00     0.009 A 
HETATM   26  C   UNL     1       8.433  20.770  53.301  1.00  0.00     0.001 A 
HETATM   27  C   UNL     1       8.750  19.880  54.325  1.00  0.00     0.000 A 
HETATM   28  C   UNL     1       8.547  20.247  55.653  1.00  0.00     0.001 A 
HETATM   29  C   UNL     1       8.025  21.507  55.957  1.00  0.00     0.009 A 
ENDBRANCH  23  24
ENDBRANCH  20  23
ENDBRANCH   1  19
TORSDOF 5
ENDMDL
MODEL 8
REMARK VINA RESULT:      -8.1      2.736      9.545
REMARK  5 active torsions:
REMARK  status: ('A' for Active; 'I' for Inactive)
REMARK    1  A    between atoms: C_4  and  C_5 
REMARK    2  A    between atoms: C_5  and  N_6 
REMARK       I    between atoms: N_6  and  C_7 
REMARK    3  A    between atoms: C_7  and  C_8 
REMARK    4  A    between atoms: C_11  and  N_12 
REMARK       I    between atoms: N_12  and  C_13 
REMARK       I    between atoms: C_13  and  N_14 
REMARK    5  A    between atoms: N_14  and  C_15 
ROOT
HETATM    1  C   UNL     1       7.848  29.293  57.106  1.00  0.00     0.032 A 
HETATM    2  C   UNL     1       7.447  29.288  55.766  1.00  0.00     0.019 A 
HETATM    3  C   UNL     1       7.284  28.073  55.086  1.00  0.00     0.030 A 
HETATM    4  C   UNL     1       7.525  26.857  55.731  1.00  0.00     0.036 A 
HETATM    5  C   UNL     1       7.879  26.868  57.085  1.00  0.00     0.030 A 
HETATM    6  C   UNL     1       8.037  28.076  57.769  1.00  0.00     0.019 A 
ENDROOT
BRANCH   4   7
HETATM    7  N   UNL     1       7.436  25.599  55.101  1.00  0.00    -0.309 N 
HETATM    8  C   UNL     1       6.341  25.040  54.498  1.00  0.00     0.325 C 
HETATM    9  N   UNL     1       6.506  23.784  53.975  1.00  0.00    -0.306 N 
HETATM   10  O   UNL     1       5.256  25.592  54.329  1.00  0.00    -0.247 OA
HETATM   11  H   UNL     1       5.740  23.515  53.368  1.00  0.00     0.171 HD
HETATM   12  H   UNL     1       8.316  25.169  54.862  1.00  0.00     0.170 HD
BRANCH   9  13
HETATM   13  C   UNL     1       7.477  22.832  54.210  1.00  0.00     0.072 A 
HETATM   14  C   UNL     1       8.003  22.264  55.391  1.00  0.00     0.169 A 
HETATM   15  N   UNL     1       8.962  21.367  55.145  1.00  0.00    -0.185 NA
HETATM   16  N   UNL     1       9.017  21.323  53.805  1.00  0.00    -0.287 N 
HETATM   17  H   UNL     1       9.681  20.689  53.370  1.00  0.00     0.188 HD
HETATM   18  C   UNL     1       8.135  22.170  53.200  1.00  0.00     0.140 A 
ENDBRANCH   9  13
ENDBRANCH   4   7
BRANCH   1  19
HETATM   19  C   UNL     1       8.103  30.548  57.865  1.00  0.00     0.251 C 
HETATM   20  N   UNL     1       9.397  30.764  58.279  1.00  0.00    -0.353 N 
HETATM   21  H   UNL     1      10.128  30.101  58.067  1.00  0.00     0.163 HD
HETATM   22  O   UNL     1       7.173  31.298  58.141  1.00  0.00    -0.268 OA
BRANCH  20  23
HETATM   23  C   UNL     1       9.719  31.883  59.136  1.00  0.00     0.161 C 
BRANCH  23  24
HETATM   24  C   UNL     1       9.133  31.733  60.517  1.00  0.00    -0.041 A 
HETATM   25  C   UNL     1       8.308  32.735  61.048  1.00  0.00     0.009 A 
HETATM   26  C   UNL     1       7.730  32.586  62.310  1.00  0.00     0.001 A 
HETATM   27  C   UNL     1       7.969  31.434  63.056  1.00  0.00     0.000 A 
HETATM   28  C   UNL     1       8.776  30.425  62.538  1.00  0.00     0.001 A 
HETATM   29  C   UNL     1       9.347  30.568  61.271  1.00  0.00     0.009 A 
ENDBRANCH  23  24
ENDBRANCH  20  23
ENDBRANCH   1  19
TORSDOF 5
ENDMDL
MODEL 9
REMARK VINA RESULT:      -8.1      2.816      9.779
REMARK  5 active torsions:
REMARK  status: ('A' for Active; 'I' for Inactive)
REMARK    1  A    between atoms: C_4  and  C_5 
REMARK    2  A    between atoms: C_5  and  N_6 
REMARK       I    between atoms: N_6  and  C_7 
REMARK    3  A    between atoms: C_7  and  C_8 
REMARK    4  A    between atoms: C_11  and  N_12 
REMARK       I    between atoms: N_12  and  C_13 
REMARK       I    between atoms: C_13  and  N_14 
REMARK    5  A    between atoms: N_14  and  C_15 
ROOT
HETATM    1  C   UNL     1       7.059  28.475  56.776  1.00  0.00     0.032 A 
HETATM    2  C   UNL     1       7.319  27.472  57.715  1.00  0.00     0.019 A 
HETATM    3  C   UNL     1       7.547  26.156  57.292  1.00  0.00     0.030 A 
HETATM    4  C   UNL     1       7.511  25.827  55.935  1.00  0.00     0.036 A 
HETATM    5  C   UNL     1       7.298  26.844  54.998  1.00  0.00     0.030 A 
HETATM    6  C   UNL     1       7.077  28.159  55.414  1.00  0.00     0.019 A 
ENDROOT
BRANCH   4   7
HETATM    7  N   UNL     1       7.676  24.519  55.435  1.00  0.00    -0.309 N 
HETATM    8  C   UNL     1       6.940  23.894  54.465  1.00  0.00     0.325 C 
HETATM    9  N   UNL     1       7.288  22.602  54.170  1.00  0.00    -0.306 N 
HETATM   10  O   UNL     1       6.048  24.412  53.796  1.00  0.00    -0.247 OA
HETATM   11  H   UNL     1       6.856  22.270  53.316  1.00  0.00     0.171 HD
HETATM   12  H   UNL     1       8.564  24.085  55.639  1.00  0.00     0.170 HD
BRANCH   9  13
HETATM   13  C   UNL     1       8.039  21.688  54.881  1.00  0.00     0.072 A 
HETATM   14  C   UNL     1       9.428  21.538  55.090  1.00  0.00     0.169 A 
HETATM   15  N   UNL     1       9.720  20.481  55.854  1.00  0.00    -0.185 NA
HETATM   16  N   UNL     1       8.516  19.981  56.176  1.00  0.00    -0.287 N 
HETATM   17  H   UNL     1       8.479  19.162  56.774  1.00  0.00     0.188 HD
HETATM   18  C   UNL     1       7.479  20.680  55.631  1.00  0.00     0.140 A 
ENDBRANCH   9  13
ENDBRANCH   4   7
BRANCH   1  19
HETATM   19  C   UNL     1       6.744  29.878  57.164  1.00  0.00     0.251 C 
HETATM   20  N   UNL     1       7.113  30.261  58.433  1.00  0.00    -0.353 N 
HETATM   21  H   UNL     1       7.579  29.619  59.056  1.00  0.00     0.163 HD
HETATM   22  O   UNL     1       6.133  30.607  56.391  1.00  0.00    -0.268 OA
BRANCH  20  23
HETATM   23  C   UNL     1       6.732  31.557  58.950  1.00  0.00     0.161 C 
BRANCH  23  24
HETATM   24  C   UNL     1       7.256  31.792  60.345  1.00  0.00    -0.041 A 
HETATM   25  C   UNL     1       8.442  31.174  60.768  1.00  0.00     0.009 A 
HETATM   26  C   UNL     1       8.955  31.417  62.043  1.00  0.00     0.001 A 
HETATM   27  C   UNL     1       8.289  32.281  62.911  1.00  0.00     0.000 A 
HETATM   28  C   UNL     1       7.116  32.911  62.501  1.00  0.00     0.001 A 
HETATM   29  C   UNL     1       6.608  32.676  61.222  1.00  0.00     0.009 A 
ENDBRANCH  23  24
ENDBRANCH  20  23
ENDBRANCH   1  19
TORSDOF 5
ENDMDL
MODEL 10
REMARK VINA RESULT:      -7.9      2.284      9.772
REMARK  5 active torsions:
REMARK  status: ('A' for Active; 'I' for Inactive)
REMARK    1  A    between atoms: C_4  and  C_5 
REMARK    2  A    between atoms: C_5  and  N_6 
REMARK       I    between atoms: N_6  and  C_7 
REMARK    3  A    between atoms: C_7  and  C_8 
REMARK    4  A    between atoms: C_11  and  N_12 
REMARK       I    between atoms: N_12  and  C_13 
REMARK       I    between atoms: C_13  and  N_14 
REMARK    5  A    between atoms: N_14  and  C_15 
ROOT
HETATM    1  C   UNL     1       7.014  30.166  58.155  1.00  0.00     0.032 A 
HETATM    2  C   UNL     1       5.803  29.917  57.500  1.00  0.00     0.019 A 
HETATM    3  C   UNL     1       5.597  28.695  56.845  1.00  0.00     0.030 A 
HETATM    4  C   UNL     1       6.595  27.717  56.831  1.00  0.00     0.036 A 
HETATM    5  C   UNL     1       7.784  27.954  57.529  1.00  0.00     0.030 A 
HETATM    6  C   UNL     1       7.993  29.167  58.189  1.00  0.00     0.019 A 
ENDROOT
BRANCH   4   7
HETATM    7  N   UNL     1       6.484  26.487  56.150  1.00  0.00    -0.309 N 
HETATM    8  C   UNL     1       5.757  25.388  56.519  1.00  0.00     0.325 C 
HETATM    9  N   UNL     1       5.833  24.298  55.692  1.00  0.00    -0.306 N 
HETATM   10  O   UNL     1       4.997  25.322  57.483  1.00  0.00    -0.247 OA
HETATM   11  H   UNL     1       5.123  23.606  55.898  1.00  0.00     0.171 HD
HETATM   12  H   UNL     1       6.776  26.498  55.184  1.00  0.00     0.170 HD
BRANCH   9  13
HETATM   13  C   UNL     1       6.751  23.974  54.714  1.00  0.00     0.072 A 
HETATM   14  C   UNL     1       6.856  24.300  53.344  1.00  0.00     0.169 A 
HETATM   15  N   UNL     1       7.924  23.745  52.765  1.00  0.00    -0.185 NA
HETATM   16  N   UNL     1       8.533  23.103  53.774  1.00  0.00    -0.287 N 
HETATM   17  H   UNL     1       9.394  22.602  53.577  1.00  0.00     0.188 HD
HETATM   18  C   UNL     1       7.878  23.225  54.965  1.00  0.00     0.140 A 
ENDBRANCH   9  13
ENDBRANCH   4   7
BRANCH   1  19
HETATM   19  C   UNL     1       7.320  31.466  58.812  1.00  0.00     0.251 C 
HETATM   20  N   UNL     1       8.174  31.423  59.890  1.00  0.00    -0.353 N 
HETATM   21  H   UNL     1       8.572  30.550  60.205  1.00  0.00     0.163 HD
HETATM   22  O   UNL     1       6.774  32.494  58.426  1.00  0.00    -0.268 OA
BRANCH  20  23
HETATM   23  C   UNL     1       8.427  32.610  60.678  1.00  0.00     0.161 C 
BRANCH  23  24
HETATM   24  C   UNL     1       7.557  32.676  61.908  1.00  0.00    -0.041 A 
HETATM   25  C   UNL     1       8.139  32.724  63.183  1.00  0.00     0.009 A 
HETATM   26  C   UNL     1       7.341  32.825  64.325  1.00  0.00     0.001 A 
HETATM   27  C   UNL     1       5.954  32.880  64.206  1.00  0.00     0.000 A 
HETATM   28  C   UNL     1       5.362  32.845  62.946  1.00  0.00     0.001 A 
HETATM   29  C   UNL     1       6.159  32.754  61.802  1.00  0.00     0.009 A 
ENDBRANCH  23  24
ENDBRANCH  20  23
ENDBRANCH   1  19
TORSDOF 5
ENDMDL
