MODEL 1
REMARK VINA RESULT:      -8.9      0.000      0.000
REMARK  4 active torsions:
REMARK  status: ('A' for Active; 'I' for Inactive)
REMARK    1  A    between atoms: C_5  and  C_6 
REMARK    2  A    between atoms: C_14  and  C_15 
REMARK       I    between atoms: C_15  and  N_16 
REMARK    3  A    between atoms: N_16  and  C_17 
REMARK    4  A    between atoms: C_23  and  N_24 
ROOT
HETATM    1  C   UNL     1       5.681  25.294  52.978  1.00  0.00     0.262 C 
HETATM    2  N   UNL     1       6.125  26.171  52.017  1.00  0.00    -0.301 N 
HETATM    3  O   UNL     1       4.552  24.826  53.056  1.00  0.00    -0.267 OA
HETATM    4  H   UNL     1       7.009  26.643  52.110  1.00  0.00     0.171 HD
ENDROOT
BRANCH   1   5
HETATM    5  C   UNL     1       6.681  24.976  53.986  1.00  0.00     0.095 A 
HETATM    6  C   UNL     1       7.539  23.896  53.928  1.00  0.00     0.093 A 
HETATM    7  C   UNL     1       7.739  22.793  52.967  1.00  0.00     0.080 C 
HETATM    8  O   UNL     1       8.346  23.895  55.019  1.00  0.00    -0.217 OA
HETATM    9  N   UNL     1       8.052  24.983  55.813  1.00  0.00    -0.127 NA
HETATM   10  C   UNL     1       7.069  25.646  55.187  1.00  0.00     0.116 A 
BRANCH  10  11
HETATM   11  C   UNL     1       6.570  26.896  55.748  1.00  0.00     0.039 A 
HETATM   12  C   UNL     1       7.073  28.133  55.311  1.00  0.00     0.048 A 
HETATM   13 CL   UNL     1       8.288  28.256  54.087  1.00  0.00    -0.083 Cl
HETATM   14  C   UNL     1       6.582  29.330  55.847  1.00  0.00     0.025 A 
HETATM   15  C   UNL     1       5.591  29.308  56.825  1.00  0.00     0.003 A 
HETATM   16  C   UNL     1       5.081  28.089  57.265  1.00  0.00     0.025 A 
HETATM   17  C   UNL     1       5.564  26.890  56.731  1.00  0.00     0.048 A 
HETATM   18 CL   UNL     1       4.812  25.427  57.269  1.00  0.00    -0.083 Cl
ENDBRANCH  10  11
ENDBRANCH   1   5
BRANCH   2  19
HETATM   19  C   UNL     1       5.362  26.535  50.945  1.00  0.00     0.174 A 
HETATM   20  S   UNL     1       5.088  28.214  50.843  1.00  0.00    -0.050 SA
HETATM   21  C   UNL     1       4.157  27.964  49.413  1.00  0.00     0.039 A 
HETATM   22  C   UNL     1       4.143  26.596  49.121  1.00  0.00     0.077 A 
HETATM   23  C   UNL     1       3.491  28.910  48.614  1.00  0.00     0.057 A 
HETATM   24  N   UNL     1       4.844  25.797  50.003  1.00  0.00    -0.223 NA
HETATM   25  C   UNL     1       3.434  26.151  47.985  1.00  0.00     0.035 A 
HETATM   26  C   UNL     1       2.759  27.071  47.175  1.00  0.00     0.038 A 
HETATM   27  C   UNL     1       2.791  28.433  47.492  1.00  0.00     0.104 A 
BRANCH  27  28
HETATM   28  N   UNL     1       2.076  29.393  46.637  1.00  0.00    -0.116 N 
HETATM   29  O   UNL     1       0.866  29.204  46.447  1.00  0.00    -0.532 OA
HETATM   30  O   UNL     1       2.727  30.332  46.157  1.00  0.00    -0.532 OA
ENDBRANCH  27  28
ENDBRANCH   2  19
TORSDOF 4
ENDMDL
MODEL 2
REMARK VINA RESULT:      -8.9      2.241      4.289
REMARK  4 active torsions:
REMARK  status: ('A' for Active; 'I' for Inactive)
REMARK    1  A    between atoms: C_5  and  C_6 
REMARK    2  A    between atoms: C_14  and  C_15 
REMARK       I    between atoms: C_15  and  N_16 
REMARK    3  A    between atoms: N_16  and  C_17 
REMARK    4  A    between atoms: C_23  and  N_24 
ROOT
HETATM    1  C   UNL     1       6.337  25.552  54.615  1.00  0.00     0.262 C 
HETATM    2  N   UNL     1       6.674  26.540  53.720  1.00  0.00    -0.301 N 
HETATM    3  O   UNL     1       5.262  24.967  54.667  1.00  0.00    -0.267 OA
HETATM    4  H   UNL     1       7.507  27.091  53.841  1.00  0.00     0.171 HD
ENDROOT
BRANCH   1   5
HETATM    5  C   UNL     1       7.381  25.263  55.587  1.00  0.00     0.095 A 
HETATM    6  C   UNL     1       7.781  26.124  56.589  1.00  0.00     0.093 A 
HETATM    7  C   UNL     1       7.375  27.484  56.998  1.00  0.00     0.080 C 
HETATM    8  O   UNL     1       8.767  25.546  57.320  1.00  0.00    -0.217 OA
HETATM    9  N   UNL     1       9.028  24.284  56.831  1.00  0.00    -0.127 NA
HETATM   10  C   UNL     1       8.184  24.102  55.804  1.00  0.00     0.116 A 
BRANCH  10  11
HETATM   11  C   UNL     1       8.167  22.824  55.103  1.00  0.00     0.039 A 
HETATM   12  C   UNL     1       8.284  22.768  53.704  1.00  0.00     0.048 A 
HETATM   13 CL   UNL     1       8.468  24.188  52.735  1.00  0.00    -0.083 Cl
HETATM   14  C   UNL     1       8.276  21.536  53.038  1.00  0.00     0.025 A 
HETATM   15  C   UNL     1       8.148  20.349  53.755  1.00  0.00     0.003 A 
HETATM   16  C   UNL     1       8.035  20.390  55.143  1.00  0.00     0.025 A 
HETATM   17  C   UNL     1       8.045  21.617  55.815  1.00  0.00     0.048 A 
HETATM   18 CL   UNL     1       7.990  21.570  57.544  1.00  0.00    -0.083 Cl
ENDBRANCH  10  11
ENDBRANCH   1   5
BRANCH   2  19
HETATM   19  C   UNL     1       5.861  26.904  52.686  1.00  0.00     0.174 A 
HETATM   20  S   UNL     1       6.000  25.892  51.321  1.00  0.00    -0.050 SA
HETATM   21  C   UNL     1       4.819  26.848  50.505  1.00  0.00     0.039 A 
HETATM   22  C   UNL     1       4.401  27.871  51.362  1.00  0.00     0.077 A 
HETATM   23  C   UNL     1       4.305  26.700  49.205  1.00  0.00     0.057 A 
HETATM   24  N   UNL     1       5.001  27.881  52.606  1.00  0.00    -0.223 NA
HETATM   25  C   UNL     1       3.430  28.786  50.904  1.00  0.00     0.035 A 
HETATM   26  C   UNL     1       2.905  28.665  49.613  1.00  0.00     0.038 A 
HETATM   27  C   UNL     1       3.342  27.632  48.778  1.00  0.00     0.104 A 
BRANCH  27  28
HETATM   28  N   UNL     1       2.788  27.512  47.421  1.00  0.00    -0.116 N 
HETATM   29  O   UNL     1       3.074  26.497  46.771  1.00  0.00    -0.532 OA
HETATM   30  O   UNL     1       2.069  28.434  47.009  1.00  0.00    -0.532 OA
ENDBRANCH  27  28
ENDBRANCH   2  19
TORSDOF 4
ENDMDL
MODEL 3
REMARK VINA RESULT:      -8.7      6.108      8.547
REMARK  4 active torsions:
REMARK  status: ('A' for Active; 'I' for Inactive)
REMARK    1  A    between atoms: C_5  and  C_6 
REMARK    2  A    between atoms: C_14  and  C_15 
REMARK       I    between atoms: C_15  and  N_16 
REMARK    3  A    between atoms: N_16  and  C_17 
REMARK    4  A    between atoms: C_23  and  N_24 
ROOT
HETATM    1  C   UNL     1       5.934  29.634  57.525  1.00  0.00     0.262 C 
HETATM    2  N   UNL     1       7.094  29.192  56.936  1.00  0.00    -0.301 N 
HETATM    3  O   UNL     1       4.985  28.934  57.857  1.00  0.00    -0.267 OA
HETATM    4  H   UNL     1       7.756  29.837  56.538  1.00  0.00     0.171 HD
ENDROOT
BRANCH   1   5
HETATM    5  C   UNL     1       5.878  31.078  57.696  1.00  0.00     0.095 A 
HETATM    6  C   UNL     1       5.215  31.944  56.849  1.00  0.00     0.093 A 
HETATM    7  C   UNL     1       4.430  31.770  55.611  1.00  0.00     0.080 C 
HETATM    8  O   UNL     1       5.355  33.217  57.297  1.00  0.00    -0.217 OA
HETATM    9  N   UNL     1       6.097  33.220  58.459  1.00  0.00    -0.127 NA
HETATM   10  C   UNL     1       6.395  31.938  58.713  1.00  0.00     0.116 A 
BRANCH  10  11
HETATM   11  C   UNL     1       7.131  31.594  59.925  1.00  0.00     0.039 A 
HETATM   12  C   UNL     1       8.465  31.160  59.858  1.00  0.00     0.048 A 
HETATM   13 CL   UNL     1       9.317  31.018  58.360  1.00  0.00    -0.083 Cl
HETATM   14  C   UNL     1       9.168  30.841  61.026  1.00  0.00     0.025 A 
HETATM   15  C   UNL     1       8.551  30.948  62.270  1.00  0.00     0.003 A 
HETATM   16  C   UNL     1       7.230  31.381  62.351  1.00  0.00     0.025 A 
HETATM   17  C   UNL     1       6.523  31.704  61.188  1.00  0.00     0.048 A 
HETATM   18 CL   UNL     1       4.917  32.320  61.386  1.00  0.00    -0.083 Cl
ENDBRANCH  10  11
ENDBRANCH   1   5
BRANCH   2  19
HETATM   19  C   UNL     1       7.370  27.867  56.757  1.00  0.00     0.174 A 
HETATM   20  S   UNL     1       6.761  27.236  55.296  1.00  0.00    -0.050 SA
HETATM   21  C   UNL     1       7.411  25.692  55.705  1.00  0.00     0.039 A 
HETATM   22  C   UNL     1       8.060  25.791  56.940  1.00  0.00     0.077 A 
HETATM   23  C   UNL     1       7.348  24.486  54.985  1.00  0.00     0.057 A 
HETATM   24  N   UNL     1       8.034  27.044  57.520  1.00  0.00    -0.223 NA
HETATM   25  C   UNL     1       8.672  24.641  57.481  1.00  0.00     0.035 A 
HETATM   26  C   UNL     1       8.620  23.427  56.787  1.00  0.00     0.038 A 
HETATM   27  C   UNL     1       7.963  23.357  55.554  1.00  0.00     0.104 A 
BRANCH  27  28
HETATM   28  N   UNL     1       7.911  22.076  54.832  1.00  0.00    -0.116 N 
HETATM   29  O   UNL     1       7.727  21.048  55.499  1.00  0.00    -0.532 OA
HETATM   30  O   UNL     1       8.054  22.103  53.602  1.00  0.00    -0.532 OA
ENDBRANCH  27  28
ENDBRANCH   2  19
TORSDOF 4
ENDMDL
MODEL 4
REMARK VINA RESULT:      -8.6      4.489      9.049
REMARK  4 active torsions:
REMARK  status: ('A' for Active; 'I' for Inactive)
REMARK    1  A    between atoms: C_5  and  C_6 
REMARK    2  A    between atoms: C_14  and  C_15 
REMARK       I    between atoms: C_15  and  N_16 
REMARK    3  A    between atoms: N_16  and  C_17 
REMARK    4  A    between atoms: C_23  and  N_24 
ROOT
HETATM    1  C   UNL     1       6.294  27.805  54.803  1.00  0.00     0.262 C 
HETATM    2  N   UNL     1       5.648  28.079  55.986  1.00  0.00    -0.301 N 
HETATM    3  O   UNL     1       7.291  28.377  54.381  1.00  0.00    -0.267 OA
HETATM    4  H   UNL     1       4.744  27.689  56.189  1.00  0.00     0.171 HD
ENDROOT
BRANCH   1   5
HETATM    5  C   UNL     1       5.650  26.766  54.014  1.00  0.00     0.095 A 
HETATM    6  C   UNL     1       4.667  26.991  53.071  1.00  0.00     0.093 A 
HETATM    7  C   UNL     1       3.973  28.197  52.579  1.00  0.00     0.080 C 
HETATM    8  O   UNL     1       4.289  25.812  52.516  1.00  0.00    -0.217 OA
HETATM    9  N   UNL     1       5.027  24.784  53.064  1.00  0.00    -0.127 NA
HETATM   10  C   UNL     1       5.859  25.354  53.947  1.00  0.00     0.116 A 
BRANCH  10  11
HETATM   11  C   UNL     1       6.829  24.530  54.660  1.00  0.00     0.039 A 
HETATM   12  C   UNL     1       6.713  24.317  56.044  1.00  0.00     0.048 A 
HETATM   13 CL   UNL     1       5.426  24.994  56.979  1.00  0.00    -0.083 Cl
HETATM   14  C   UNL     1       7.642  23.517  56.721  1.00  0.00     0.025 A 
HETATM   15  C   UNL     1       8.696  22.925  56.029  1.00  0.00     0.003 A 
HETATM   16  C   UNL     1       8.821  23.125  54.656  1.00  0.00     0.025 A 
HETATM   17  C   UNL     1       7.894  23.920  53.974  1.00  0.00     0.048 A 
HETATM   18 CL   UNL     1       8.072  24.042  52.256  1.00  0.00    -0.083 Cl
ENDBRANCH  10  11
ENDBRANCH   1   5
BRANCH   2  19
HETATM   19  C   UNL     1       6.135  28.968  56.900  1.00  0.00     0.174 A 
HETATM   20  S   UNL     1       7.545  28.429  57.692  1.00  0.00    -0.050 SA
HETATM   21  C   UNL     1       7.583  29.895  58.599  1.00  0.00     0.039 A 
HETATM   22  C   UNL     1       6.504  30.693  58.207  1.00  0.00     0.077 A 
HETATM   23  C   UNL     1       8.500  30.303  59.583  1.00  0.00     0.057 A 
HETATM   24  N   UNL     1       5.693  30.150  57.229  1.00  0.00    -0.223 NA
HETATM   25  C   UNL     1       6.330  31.951  58.822  1.00  0.00     0.035 A 
HETATM   26  C   UNL     1       7.226  32.379  59.808  1.00  0.00     0.038 A 
HETATM   27  C   UNL     1       8.296  31.560  60.180  1.00  0.00     0.104 A 
BRANCH  27  28
HETATM   28  N   UNL     1       9.232  32.016  61.219  1.00  0.00    -0.116 N 
HETATM   29  O   UNL     1      10.361  32.375  60.857  1.00  0.00    -0.532 OA
HETATM   30  O   UNL     1       8.835  32.014  62.393  1.00  0.00    -0.532 OA
ENDBRANCH  27  28
ENDBRANCH   2  19
TORSDOF 4
ENDMDL
MODEL 5
REMARK VINA RESULT:      -8.5      1.577      3.722
REMARK  4 active torsions:
REMARK  status: ('A' for Active; 'I' for Inactive)
REMARK    1  A    between atoms: C_5  and  C_6 
REMARK    2  A    between atoms: C_14  and  C_15 
REMARK       I    between atoms: C_15  and  N_16 
REMARK    3  A    between atoms: N_16  and  C_17 
REMARK    4  A    between atoms: C_23  and  N_24 
ROOT
HETATM    1  C   UNL     1       5.612  25.853  53.316  1.00  0.00     0.262 C 
HETATM    2  N   UNL     1       5.865  26.763  52.318  1.00  0.00    -0.301 N 
HETATM    3  O   UNL     1       4.650  25.096  53.370  1.00  0.00    -0.267 OA
HETATM    4  H   UNL     1       6.577  27.466  52.421  1.00  0.00     0.171 HD
ENDROOT
BRANCH   1   5
HETATM    5  C   UNL     1       6.588  25.881  54.394  1.00  0.00     0.095 A 
HETATM    6  C   UNL     1       6.786  26.949  55.246  1.00  0.00     0.093 A 
HETATM    7  C   UNL     1       6.183  28.291  55.368  1.00  0.00     0.080 C 
HETATM    8  O   UNL     1       7.763  26.647  56.138  1.00  0.00    -0.217 OA
HETATM    9  N   UNL     1       8.219  25.365  55.909  1.00  0.00    -0.127 NA
HETATM   10  C   UNL     1       7.502  24.895  54.878  1.00  0.00     0.116 A 
BRANCH  10  11
HETATM   11  C   UNL     1       7.704  23.524  54.424  1.00  0.00     0.039 A 
HETATM   12  C   UNL     1       7.974  23.244  53.074  1.00  0.00     0.048 A 
HETATM   13 CL   UNL     1       8.096  24.488  51.879  1.00  0.00    -0.083 Cl
HETATM   14  C   UNL     1       8.176  21.926  52.648  1.00  0.00     0.025 A 
HETATM   15  C   UNL     1       8.110  20.874  53.558  1.00  0.00     0.003 A 
HETATM   16  C   UNL     1       7.847  21.137  54.901  1.00  0.00     0.025 A 
HETATM   17  C   UNL     1       7.647  22.453  55.333  1.00  0.00     0.048 A 
HETATM   18 CL   UNL     1       7.416  22.698  57.031  1.00  0.00    -0.083 Cl
ENDBRANCH  10  11
ENDBRANCH   1   5
BRANCH   2  19
HETATM   19  C   UNL     1       5.108  26.841  51.184  1.00  0.00     0.174 A 
HETATM   20  S   UNL     1       4.193  28.275  51.073  1.00  0.00    -0.050 SA
HETATM   21  C   UNL     1       3.558  27.740  49.562  1.00  0.00     0.039 A 
HETATM   22  C   UNL     1       4.116  26.494  49.257  1.00  0.00     0.077 A 
HETATM   23  C   UNL     1       2.634  28.377  48.715  1.00  0.00     0.057 A 
HETATM   24  N   UNL     1       5.006  26.002  50.191  1.00  0.00    -0.223 NA
HETATM   25  C   UNL     1       3.738  25.856  48.058  1.00  0.00     0.035 A 
HETATM   26  C   UNL     1       2.817  26.466  47.198  1.00  0.00     0.038 A 
HETATM   27  C   UNL     1       2.275  27.711  47.529  1.00  0.00     0.104 A 
BRANCH  27  28
HETATM   28  N   UNL     1       1.306  28.345  46.622  1.00  0.00    -0.116 N 
HETATM   29  O   UNL     1       1.406  29.566  46.436  1.00  0.00    -0.532 OA
HETATM   30  O   UNL     1       0.448  27.620  46.099  1.00  0.00    -0.532 OA
ENDBRANCH  27  28
ENDBRANCH   2  19
TORSDOF 4
ENDMDL
MODEL 6
REMARK VINA RESULT:      -8.5      1.700      3.853
REMARK  4 active torsions:
REMARK  status: ('A' for Active; 'I' for Inactive)
REMARK    1  A    between atoms: C_5  and  C_6 
REMARK    2  A    between atoms: C_14  and  C_15 
REMARK       I    between atoms: C_15  and  N_16 
REMARK    3  A    between atoms: N_16  and  C_17 
REMARK    4  A    between atoms: C_23  and  N_24 
ROOT
HETATM    1  C   UNL     1       5.330  26.660  53.189  1.00  0.00     0.262 C 
HETATM    2  N   UNL     1       5.604  27.363  52.040  1.00  0.00    -0.301 N 
HETATM    3  O   UNL     1       4.340  25.968  53.388  1.00  0.00    -0.267 OA
HETATM    4  H   UNL     1       6.347  28.041  52.008  1.00  0.00     0.171 HD
ENDROOT
BRANCH   1   5
HETATM    5  C   UNL     1       6.324  26.841  54.236  1.00  0.00     0.095 A 
HETATM    6  C   UNL     1       6.513  28.010  54.946  1.00  0.00     0.093 A 
HETATM    7  C   UNL     1       5.882  29.344  54.915  1.00  0.00     0.080 C 
HETATM    8  O   UNL     1       7.511  27.840  55.849  1.00  0.00    -0.217 OA
HETATM    9  N   UNL     1       7.992  26.550  55.770  1.00  0.00    -0.127 NA
HETATM   10  C   UNL     1       7.269  25.942  54.819  1.00  0.00     0.116 A 
BRANCH  10  11
HETATM   11  C   UNL     1       7.494  24.529  54.533  1.00  0.00     0.039 A 
HETATM   12  C   UNL     1       7.242  23.548  55.507  1.00  0.00     0.048 A 
HETATM   13 CL   UNL     1       6.643  23.941  57.081  1.00  0.00    -0.083 Cl
HETATM   14  C   UNL     1       7.451  22.193  55.223  1.00  0.00     0.025 A 
HETATM   15  C   UNL     1       7.916  21.801  53.970  1.00  0.00     0.003 A 
HETATM   16  C   UNL     1       8.166  22.762  52.994  1.00  0.00     0.025 A 
HETATM   17  C   UNL     1       7.956  24.117  53.271  1.00  0.00     0.048 A 
HETATM   18 CL   UNL     1       8.206  25.235  51.973  1.00  0.00    -0.083 Cl
ENDBRANCH  10  11
ENDBRANCH   1   5
BRANCH   2  19
HETATM   19  C   UNL     1       4.833  27.267  50.918  1.00  0.00     0.174 A 
HETATM   20  S   UNL     1       3.716  28.543  50.748  1.00  0.00    -0.050 SA
HETATM   21  C   UNL     1       3.151  27.838  49.278  1.00  0.00     0.039 A 
HETATM   22  C   UNL     1       3.884  26.673  49.030  1.00  0.00     0.077 A 
HETATM   23  C   UNL     1       2.136  28.286  48.415  1.00  0.00     0.057 A 
HETATM   24  N   UNL     1       4.846  26.369  49.973  1.00  0.00    -0.223 NA
HETATM   25  C   UNL     1       3.592  25.921  47.872  1.00  0.00     0.035 A 
HETATM   26  C   UNL     1       2.583  26.342  46.998  1.00  0.00     0.038 A 
HETATM   27  C   UNL     1       1.867  27.511  47.273  1.00  0.00     0.104 A 
BRANCH  27  28
HETATM   28  N   UNL     1       0.806  27.945  46.351  1.00  0.00    -0.116 N 
HETATM   29  O   UNL     1       0.645  29.163  46.193  1.00  0.00    -0.532 OA
HETATM   30  O   UNL     1       0.138  27.066  45.789  1.00  0.00    -0.532 OA
ENDBRANCH  27  28
ENDBRANCH   2  19
TORSDOF 4
ENDMDL
MODEL 7
REMARK VINA RESULT:      -8.4      2.039      4.360
REMARK  4 active torsions:
REMARK  status: ('A' for Active; 'I' for Inactive)
REMARK    1  A    between atoms: C_5  and  C_6 
REMARK    2  A    between atoms: C_14  and  C_15 
REMARK       I    between atoms: C_15  and  N_16 
REMARK    3  A    between atoms: N_16  and  C_17 
REMARK    4  A    between atoms: C_23  and  N_24 
ROOT
HETATM    1  C   UNL     1       6.326  25.468  54.324  1.00  0.00     0.262 C 
HETATM    2  N   UNL     1       6.668  26.439  53.413  1.00  0.00    -0.301 N 
HETATM    3  O   UNL     1       5.267  24.854  54.356  1.00  0.00    -0.267 OA
HETATM    4  H   UNL     1       7.480  27.017  53.546  1.00  0.00     0.171 HD
ENDROOT
BRANCH   1   5
HETATM    5  C   UNL     1       7.343  25.236  55.339  1.00  0.00     0.095 A 
HETATM    6  C   UNL     1       7.682  26.135  56.330  1.00  0.00     0.093 A 
HETATM    7  C   UNL     1       7.224  27.493  56.686  1.00  0.00     0.080 C 
HETATM    8  O   UNL     1       8.658  25.607  57.111  1.00  0.00    -0.217 OA
HETATM    9  N   UNL     1       8.971  24.340  56.667  1.00  0.00    -0.127 NA
HETATM   10  C   UNL     1       8.171  24.105  55.617  1.00  0.00     0.116 A 
BRANCH  10  11
HETATM   11  C   UNL     1       8.214  22.808  54.952  1.00  0.00     0.039 A 
HETATM   12  C   UNL     1       8.134  21.616  55.692  1.00  0.00     0.048 A 
HETATM   13 CL   UNL     1       7.968  21.606  57.413  1.00  0.00    -0.083 Cl
HETATM   14  C   UNL     1       8.167  20.375  55.046  1.00  0.00     0.025 A 
HETATM   15  C   UNL     1       8.282  20.306  53.659  1.00  0.00     0.003 A 
HETATM   16  C   UNL     1       8.358  21.480  52.913  1.00  0.00     0.025 A 
HETATM   17  C   UNL     1       8.323  22.723  53.553  1.00  0.00     0.048 A 
HETATM   18 CL   UNL     1       8.332  24.130  52.543  1.00  0.00    -0.083 Cl
ENDBRANCH  10  11
ENDBRANCH   1   5
BRANCH   2  19
HETATM   19  C   UNL     1       5.881  26.750  52.341  1.00  0.00     0.174 A 
HETATM   20  S   UNL     1       5.081  28.247  52.495  1.00  0.00    -0.050 SA
HETATM   21  C   UNL     1       4.354  28.005  50.950  1.00  0.00     0.039 A 
HETATM   22  C   UNL     1       4.799  26.785  50.431  1.00  0.00     0.077 A 
HETATM   23  C   UNL     1       3.457  28.834  50.254  1.00  0.00     0.057 A 
HETATM   24  N   UNL     1       5.678  26.087  51.236  1.00  0.00    -0.223 NA
HETATM   25  C   UNL     1       4.331  26.372  49.166  1.00  0.00     0.035 A 
HETATM   26  C   UNL     1       3.433  27.177  48.454  1.00  0.00     0.038 A 
HETATM   27  C   UNL     1       3.005  28.392  48.998  1.00  0.00     0.104 A 
BRANCH  27  28
HETATM   28  N   UNL     1       2.060  29.230  48.245  1.00  0.00    -0.116 N 
HETATM   29  O   UNL     1       2.252  29.362  47.028  1.00  0.00    -0.532 OA
HETATM   30  O   UNL     1       1.129  29.755  48.873  1.00  0.00    -0.532 OA
ENDBRANCH  27  28
ENDBRANCH   2  19
TORSDOF 4
ENDMDL
MODEL 8
REMARK VINA RESULT:      -8.1      3.592      8.253
REMARK  4 active torsions:
REMARK  status: ('A' for Active; 'I' for Inactive)
REMARK    1  A    between atoms: C_5  and  C_6 
REMARK    2  A    between atoms: C_14  and  C_15 
REMARK       I    between atoms: C_15  and  N_16 
REMARK    3  A    between atoms: N_16  and  C_17 
REMARK    4  A    between atoms: C_23  and  N_24 
ROOT
HETATM    1  C   UNL     1       4.401  28.232  53.025  1.00  0.00     0.262 C 
HETATM    2  N   UNL     1       5.729  27.876  53.005  1.00  0.00    -0.301 N 
HETATM    3  O   UNL     1       3.461  27.484  53.264  1.00  0.00    -0.267 OA
HETATM    4  H   UNL     1       6.430  28.497  52.637  1.00  0.00     0.171 HD
ENDROOT
BRANCH   1   5
HETATM    5  C   UNL     1       4.164  29.624  52.673  1.00  0.00     0.095 A 
HETATM    6  C   UNL     1       4.193  30.676  53.567  1.00  0.00     0.093 A 
HETATM    7  C   UNL     1       4.428  30.782  55.020  1.00  0.00     0.080 C 
HETATM    8  O   UNL     1       3.937  31.837  52.913  1.00  0.00    -0.217 OA
HETATM    9  N   UNL     1       3.752  31.582  51.571  1.00  0.00    -0.127 NA
HETATM   10  C   UNL     1       3.907  30.259  51.419  1.00  0.00     0.116 A 
BRANCH  10  11
HETATM   11  C   UNL     1       3.833  29.672  50.086  1.00  0.00     0.039 A 
HETATM   12  C   UNL     1       2.680  28.990  49.663  1.00  0.00     0.048 A 
HETATM   13 CL   UNL     1       1.287  28.814  50.672  1.00  0.00    -0.083 Cl
HETATM   14  C   UNL     1       2.612  28.437  48.378  1.00  0.00     0.025 A 
HETATM   15  C   UNL     1       3.690  28.554  47.504  1.00  0.00     0.003 A 
HETATM   16  C   UNL     1       4.838  29.231  47.909  1.00  0.00     0.025 A 
HETATM   17  C   UNL     1       4.911  29.789  49.190  1.00  0.00     0.048 A 
HETATM   18 CL   UNL     1       6.337  30.689  49.578  1.00  0.00    -0.083 Cl
ENDBRANCH  10  11
ENDBRANCH   1   5
BRANCH   2  19
HETATM   19  C   UNL     1       6.163  26.636  53.377  1.00  0.00     0.174 A 
HETATM   20  S   UNL     1       6.608  25.647  52.061  1.00  0.00    -0.050 SA
HETATM   21  C   UNL     1       7.005  24.381  53.162  1.00  0.00     0.039 A 
HETATM   22  C   UNL     1       6.772  24.830  54.466  1.00  0.00     0.077 A 
HETATM   23  C   UNL     1       7.485  23.088  52.888  1.00  0.00     0.057 A 
HETATM   24  N   UNL     1       6.300  26.124  54.568  1.00  0.00    -0.223 NA
HETATM   25  C   UNL     1       7.028  23.955  55.542  1.00  0.00     0.035 A 
HETATM   26  C   UNL     1       7.502  22.661  55.297  1.00  0.00     0.038 A 
HETATM   27  C   UNL     1       7.725  22.239  53.983  1.00  0.00     0.104 A 
BRANCH  27  28
HETATM   28  N   UNL     1       8.221  20.877  53.733  1.00  0.00    -0.116 N 
HETATM   29  O   UNL     1       8.522  20.186  54.716  1.00  0.00    -0.532 OA
HETATM   30  O   UNL     1       8.310  20.504  52.555  1.00  0.00    -0.532 OA
ENDBRANCH  27  28
ENDBRANCH   2  19
TORSDOF 4
ENDMDL
MODEL 9
REMARK VINA RESULT:      -8.0      1.796      2.156
REMARK  4 active torsions:
REMARK  status: ('A' for Active; 'I' for Inactive)
REMARK    1  A    between atoms: C_5  and  C_6 
REMARK    2  A    between atoms: C_14  and  C_15 
REMARK       I    between atoms: C_15  and  N_16 
REMARK    3  A    between atoms: N_16  and  C_17 
REMARK    4  A    between atoms: C_23  and  N_24 
ROOT
HETATM    1  C   UNL     1       7.162  26.613  54.234  1.00  0.00     0.262 C 
HETATM    2  N   UNL     1       5.953  26.160  53.761  1.00  0.00    -0.301 N 
HETATM    3  O   UNL     1       7.961  27.305  53.615  1.00  0.00    -0.267 OA
HETATM    4  H   UNL     1       5.428  25.461  54.257  1.00  0.00     0.171 HD
ENDROOT
BRANCH   1   5
HETATM    5  C   UNL     1       7.475  26.149  55.577  1.00  0.00     0.095 A 
HETATM    6  C   UNL     1       7.994  24.906  55.878  1.00  0.00     0.093 A 
HETATM    7  C   UNL     1       8.367  23.726  55.072  1.00  0.00     0.080 C 
HETATM    8  O   UNL     1       8.173  24.798  57.218  1.00  0.00    -0.217 OA
HETATM    9  N   UNL     1       7.795  25.974  57.832  1.00  0.00    -0.127 NA
HETATM   10  C   UNL     1       7.395  26.794  56.850  1.00  0.00     0.116 A 
BRANCH  10  11
HETATM   11  C   UNL     1       6.986  28.157  57.169  1.00  0.00     0.039 A 
HETATM   12  C   UNL     1       7.942  29.152  57.432  1.00  0.00     0.048 A 
HETATM   13 CL   UNL     1       9.642  28.838  57.382  1.00  0.00    -0.083 Cl
HETATM   14  C   UNL     1       7.543  30.461  57.729  1.00  0.00     0.025 A 
HETATM   15  C   UNL     1       6.190  30.792  57.770  1.00  0.00     0.003 A 
HETATM   16  C   UNL     1       5.232  29.815  57.507  1.00  0.00     0.025 A 
HETATM   17  C   UNL     1       5.625  28.507  57.207  1.00  0.00     0.048 A 
HETATM   18 CL   UNL     1       4.374  27.380  56.806  1.00  0.00    -0.083 Cl
ENDBRANCH  10  11
ENDBRANCH   1   5
BRANCH   2  19
HETATM   19  C   UNL     1       5.446  26.544  52.553  1.00  0.00     0.174 A 
HETATM   20  S   UNL     1       4.609  28.028  52.606  1.00  0.00    -0.050 SA
HETATM   21  C   UNL     1       4.282  27.891  50.918  1.00  0.00     0.039 A 
HETATM   22  C   UNL     1       4.860  26.708  50.444  1.00  0.00     0.077 A 
HETATM   23  C   UNL     1       3.568  28.766  50.081  1.00  0.00     0.057 A 
HETATM   24  N   UNL     1       5.528  25.957  51.391  1.00  0.00    -0.223 NA
HETATM   25  C   UNL     1       4.719  26.383  49.079  1.00  0.00     0.035 A 
HETATM   26  C   UNL     1       4.009  27.234  48.224  1.00  0.00     0.038 A 
HETATM   27  C   UNL     1       3.442  28.410  48.726  1.00  0.00     0.104 A 
BRANCH  27  28
HETATM   28  N   UNL     1       2.695  29.298  47.823  1.00  0.00    -0.116 N 
HETATM   29  O   UNL     1       2.697  30.511  48.077  1.00  0.00    -0.532 OA
HETATM   30  O   UNL     1       2.107  28.780  46.863  1.00  0.00    -0.532 OA
ENDBRANCH  27  28
ENDBRANCH   2  19
TORSDOF 4
ENDMDL
MODEL 10
REMARK VINA RESULT:      -7.9      5.861      8.781
REMARK  4 active torsions:
REMARK  status: ('A' for Active; 'I' for Inactive)
REMARK    1  A    between atoms: C_5  and  C_6 
REMARK    2  A    between atoms: C_14  and  C_15 
REMARK       I    between atoms: C_15  and  N_16 
REMARK    3  A    between atoms: N_16  and  C_17 
REMARK    4  A    between atoms: C_23  and  N_24 
ROOT
HETATM    1  C   UNL     1       5.312  30.439  57.282  1.00  0.00     0.262 C 
HETATM    2  N   UNL     1       6.335  29.973  56.491  1.00  0.00    -0.301 N 
HETATM    3  O   UNL     1       4.444  29.755  57.809  1.00  0.00    -0.267 OA
HETATM    4  H   UNL     1       6.909  30.602  55.956  1.00  0.00     0.171 HD
ENDROOT
BRANCH   1   5
HETATM    5  C   UNL     1       5.293  31.887  57.420  1.00  0.00     0.095 A 
HETATM    6  C   UNL     1       4.981  32.769  56.404  1.00  0.00     0.093 A 
HETATM    7  C   UNL     1       4.614  32.611  54.983  1.00  0.00     0.080 C 
HETATM    8  O   UNL     1       5.052  34.042  56.868  1.00  0.00    -0.217 OA
HETATM    9  N   UNL     1       5.393  34.031  58.204  1.00  0.00    -0.127 NA
HETATM   10  C   UNL     1       5.518  32.740  58.544  1.00  0.00     0.116 A 
BRANCH  10  11
HETATM   11  C   UNL     1       5.815  32.384  59.927  1.00  0.00     0.039 A 
HETATM   12  C   UNL     1       7.111  31.994  60.307  1.00  0.00     0.048 A 
HETATM   13 CL   UNL     1       8.423  31.924  59.183  1.00  0.00    -0.083 Cl
HETATM   14  C   UNL     1       7.392  31.663  61.638  1.00  0.00     0.025 A 
HETATM   15  C   UNL     1       6.388  31.713  62.602  1.00  0.00     0.003 A 
HETATM   16  C   UNL     1       5.100  32.102  62.240  1.00  0.00     0.025 A 
HETATM   17  C   UNL     1       4.814  32.437  60.912  1.00  0.00     0.048 A 
HETATM   18 CL   UNL     1       3.212  32.994  60.567  1.00  0.00    -0.083 Cl
ENDBRANCH  10  11
ENDBRANCH   1   5
BRANCH   2  19
HETATM   19  C   UNL     1       6.568  28.642  56.300  1.00  0.00     0.174 A 
HETATM   20  S   UNL     1       7.768  28.004  57.330  1.00  0.00    -0.050 SA
HETATM   21  C   UNL     1       7.554  26.456  56.603  1.00  0.00     0.039 A 
HETATM   22  C   UNL     1       6.559  26.553  55.624  1.00  0.00     0.077 A 
HETATM   23  C   UNL     1       8.220  25.248  56.879  1.00  0.00     0.057 A 
HETATM   24  N   UNL     1       6.002  27.807  55.473  1.00  0.00    -0.223 NA
HETATM   25  C   UNL     1       6.213  25.399  54.890  1.00  0.00     0.035 A 
HETATM   26  C   UNL     1       6.863  24.186  55.143  1.00  0.00     0.038 A 
HETATM   27  C   UNL     1       7.854  24.118  56.127  1.00  0.00     0.104 A 
BRANCH  27  28
HETATM   28  N   UNL     1       8.535  22.840  56.384  1.00  0.00    -0.116 N 
HETATM   29  O   UNL     1       9.258  22.383  55.488  1.00  0.00    -0.532 OA
HETATM   30  O   UNL     1       8.343  22.297  57.481  1.00  0.00    -0.532 OA
ENDBRANCH  27  28
ENDBRANCH   2  19
TORSDOF 4
ENDMDL
