MODEL 1
REMARK VINA RESULT:      -9.9      0.000      0.000
REMARK  4 active torsions:
REMARK  status: ('A' for Active; 'I' for Inactive)
REMARK    1  A    between atoms: C_5  and  N_6 
REMARK       I    between atoms: N_6  and  C_7 
REMARK    2  A    between atoms: C_7  and  C_8 
REMARK    3  A    between atoms: C_8  and  N_9 
REMARK    4  A    between atoms: C_11  and  C_12 
REMARK       I    between atoms: C_12  and  N_13 
ROOT
HETATM    1  N   UNL     1       7.611  25.612  55.922  1.00  0.00    -0.325 N 
HETATM    2  C   UNL     1       7.076  26.853  56.228  1.00  0.00     0.240 C 
HETATM    3  O   UNL     1       6.451  27.588  55.469  1.00  0.00    -0.271 OA
HETATM    4  H   UNL     1       7.988  25.055  56.677  1.00  0.00     0.169 HD
ENDROOT
BRANCH   2   5
HETATM    5  C   UNL     1       7.309  27.280  57.669  1.00  0.00     0.230 C 
BRANCH   5   6
HETATM    6  N   UNL     1       8.208  28.462  57.692  1.00  0.00    -0.357 N 
HETATM    7  C   UNL     1       7.914  29.502  58.512  1.00  0.00     0.108 A 
HETATM    8  C   UNL     1       8.778  30.591  58.622  1.00  0.00     0.047 A 
HETATM    9  C   UNL     1       9.944  30.614  57.861  1.00  0.00     0.020 A 
HETATM   10  C   UNL     1      10.229  29.537  57.026  1.00  0.00     0.018 A 
HETATM   11  C   UNL     1       9.349  28.460  56.965  1.00  0.00     0.091 A 
BRANCH   8  12
HETATM   12  C   UNL     1       8.369  31.670  59.540  1.00  0.00     0.250 C 
HETATM   13  N   UNL     1       7.245  31.500  60.289  1.00  0.00    -0.366 N 
HETATM   14  H   UNL     1       6.570  30.757  60.168  1.00  0.00     0.159 HD
HETATM   15  H   UNL     1       6.953  32.286  60.863  1.00  0.00     0.159 HD
HETATM   16  O   UNL     1       9.032  32.698  59.587  1.00  0.00    -0.268 OA
ENDBRANCH   8  12
ENDBRANCH   5   6
ENDBRANCH   2   5
BRANCH   1  17
HETATM   17  C   UNL     1       7.652  24.987  54.641  1.00  0.00     0.045 A 
HETATM   18  C   UNL     1       7.727  23.558  54.557  1.00  0.00     0.001 A 
HETATM   19  C   UNL     1       7.811  22.961  53.269  1.00  0.00    -0.024 A 
HETATM   20  C   UNL     1       7.709  22.667  55.667  1.00  0.00     0.014 A 
HETATM   21  C   UNL     1       7.884  21.567  53.128  1.00  0.00     0.012 A 
HETATM   22  C   UNL     1       7.816  23.760  52.121  1.00  0.00     0.012 A 
HETATM   23  C   UNL     1       7.870  20.729  54.240  1.00  0.00     0.001 A 
HETATM   24  C   UNL     1       7.781  21.279  55.509  1.00  0.00     0.001 A 
HETATM   25  C   UNL     1       7.738  25.143  52.216  1.00  0.00     0.003 A 
HETATM   26  C   UNL     1       7.657  25.751  53.465  1.00  0.00     0.030 A 
ENDBRANCH   1  17
TORSDOF 4
ENDMDL
MODEL 2
REMARK VINA RESULT:      -9.4      2.076      2.464
REMARK  4 active torsions:
REMARK  status: ('A' for Active; 'I' for Inactive)
REMARK    1  A    between atoms: C_5  and  N_6 
REMARK       I    between atoms: N_6  and  C_7 
REMARK    2  A    between atoms: C_7  and  C_8 
REMARK    3  A    between atoms: C_8  and  N_9 
REMARK    4  A    between atoms: C_11  and  C_12 
REMARK       I    between atoms: C_12  and  N_13 
ROOT
HETATM    1  N   UNL     1       7.993  24.875  56.209  1.00  0.00    -0.325 N 
HETATM    2  C   UNL     1       6.911  25.267  56.981  1.00  0.00     0.240 C 
HETATM    3  O   UNL     1       5.740  24.929  56.825  1.00  0.00    -0.271 OA
HETATM    4  H   UNL     1       8.921  25.121  56.526  1.00  0.00     0.169 HD
ENDROOT
BRANCH   2   5
HETATM    5  C   UNL     1       7.282  26.193  58.128  1.00  0.00     0.230 C 
BRANCH   5   6
HETATM    6  N   UNL     1       7.367  27.588  57.626  1.00  0.00    -0.357 N 
HETATM    7  C   UNL     1       8.579  28.105  57.306  1.00  0.00     0.108 A 
HETATM    8  C   UNL     1       8.689  29.381  56.754  1.00  0.00     0.047 A 
HETATM    9  C   UNL     1       7.537  30.136  56.553  1.00  0.00     0.020 A 
HETATM   10  C   UNL     1       6.301  29.588  56.887  1.00  0.00     0.018 A 
HETATM   11  C   UNL     1       6.237  28.301  57.414  1.00  0.00     0.091 A 
BRANCH   8  12
HETATM   12  C   UNL     1      10.051  29.852  56.440  1.00  0.00     0.250 C 
HETATM   13  N   UNL     1      10.883  30.178  57.468  1.00  0.00    -0.366 N 
HETATM   14  H   UNL     1      10.606  30.270  58.435  1.00  0.00     0.159 HD
HETATM   15  H   UNL     1      11.790  30.561  57.219  1.00  0.00     0.159 HD
HETATM   16  O   UNL     1      10.389  29.963  55.269  1.00  0.00    -0.268 OA
ENDBRANCH   8  12
ENDBRANCH   5   6
ENDBRANCH   2   5
BRANCH   1  17
HETATM   17  C   UNL     1       7.959  24.103  55.011  1.00  0.00     0.045 A 
HETATM   18  C   UNL     1       8.171  22.687  55.078  1.00  0.00     0.001 A 
HETATM   19  C   UNL     1       8.175  21.946  53.866  1.00  0.00    -0.024 A 
HETATM   20  C   UNL     1       8.365  21.942  56.276  1.00  0.00     0.014 A 
HETATM   21  C   UNL     1       8.376  20.557  53.874  1.00  0.00     0.012 A 
HETATM   22  C   UNL     1       7.974  22.594  52.642  1.00  0.00     0.012 A 
HETATM   23  C   UNL     1       8.569  19.865  55.066  1.00  0.00     0.001 A 
HETATM   24  C   UNL     1       8.562  20.557  56.267  1.00  0.00     0.001 A 
HETATM   25  C   UNL     1       7.764  23.966  52.590  1.00  0.00     0.003 A 
HETATM   26  C   UNL     1       7.758  24.714  53.764  1.00  0.00     0.030 A 
ENDBRANCH   1  17
TORSDOF 4
ENDMDL
MODEL 3
REMARK VINA RESULT:      -9.2      1.925      3.178
REMARK  4 active torsions:
REMARK  status: ('A' for Active; 'I' for Inactive)
REMARK    1  A    between atoms: C_5  and  N_6 
REMARK       I    between atoms: N_6  and  C_7 
REMARK    2  A    between atoms: C_7  and  C_8 
REMARK    3  A    between atoms: C_8  and  N_9 
REMARK    4  A    between atoms: C_11  and  C_12 
REMARK       I    between atoms: C_12  and  N_13 
ROOT
HETATM    1  N   UNL     1       8.053  25.053  55.507  1.00  0.00    -0.325 N 
HETATM    2  C   UNL     1       6.877  25.738  55.247  1.00  0.00     0.240 C 
HETATM    3  O   UNL     1       5.734  25.316  55.404  1.00  0.00    -0.271 OA
HETATM    4  H   UNL     1       8.924  25.564  55.459  1.00  0.00     0.169 HD
ENDROOT
BRANCH   2   5
HETATM    5  C   UNL     1       7.094  27.152  54.735  1.00  0.00     0.230 C 
BRANCH   5   6
HETATM    6  N   UNL     1       7.344  28.059  55.884  1.00  0.00    -0.357 N 
HETATM    7  C   UNL     1       8.587  28.565  56.072  1.00  0.00     0.108 A 
HETATM    8  C   UNL     1       8.839  29.484  57.090  1.00  0.00     0.047 A 
HETATM    9  C   UNL     1       7.800  29.865  57.935  1.00  0.00     0.020 A 
HETATM   10  C   UNL     1       6.529  29.335  57.726  1.00  0.00     0.018 A 
HETATM   11  C   UNL     1       6.318  28.439  56.682  1.00  0.00     0.091 A 
BRANCH   8  12
HETATM   12  C   UNL     1      10.225  29.976  57.211  1.00  0.00     0.250 C 
HETATM   13  N   UNL     1      10.446  31.150  57.865  1.00  0.00    -0.366 N 
HETATM   14  H   UNL     1       9.729  31.802  58.153  1.00  0.00     0.159 HD
HETATM   15  H   UNL     1      11.401  31.496  57.875  1.00  0.00     0.159 HD
HETATM   16  O   UNL     1      11.133  29.335  56.700  1.00  0.00    -0.268 OA
ENDBRANCH   8  12
ENDBRANCH   5   6
ENDBRANCH   2   5
BRANCH   1  17
HETATM   17  C   UNL     1       8.184  23.687  55.892  1.00  0.00     0.045 A 
HETATM   18  C   UNL     1       8.148  22.664  54.887  1.00  0.00     0.001 A 
HETATM   19  C   UNL     1       8.237  21.308  55.301  1.00  0.00    -0.024 A 
HETATM   20  C   UNL     1       8.045  22.893  53.486  1.00  0.00     0.014 A 
HETATM   21  C   UNL     1       8.209  20.267  54.359  1.00  0.00     0.012 A 
HETATM   22  C   UNL     1       8.359  20.991  56.658  1.00  0.00     0.012 A 
HETATM   23  C   UNL     1       8.101  20.532  52.997  1.00  0.00     0.001 A 
HETATM   24  C   UNL     1       8.021  21.845  52.560  1.00  0.00     0.001 A 
HETATM   25  C   UNL     1       8.397  21.990  57.621  1.00  0.00     0.003 A 
HETATM   26  C   UNL     1       8.310  23.326  57.241  1.00  0.00     0.030 A 
ENDBRANCH   1  17
TORSDOF 4
ENDMDL
MODEL 4
REMARK VINA RESULT:      -9.2      3.970      7.041
REMARK  4 active torsions:
REMARK  status: ('A' for Active; 'I' for Inactive)
REMARK    1  A    between atoms: C_5  and  N_6 
REMARK       I    between atoms: N_6  and  C_7 
REMARK    2  A    between atoms: C_7  and  C_8 
REMARK    3  A    between atoms: C_8  and  N_9 
REMARK    4  A    between atoms: C_11  and  C_12 
REMARK       I    between atoms: C_12  and  N_13 
ROOT
HETATM    1  N   UNL     1       5.990  26.200  54.415  1.00  0.00    -0.325 N 
HETATM    2  C   UNL     1       6.172  27.354  53.670  1.00  0.00     0.240 C 
HETATM    3  O   UNL     1       7.237  27.926  53.455  1.00  0.00    -0.271 OA
HETATM    4  H   UNL     1       5.079  25.762  54.402  1.00  0.00     0.169 HD
ENDROOT
BRANCH   2   5
HETATM    5  C   UNL     1       4.887  27.905  53.074  1.00  0.00     0.230 C 
BRANCH   5   6
HETATM    6  N   UNL     1       5.101  28.207  51.636  1.00  0.00    -0.357 N 
HETATM    7  C   UNL     1       4.760  27.281  50.706  1.00  0.00     0.108 A 
HETATM    8  C   UNL     1       4.870  27.562  49.344  1.00  0.00     0.047 A 
HETATM    9  C   UNL     1       5.357  28.802  48.942  1.00  0.00     0.020 A 
HETATM   10  C   UNL     1       5.701  29.741  49.912  1.00  0.00     0.018 A 
HETATM   11  C   UNL     1       5.554  29.426  51.260  1.00  0.00     0.091 A 
BRANCH   8  12
HETATM   12  C   UNL     1       4.472  26.489  48.413  1.00  0.00     0.250 C 
HETATM   13  N   UNL     1       3.489  25.626  48.792  1.00  0.00    -0.366 N 
HETATM   14  H   UNL     1       3.101  25.556  49.722  1.00  0.00     0.159 HD
HETATM   15  H   UNL     1       3.284  24.859  48.158  1.00  0.00     0.159 HD
HETATM   16  O   UNL     1       5.051  26.386  47.339  1.00  0.00    -0.268 OA
ENDBRANCH   8  12
ENDBRANCH   5   6
ENDBRANCH   2   5
BRANCH   1  17
HETATM   17  C   UNL     1       6.973  25.509  55.182  1.00  0.00     0.045 A 
HETATM   18  C   UNL     1       7.558  24.308  54.660  1.00  0.00     0.001 A 
HETATM   19  C   UNL     1       8.504  23.614  55.462  1.00  0.00    -0.024 A 
HETATM   20  C   UNL     1       7.282  23.750  53.380  1.00  0.00     0.014 A 
HETATM   21  C   UNL     1       9.109  22.435  54.999  1.00  0.00     0.012 A 
HETATM   22  C   UNL     1       8.849  24.102  56.727  1.00  0.00     0.012 A 
HETATM   23  C   UNL     1       8.808  21.917  53.743  1.00  0.00     0.001 A 
HETATM   24  C   UNL     1       7.896  22.574  52.933  1.00  0.00     0.001 A 
HETATM   25  C   UNL     1       8.279  25.268  57.219  1.00  0.00     0.003 A 
HETATM   26  C   UNL     1       7.349  25.965  56.453  1.00  0.00     0.030 A 
ENDBRANCH   1  17
TORSDOF 4
ENDMDL
MODEL 5
REMARK VINA RESULT:      -9.1      2.107      3.196
REMARK  4 active torsions:
REMARK  status: ('A' for Active; 'I' for Inactive)
REMARK    1  A    between atoms: C_5  and  N_6 
REMARK       I    between atoms: N_6  and  C_7 
REMARK    2  A    between atoms: C_7  and  C_8 
REMARK    3  A    between atoms: C_8  and  N_9 
REMARK    4  A    between atoms: C_11  and  C_12 
REMARK       I    between atoms: C_12  and  N_13 
ROOT
HETATM    1  N   UNL     1       7.673  24.847  53.975  1.00  0.00    -0.325 N 
HETATM    2  C   UNL     1       6.498  25.582  53.977  1.00  0.00     0.240 C 
HETATM    3  O   UNL     1       5.357  25.138  54.069  1.00  0.00    -0.271 OA
HETATM    4  H   UNL     1       8.550  25.347  54.026  1.00  0.00     0.169 HD
ENDROOT
BRANCH   2   5
HETATM    5  C   UNL     1       6.717  27.083  53.869  1.00  0.00     0.230 C 
BRANCH   5   6
HETATM    6  N   UNL     1       7.110  27.620  55.196  1.00  0.00    -0.357 N 
HETATM    7  C   UNL     1       8.246  28.352  55.305  1.00  0.00     0.108 A 
HETATM    8  C   UNL     1       8.604  28.941  56.518  1.00  0.00     0.047 A 
HETATM    9  C   UNL     1       7.790  28.753  57.631  1.00  0.00     0.020 A 
HETATM   10  C   UNL     1       6.626  27.999  57.500  1.00  0.00     0.018 A 
HETATM   11  C   UNL     1       6.297  27.448  56.264  1.00  0.00     0.091 A 
BRANCH   8  12
HETATM   12  C   UNL     1       9.857  29.718  56.533  1.00  0.00     0.250 C 
HETATM   13  N   UNL     1      10.361  30.121  57.732  1.00  0.00    -0.366 N 
HETATM   14  H   UNL     1       9.877  30.066  58.617  1.00  0.00     0.159 HD
HETATM   15  H   UNL     1      11.189  30.710  57.707  1.00  0.00     0.159 HD
HETATM   16  O   UNL     1      10.396  30.003  55.472  1.00  0.00    -0.268 OA
ENDBRANCH   8  12
ENDBRANCH   5   6
ENDBRANCH   2   5
BRANCH   1  17
HETATM   17  C   UNL     1       7.797  23.427  53.957  1.00  0.00     0.045 A 
HETATM   18  C   UNL     1       8.030  22.724  55.185  1.00  0.00     0.001 A 
HETATM   19  C   UNL     1       8.193  21.313  55.134  1.00  0.00    -0.024 A 
HETATM   20  C   UNL     1       8.097  23.323  56.474  1.00  0.00     0.014 A 
HETATM   21  C   UNL     1       8.421  20.575  56.306  1.00  0.00     0.012 A 
HETATM   22  C   UNL     1       8.124  20.638  53.911  1.00  0.00     0.012 A 
HETATM   23  C   UNL     1       8.486  21.199  57.549  1.00  0.00     0.001 A 
HETATM   24  C   UNL     1       8.323  22.573  57.633  1.00  0.00     0.001 A 
HETATM   25  C   UNL     1       7.894  21.330  52.729  1.00  0.00     0.003 A 
HETATM   26  C   UNL     1       7.732  22.712  52.752  1.00  0.00     0.030 A 
ENDBRANCH   1  17
TORSDOF 4
ENDMDL
MODEL 6
REMARK VINA RESULT:      -9.1      3.501      5.669
REMARK  4 active torsions:
REMARK  status: ('A' for Active; 'I' for Inactive)
REMARK    1  A    between atoms: C_5  and  N_6 
REMARK       I    between atoms: N_6  and  C_7 
REMARK    2  A    between atoms: C_7  and  C_8 
REMARK    3  A    between atoms: C_8  and  N_9 
REMARK    4  A    between atoms: C_11  and  C_12 
REMARK       I    between atoms: C_12  and  N_13 
ROOT
HETATM    1  N   UNL     1       7.990  24.807  56.176  1.00  0.00    -0.325 N 
HETATM    2  C   UNL     1       6.897  25.553  56.586  1.00  0.00     0.240 C 
HETATM    3  O   UNL     1       5.923  25.141  57.211  1.00  0.00    -0.271 OA
HETATM    4  H   UNL     1       8.783  25.297  55.784  1.00  0.00     0.169 HD
ENDROOT
BRANCH   2   5
HETATM    5  C   UNL     1       6.982  27.022  56.206  1.00  0.00     0.230 C 
BRANCH   5   6
HETATM    6  N   UNL     1       6.042  27.297  55.089  1.00  0.00    -0.357 N 
HETATM    7  C   UNL     1       6.196  26.637  53.915  1.00  0.00     0.108 A 
HETATM    8  C   UNL     1       5.284  26.808  52.874  1.00  0.00     0.047 A 
HETATM    9  C   UNL     1       4.217  27.686  53.042  1.00  0.00     0.020 A 
HETATM   10  C   UNL     1       4.075  28.354  54.256  1.00  0.00     0.018 A 
HETATM   11  C   UNL     1       4.996  28.136  55.276  1.00  0.00     0.091 A 
BRANCH   8  12
HETATM   12  C   UNL     1       5.538  26.044  51.638  1.00  0.00     0.250 C 
HETATM   13  N   UNL     1       4.598  26.065  50.653  1.00  0.00    -0.366 N 
HETATM   14  H   UNL     1       3.664  26.438  50.745  1.00  0.00     0.159 HD
HETATM   15  H   UNL     1       4.771  25.477  49.842  1.00  0.00     0.159 HD
HETATM   16  O   UNL     1       6.569  25.392  51.541  1.00  0.00    -0.268 OA
ENDBRANCH   8  12
ENDBRANCH   5   6
ENDBRANCH   2   5
BRANCH   1  17
HETATM   17  C   UNL     1       8.158  23.396  56.286  1.00  0.00     0.045 A 
HETATM   18  C   UNL     1       8.102  22.584  55.105  1.00  0.00     0.001 A 
HETATM   19  C   UNL     1       8.229  21.176  55.247  1.00  0.00    -0.024 A 
HETATM   20  C   UNL     1       7.946  23.076  53.778  1.00  0.00     0.014 A 
HETATM   21  C   UNL     1       8.184  20.335  54.124  1.00  0.00     0.012 A 
HETATM   22  C   UNL     1       8.404  20.607  56.513  1.00  0.00     0.012 A 
HETATM   23  C   UNL     1       8.023  20.854  52.842  1.00  0.00     0.001 A 
HETATM   24  C   UNL     1       7.905  22.224  52.669  1.00  0.00     0.001 A 
HETATM   25  C   UNL     1       8.461  21.404  57.648  1.00  0.00     0.003 A 
HETATM   26  C   UNL     1       8.338  22.786  57.536  1.00  0.00     0.030 A 
ENDBRANCH   1  17
TORSDOF 4
ENDMDL
MODEL 7
REMARK VINA RESULT:      -9.0      3.955      5.028
REMARK  4 active torsions:
REMARK  status: ('A' for Active; 'I' for Inactive)
REMARK    1  A    between atoms: C_5  and  N_6 
REMARK       I    between atoms: N_6  and  C_7 
REMARK    2  A    between atoms: C_7  and  C_8 
REMARK    3  A    between atoms: C_8  and  N_9 
REMARK    4  A    between atoms: C_11  and  C_12 
REMARK       I    between atoms: C_12  and  N_13 
ROOT
HETATM    1  N   UNL     1       6.278  24.407  53.546  1.00  0.00    -0.325 N 
HETATM    2  C   UNL     1       6.634  25.511  52.788  1.00  0.00     0.240 C 
HETATM    3  O   UNL     1       7.712  26.097  52.811  1.00  0.00    -0.271 OA
HETATM    4  H   UNL     1       5.405  23.942  53.334  1.00  0.00     0.169 HD
ENDROOT
BRANCH   2   5
HETATM    5  C   UNL     1       5.539  25.982  51.845  1.00  0.00     0.230 C 
BRANCH   5   6
HETATM    6  N   UNL     1       4.909  27.209  52.395  1.00  0.00    -0.357 N 
HETATM    7  C   UNL     1       4.754  27.330  53.737  1.00  0.00     0.108 A 
HETATM    8  C   UNL     1       4.243  28.502  54.294  1.00  0.00     0.047 A 
HETATM    9  C   UNL     1       3.868  29.547  53.455  1.00  0.00     0.020 A 
HETATM   10  C   UNL     1       4.034  29.404  52.080  1.00  0.00     0.018 A 
HETATM   11  C   UNL     1       4.570  28.226  51.568  1.00  0.00     0.091 A 
BRANCH   8  12
HETATM   12  C   UNL     1       4.116  28.535  55.763  1.00  0.00     0.250 C 
HETATM   13  N   UNL     1       4.305  27.382  56.462  1.00  0.00    -0.366 N 
HETATM   14  H   UNL     1       4.382  26.460  56.056  1.00  0.00     0.159 HD
HETATM   15  H   UNL     1       4.147  27.422  57.464  1.00  0.00     0.159 HD
HETATM   16  O   UNL     1       3.817  29.587  56.313  1.00  0.00    -0.268 OA
ENDBRANCH   8  12
ENDBRANCH   5   6
ENDBRANCH   2   5
BRANCH   1  17
HETATM   17  C   UNL     1       7.038  23.799  54.588  1.00  0.00     0.045 A 
HETATM   18  C   UNL     1       7.642  22.518  54.365  1.00  0.00     0.001 A 
HETATM   19  C   UNL     1       8.358  21.914  55.434  1.00  0.00    -0.024 A 
HETATM   20  C   UNL     1       7.599  21.792  53.142  1.00  0.00     0.014 A 
HETATM   21  C   UNL     1       8.971  20.662  55.269  1.00  0.00     0.012 A 
HETATM   22  C   UNL     1       8.467  22.565  56.667  1.00  0.00     0.012 A 
HETATM   23  C   UNL     1       8.901  19.980  54.058  1.00  0.00     0.001 A 
HETATM   24  C   UNL     1       8.217  20.545  52.994  1.00  0.00     0.001 A 
HETATM   25  C   UNL     1       7.882  23.808  56.869  1.00  0.00     0.003 A 
HETATM   26  C   UNL     1       7.174  24.420  55.839  1.00  0.00     0.030 A 
ENDBRANCH   1  17
TORSDOF 4
ENDMDL
MODEL 8
REMARK VINA RESULT:      -8.9      1.945      3.064
REMARK  4 active torsions:
REMARK  status: ('A' for Active; 'I' for Inactive)
REMARK    1  A    between atoms: C_5  and  N_6 
REMARK       I    between atoms: N_6  and  C_7 
REMARK    2  A    between atoms: C_7  and  C_8 
REMARK    3  A    between atoms: C_8  and  N_9 
REMARK    4  A    between atoms: C_11  and  C_12 
REMARK       I    between atoms: C_12  and  N_13 
ROOT
HETATM    1  N   UNL     1       8.010  25.004  55.522  1.00  0.00    -0.325 N 
HETATM    2  C   UNL     1       6.852  25.763  55.590  1.00  0.00     0.240 C 
HETATM    3  O   UNL     1       5.780  25.420  56.082  1.00  0.00    -0.271 OA
HETATM    4  H   UNL     1       8.859  25.455  55.209  1.00  0.00     0.169 HD
ENDROOT
BRANCH   2   5
HETATM    5  C   UNL     1       6.996  27.152  54.991  1.00  0.00     0.230 C 
BRANCH   5   6
HETATM    6  N   UNL     1       7.204  28.139  56.081  1.00  0.00    -0.357 N 
HETATM    7  C   UNL     1       6.177  28.944  56.452  1.00  0.00     0.108 A 
HETATM    8  C   UNL     1       6.310  29.823  57.525  1.00  0.00     0.047 A 
HETATM    9  C   UNL     1       7.522  29.887  58.207  1.00  0.00     0.020 A 
HETATM   10  C   UNL     1       8.565  29.052  57.812  1.00  0.00     0.018 A 
HETATM   11  C   UNL     1       8.380  28.173  56.749  1.00  0.00     0.091 A 
BRANCH   8  12
HETATM   12  C   UNL     1       5.135  30.654  57.850  1.00  0.00     0.250 C 
HETATM   13  N   UNL     1       3.967  30.035  58.177  1.00  0.00    -0.366 N 
HETATM   14  H   UNL     1       3.782  29.047  58.074  1.00  0.00     0.159 HD
HETATM   15  H   UNL     1       3.159  30.632  58.331  1.00  0.00     0.159 HD
HETATM   16  O   UNL     1       5.231  31.873  57.791  1.00  0.00    -0.268 OA
ENDBRANCH   8  12
ENDBRANCH   5   6
ENDBRANCH   2   5
BRANCH   1  17
HETATM   17  C   UNL     1       8.164  23.637  55.897  1.00  0.00     0.045 A 
HETATM   18  C   UNL     1       8.129  22.621  54.887  1.00  0.00     0.001 A 
HETATM   19  C   UNL     1       8.242  21.263  55.291  1.00  0.00    -0.024 A 
HETATM   20  C   UNL     1       8.006  22.857  53.489  1.00  0.00     0.014 A 
HETATM   21  C   UNL     1       8.216  20.228  54.344  1.00  0.00     0.012 A 
HETATM   22  C   UNL     1       8.385  20.940  56.645  1.00  0.00     0.012 A 
HETATM   23  C   UNL     1       8.088  20.499  52.984  1.00  0.00     0.001 A 
HETATM   24  C   UNL     1       7.984  21.813  52.557  1.00  0.00     0.001 A 
HETATM   25  C   UNL     1       8.422  21.934  57.613  1.00  0.00     0.003 A 
HETATM   26  C   UNL     1       8.312  23.271  57.243  1.00  0.00     0.030 A 
ENDBRANCH   1  17
TORSDOF 4
ENDMDL
MODEL 9
REMARK VINA RESULT:      -8.9      2.585      3.431
REMARK  4 active torsions:
REMARK  status: ('A' for Active; 'I' for Inactive)
REMARK    1  A    between atoms: C_5  and  N_6 
REMARK       I    between atoms: N_6  and  C_7 
REMARK    2  A    between atoms: C_7  and  C_8 
REMARK    3  A    between atoms: C_8  and  N_9 
REMARK    4  A    between atoms: C_11  and  C_12 
REMARK       I    between atoms: C_12  and  N_13 
ROOT
HETATM    1  N   UNL     1       8.049  25.131  56.080  1.00  0.00    -0.325 N 
HETATM    2  C   UNL     1       7.048  25.516  56.958  1.00  0.00     0.240 C 
HETATM    3  O   UNL     1       5.923  25.032  57.042  1.00  0.00    -0.271 OA
HETATM    4  H   UNL     1       8.972  25.524  56.206  1.00  0.00     0.169 HD
ENDROOT
BRANCH   2   5
HETATM    5  C   UNL     1       7.455  26.644  57.892  1.00  0.00     0.230 C 
BRANCH   5   6
HETATM    6  N   UNL     1       7.004  27.940  57.323  1.00  0.00    -0.357 N 
HETATM    7  C   UNL     1       6.259  27.944  56.190  1.00  0.00     0.108 A 
HETATM    8  C   UNL     1       5.750  29.135  55.674  1.00  0.00     0.047 A 
HETATM    9  C   UNL     1       6.032  30.334  56.324  1.00  0.00     0.020 A 
HETATM   10  C   UNL     1       6.798  30.310  57.486  1.00  0.00     0.018 A 
HETATM   11  C   UNL     1       7.267  29.095  57.979  1.00  0.00     0.091 A 
BRANCH   8  12
HETATM   12  C   UNL     1       4.950  29.034  54.439  1.00  0.00     0.250 C 
HETATM   13  N   UNL     1       4.711  30.166  53.721  1.00  0.00    -0.366 N 
HETATM   14  H   UNL     1       4.905  31.107  54.034  1.00  0.00     0.159 HD
HETATM   15  H   UNL     1       4.103  30.076  52.912  1.00  0.00     0.159 HD
HETATM   16  O   UNL     1       4.502  27.945  54.106  1.00  0.00    -0.268 OA
ENDBRANCH   8  12
ENDBRANCH   5   6
ENDBRANCH   2   5
BRANCH   1  17
HETATM   17  C   UNL     1       7.945  24.183  55.020  1.00  0.00     0.045 A 
HETATM   18  C   UNL     1       8.109  22.787  55.304  1.00  0.00     0.001 A 
HETATM   19  C   UNL     1       8.043  21.867  54.224  1.00  0.00    -0.024 A 
HETATM   20  C   UNL     1       8.319  22.232  56.597  1.00  0.00     0.014 A 
HETATM   21  C   UNL     1       8.195  20.489  54.445  1.00  0.00     0.012 A 
HETATM   22  C   UNL     1       7.821  22.323  52.920  1.00  0.00     0.012 A 
HETATM   23  C   UNL     1       8.406  19.985  55.725  1.00  0.00     0.001 A 
HETATM   24  C   UNL     1       8.467  20.855  56.801  1.00  0.00     0.001 A 
HETATM   25  C   UNL     1       7.659  23.677  52.659  1.00  0.00     0.003 A 
HETATM   26  C   UNL     1       7.720  24.599  53.700  1.00  0.00     0.030 A 
ENDBRANCH   1  17
TORSDOF 4
ENDMDL
MODEL 10
REMARK VINA RESULT:      -8.8      2.603      3.041
REMARK  4 active torsions:
REMARK  status: ('A' for Active; 'I' for Inactive)
REMARK    1  A    between atoms: C_5  and  N_6 
REMARK       I    between atoms: N_6  and  C_7 
REMARK    2  A    between atoms: C_7  and  C_8 
REMARK    3  A    between atoms: C_8  and  N_9 
REMARK    4  A    between atoms: C_11  and  C_12 
REMARK       I    between atoms: C_12  and  N_13 
ROOT
HETATM    1  N   UNL     1       7.732  25.298  55.633  1.00  0.00    -0.325 N 
HETATM    2  C   UNL     1       6.636  25.783  56.329  1.00  0.00     0.240 C 
HETATM    3  O   UNL     1       5.517  25.279  56.376  1.00  0.00    -0.271 OA
HETATM    4  H   UNL     1       8.629  25.739  55.786  1.00  0.00     0.169 HD
ENDROOT
BRANCH   2   5
HETATM    5  C   UNL     1       6.920  27.062  57.101  1.00  0.00     0.230 C 
BRANCH   5   6
HETATM    6  N   UNL     1       6.034  28.144  56.603  1.00  0.00    -0.357 N 
HETATM    7  C   UNL     1       5.454  28.987  57.493  1.00  0.00     0.108 A 
HETATM    8  C   UNL     1       4.683  30.065  57.058  1.00  0.00     0.047 A 
HETATM    9  C   UNL     1       4.493  30.258  55.693  1.00  0.00     0.020 A 
HETATM   10  C   UNL     1       5.098  29.383  54.794  1.00  0.00     0.018 A 
HETATM   11  C   UNL     1       5.878  28.334  55.272  1.00  0.00     0.091 A 
BRANCH   8  12
HETATM   12  C   UNL     1       4.095  30.924  58.104  1.00  0.00     0.250 C 
HETATM   13  N   UNL     1       3.271  30.357  59.028  1.00  0.00    -0.366 N 
HETATM   14  H   UNL     1       2.899  29.419  58.980  1.00  0.00     0.159 HD
HETATM   15  H   UNL     1       2.830  30.984  59.694  1.00  0.00     0.159 HD
HETATM   16  O   UNL     1       4.341  32.123  58.099  1.00  0.00    -0.268 OA
ENDBRANCH   8  12
ENDBRANCH   5   6
ENDBRANCH   2   5
BRANCH   1  17
HETATM   17  C   UNL     1       7.758  24.188  54.739  1.00  0.00     0.045 A 
HETATM   18  C   UNL     1       8.002  22.872  55.255  1.00  0.00     0.001 A 
HETATM   19  C   UNL     1       8.066  21.789  54.337  1.00  0.00    -0.024 A 
HETATM   20  C   UNL     1       8.171  22.548  56.630  1.00  0.00     0.014 A 
HETATM   21  C   UNL     1       8.299  20.480  54.788  1.00  0.00     0.012 A 
HETATM   22  C   UNL     1       7.892  22.013  52.967  1.00  0.00     0.012 A 
HETATM   23  C   UNL     1       8.467  20.205  56.142  1.00  0.00     0.001 A 
HETATM   24  C   UNL     1       8.401  21.238  57.063  1.00  0.00     0.001 A 
HETATM   25  C   UNL     1       7.653  23.291  52.481  1.00  0.00     0.003 A 
HETATM   26  C   UNL     1       7.587  24.369  53.359  1.00  0.00     0.030 A 
ENDBRANCH   1  17
TORSDOF 4
ENDMDL
