MODEL 1
REMARK VINA RESULT:      -8.8      0.000      0.000
REMARK  2 active torsions:
REMARK  status: ('A' for Active; 'I' for Inactive)
REMARK    1  A    between atoms: N_20  and  C_21 
REMARK    2  A    between atoms: C_22  and  O_23 
ROOT
HETATM    1  C   UNL     1       7.612  33.830  64.870  1.00  0.00     0.048 C 
HETATM    2  C   UNL     1       6.135  34.018  64.653  1.00  0.00    -0.061 A 
HETATM    3  C   UNL     1       5.597  34.035  63.355  1.00  0.00     0.019 A 
HETATM    4  C   UNL     1       4.223  34.164  63.206  1.00  0.00     0.016 A 
HETATM    5  C   UNL     1       3.410  34.285  64.339  1.00  0.00     0.044 A 
HETATM    6  N   UNL     1       2.082  34.430  63.975  1.00  0.00    -0.324 N 
HETATM    7  C   UNL     1       1.936  34.407  62.601  1.00  0.00     0.264 A 
HETATM    8  O   UNL     1       0.898  34.556  61.979  1.00  0.00    -0.270 OA
HETATM    9  C   UNL     1       3.371  34.274  61.969  1.00  0.00     0.250 A 
HETATM   10  N   UNL     1       3.744  35.513  61.157  1.00  0.00    -0.043 N 
HETATM   11  H   UNL     1       4.769  35.510  61.055  1.00  0.00     0.282 HD
HETATM   12  C   UNL     1       3.093  35.323  59.818  1.00  0.00     0.204 C 
HETATM   13  C   UNL     1       3.586  36.551  59.091  1.00  0.00     0.036 C 
HETATM   14  C   UNL     1       3.488  37.644  60.180  1.00  0.00     0.030 C 
HETATM   15  C   UNL     1       3.400  36.917  61.535  1.00  0.00     0.237 C 
HETATM   16  C   UNL     1       3.371  33.876  59.511  1.00  0.00     0.126 C 
HETATM   17  C   UNL     1       3.312  33.165  60.880  1.00  0.00     0.145 C 
HETATM   18  C   UNL     1       4.497  32.247  60.855  1.00  0.00     0.239 C 
HETATM   19  O   UNL     1       4.723  31.471  61.770  1.00  0.00    -0.272 OA
HETATM   20  N   UNL     1       5.280  32.572  59.768  1.00  0.00    -0.249 N 
HETATM   21  C   UNL     1       4.767  33.612  59.038  1.00  0.00     0.238 C 
HETATM   22  O   UNL     1       5.300  34.268  58.159  1.00  0.00    -0.272 OA
HETATM   23  C   UNL     1       3.907  34.277  65.624  1.00  0.00     0.031 A 
HETATM   24  C   UNL     1       5.287  34.139  65.775  1.00  0.00     0.009 A 
HETATM   25  H   UNL     1       1.306  34.521  64.622  1.00  0.00     0.169 HD
ENDROOT
BRANCH  20  26
HETATM   26  C   UNL     1       6.570  32.024  59.549  1.00  0.00     0.078 A 
HETATM   27  C   UNL     1       6.775  31.004  58.599  1.00  0.00     0.095 A 
HETATM   28  C   UNL     1       8.047  30.437  58.457  1.00  0.00     0.039 A 
HETATM   29  C   UNL     1       9.122  30.911  59.212  1.00  0.00     0.003 A 
HETATM   30  C   UNL     1       8.938  31.962  60.105  1.00  0.00     0.002 A 
HETATM   31  C   UNL     1       7.671  32.520  60.268  1.00  0.00     0.033 A 
BRANCH  27  32
HETATM   32  O   UNL     1       5.702  30.674  57.808  1.00  0.00    -0.354 OA
HETATM   33  C   UNL     1       5.603  29.308  57.416  1.00  0.00     0.210 C 
ENDBRANCH  27  32
ENDBRANCH  20  26
TORSDOF 2
ENDMDL
MODEL 2
REMARK VINA RESULT:      -8.4      4.881      7.472
REMARK  2 active torsions:
REMARK  status: ('A' for Active; 'I' for Inactive)
REMARK    1  A    between atoms: N_20  and  C_21 
REMARK    2  A    between atoms: C_22  and  O_23 
ROOT
HETATM    1  C   UNL     1      10.599  29.353  56.657  1.00  0.00     0.048 C 
HETATM    2  C   UNL     1       9.378  29.911  57.335  1.00  0.00    -0.061 A 
HETATM    3  C   UNL     1       8.093  29.636  56.838  1.00  0.00     0.019 A 
HETATM    4  C   UNL     1       6.993  30.134  57.523  1.00  0.00     0.016 A 
HETATM    5  C   UNL     1       7.185  30.900  58.678  1.00  0.00     0.044 A 
HETATM    6  N   UNL     1       5.970  31.320  59.194  1.00  0.00    -0.324 N 
HETATM    7  C   UNL     1       4.917  30.859  58.427  1.00  0.00     0.264 A 
HETATM    8  O   UNL     1       3.734  31.100  58.599  1.00  0.00    -0.270 OA
HETATM    9  C   UNL     1       5.522  30.062  57.212  1.00  0.00     0.250 A 
HETATM   10  N   UNL     1       5.211  30.745  55.881  1.00  0.00    -0.043 N 
HETATM   11  H   UNL     1       5.882  30.380  55.191  1.00  0.00     0.282 HD
HETATM   12  C   UNL     1       3.819  30.309  55.526  1.00  0.00     0.204 C 
HETATM   13  C   UNL     1       3.653  30.975  54.181  1.00  0.00     0.036 C 
HETATM   14  C   UNL     1       4.316  32.353  54.408  1.00  0.00     0.030 C 
HETATM   15  C   UNL     1       5.199  32.223  55.663  1.00  0.00     0.237 C 
HETATM   16  C   UNL     1       3.833  28.840  55.851  1.00  0.00     0.126 C 
HETATM   17  C   UNL     1       4.746  28.719  57.089  1.00  0.00     0.145 C 
HETATM   18  C   UNL     1       5.602  27.526  56.784  1.00  0.00     0.239 C 
HETATM   19  O   UNL     1       6.410  27.097  57.593  1.00  0.00    -0.272 OA
HETATM   20  N   UNL     1       5.413  27.177  55.464  1.00  0.00    -0.249 N 
HETATM   21  C   UNL     1       4.521  27.996  54.823  1.00  0.00     0.238 C 
HETATM   22  O   UNL     1       4.289  28.092  53.629  1.00  0.00    -0.272 OA
HETATM   23  C   UNL     1       8.431  31.191  59.190  1.00  0.00     0.031 A 
HETATM   24  C   UNL     1       9.536  30.685  58.504  1.00  0.00     0.009 A 
HETATM   25  H   UNL     1       5.853  31.876  60.034  1.00  0.00     0.169 HD
ENDROOT
BRANCH  20  26
HETATM   26  C   UNL     1       6.206  26.208  54.797  1.00  0.00     0.078 A 
HETATM   27  C   UNL     1       7.160  26.589  53.832  1.00  0.00     0.095 A 
HETATM   28  C   UNL     1       7.877  25.604  53.143  1.00  0.00     0.039 A 
HETATM   29  C   UNL     1       7.689  24.253  53.441  1.00  0.00     0.003 A 
HETATM   30  C   UNL     1       6.796  23.876  54.438  1.00  0.00     0.002 A 
HETATM   31  C   UNL     1       6.063  24.848  55.118  1.00  0.00     0.033 A 
BRANCH  27  32
HETATM   32  O   UNL     1       7.377  27.936  53.679  1.00  0.00    -0.354 OA
HETATM   33  C   UNL     1       8.671  28.412  54.041  1.00  0.00     0.210 C 
ENDBRANCH  27  32
ENDBRANCH  20  26
TORSDOF 2
ENDMDL
MODEL 3
REMARK VINA RESULT:      -8.4      2.114      3.181
REMARK  2 active torsions:
REMARK  status: ('A' for Active; 'I' for Inactive)
REMARK    1  A    between atoms: N_20  and  C_21 
REMARK    2  A    between atoms: C_22  and  O_23 
ROOT
HETATM    1  C   UNL     1       8.739  31.937  61.872  1.00  0.00     0.048 C 
HETATM    2  C   UNL     1       7.814  32.817  62.667  1.00  0.00    -0.061 A 
HETATM    3  C   UNL     1       6.848  33.609  62.023  1.00  0.00     0.019 A 
HETATM    4  C   UNL     1       5.986  34.371  62.800  1.00  0.00     0.016 A 
HETATM    5  C   UNL     1       6.102  34.344  64.194  1.00  0.00     0.044 A 
HETATM    6  N   UNL     1       5.173  35.188  64.779  1.00  0.00    -0.324 N 
HETATM    7  C   UNL     1       4.393  35.810  63.823  1.00  0.00     0.264 A 
HETATM    8  O   UNL     1       3.523  36.640  64.023  1.00  0.00    -0.270 OA
HETATM    9  C   UNL     1       4.908  35.347  62.409  1.00  0.00     0.250 A 
HETATM   10  N   UNL     1       5.491  36.514  61.614  1.00  0.00    -0.043 N 
HETATM   11  H   UNL     1       6.085  36.110  60.877  1.00  0.00     0.282 HD
HETATM   12  C   UNL     1       4.308  37.207  61.000  1.00  0.00     0.204 C 
HETATM   13  C   UNL     1       5.001  38.278  60.192  1.00  0.00     0.036 C 
HETATM   14  C   UNL     1       6.131  38.734  61.144  1.00  0.00     0.030 C 
HETATM   15  C   UNL     1       6.302  37.624  62.197  1.00  0.00     0.237 C 
HETATM   16  C   UNL     1       3.463  36.062  60.512  1.00  0.00     0.126 C 
HETATM   17  C   UNL     1       3.670  34.946  61.558  1.00  0.00     0.145 C 
HETATM   18  C   UNL     1       3.853  33.710  60.728  1.00  0.00     0.239 C 
HETATM   19  O   UNL     1       3.978  32.609  61.241  1.00  0.00    -0.272 OA
HETATM   20  N   UNL     1       4.009  34.086  59.411  1.00  0.00    -0.249 N 
HETATM   21  C   UNL     1       3.953  35.444  59.238  1.00  0.00     0.238 C 
HETATM   22  O   UNL     1       4.252  36.106  58.258  1.00  0.00    -0.272 OA
HETATM   23  C   UNL     1       7.041  33.582  64.856  1.00  0.00     0.031 A 
HETATM   24  C   UNL     1       7.903  32.811  64.075  1.00  0.00     0.009 A 
HETATM   25  H   UNL     1       5.055  35.325  65.777  1.00  0.00     0.169 HD
ENDROOT
BRANCH  20  26
HETATM   26  C   UNL     1       4.386  33.182  58.385  1.00  0.00     0.078 A 
HETATM   27  C   UNL     1       3.520  32.900  57.310  1.00  0.00     0.095 A 
HETATM   28  C   UNL     1       3.894  31.952  56.351  1.00  0.00     0.039 A 
HETATM   29  C   UNL     1       5.139  31.322  56.426  1.00  0.00     0.003 A 
HETATM   30  C   UNL     1       6.023  31.645  57.450  1.00  0.00     0.002 A 
HETATM   31  C   UNL     1       5.653  32.575  58.420  1.00  0.00     0.033 A 
BRANCH  27  32
HETATM   32  O   UNL     1       2.369  33.645  57.235  1.00  0.00    -0.354 OA
HETATM   33  C   UNL     1       2.113  34.288  55.989  1.00  0.00     0.210 C 
ENDBRANCH  27  32
ENDBRANCH  20  26
TORSDOF 2
ENDMDL
MODEL 4
REMARK VINA RESULT:      -8.3      3.301      8.685
REMARK  2 active torsions:
REMARK  status: ('A' for Active; 'I' for Inactive)
REMARK    1  A    between atoms: N_20  and  C_21 
REMARK    2  A    between atoms: C_22  and  O_23 
ROOT
HETATM    1  C   UNL     1       3.236  31.996  52.823  1.00  0.00     0.048 C 
HETATM    2  C   UNL     1       3.681  30.633  53.277  1.00  0.00    -0.061 A 
HETATM    3  C   UNL     1       4.510  30.487  54.403  1.00  0.00     0.019 A 
HETATM    4  C   UNL     1       4.857  29.207  54.812  1.00  0.00     0.016 A 
HETATM    5  C   UNL     1       4.389  28.099  54.096  1.00  0.00     0.044 A 
HETATM    6  N   UNL     1       4.868  26.923  54.647  1.00  0.00    -0.324 N 
HETATM    7  C   UNL     1       5.664  27.176  55.748  1.00  0.00     0.264 A 
HETATM    8  O   UNL     1       6.264  26.350  56.415  1.00  0.00    -0.270 OA
HETATM    9  C   UNL     1       5.761  28.738  55.921  1.00  0.00     0.250 A 
HETATM   10  N   UNL     1       7.189  29.238  55.711  1.00  0.00    -0.043 N 
HETATM   11  H   UNL     1       7.128  30.247  55.514  1.00  0.00     0.282 HD
HETATM   12  C   UNL     1       7.888  29.011  57.020  1.00  0.00     0.204 C 
HETATM   13  C   UNL     1       9.244  29.602  56.720  1.00  0.00     0.036 C 
HETATM   14  C   UNL     1       9.503  29.122  55.273  1.00  0.00     0.030 C 
HETATM   15  C   UNL     1       8.140  28.703  54.691  1.00  0.00     0.237 C 
HETATM   16  C   UNL     1       6.867  29.465  58.029  1.00  0.00     0.126 C 
HETATM   17  C   UNL     1       5.506  29.068  57.419  1.00  0.00     0.145 C 
HETATM   18  C   UNL     1       4.646  30.273  57.658  1.00  0.00     0.239 C 
HETATM   19  O   UNL     1       3.463  30.283  57.354  1.00  0.00    -0.272 OA
HETATM   20  N   UNL     1       5.450  31.309  58.084  1.00  0.00    -0.249 N 
HETATM   21  C   UNL     1       6.770  30.953  58.168  1.00  0.00     0.238 C 
HETATM   22  O   UNL     1       7.749  31.667  58.309  1.00  0.00    -0.272 OA
HETATM   23  C   UNL     1       3.579  28.208  52.986  1.00  0.00     0.031 A 
HETATM   24  C   UNL     1       3.224  29.495  52.580  1.00  0.00     0.009 A 
HETATM   25  H   UNL     1       4.654  25.991  54.310  1.00  0.00     0.169 HD
ENDROOT
BRANCH  20  26
HETATM   26  C   UNL     1       4.988  32.642  58.224  1.00  0.00     0.078 A 
HETATM   27  C   UNL     1       4.612  33.153  59.482  1.00  0.00     0.095 A 
HETATM   28  C   UNL     1       4.096  34.451  59.576  1.00  0.00     0.039 A 
HETATM   29  C   UNL     1       4.000  35.257  58.440  1.00  0.00     0.003 A 
HETATM   30  C   UNL     1       4.430  34.780  57.206  1.00  0.00     0.002 A 
HETATM   31  C   UNL     1       4.928  33.482  57.099  1.00  0.00     0.033 A 
BRANCH  27  32
HETATM   32  O   UNL     1       4.850  32.349  60.569  1.00  0.00    -0.354 OA
HETATM   33  C   UNL     1       3.824  32.305  61.559  1.00  0.00     0.210 C 
ENDBRANCH  27  32
ENDBRANCH  20  26
TORSDOF 2
ENDMDL
MODEL 5
REMARK VINA RESULT:      -8.0      2.682      5.533
REMARK  2 active torsions:
REMARK  status: ('A' for Active; 'I' for Inactive)
REMARK    1  A    between atoms: N_20  and  C_21 
REMARK    2  A    between atoms: C_22  and  O_23 
ROOT
HETATM    1  C   UNL     1       7.240  38.939  61.687  1.00  0.00     0.048 C 
HETATM    2  C   UNL     1       5.890  38.756  61.048  1.00  0.00    -0.061 A 
HETATM    3  C   UNL     1       5.246  37.508  61.077  1.00  0.00     0.019 A 
HETATM    4  C   UNL     1       3.981  37.398  60.516  1.00  0.00     0.016 A 
HETATM    5  C   UNL     1       3.384  38.519  59.927  1.00  0.00     0.044 A 
HETATM    6  N   UNL     1       2.143  38.194  59.405  1.00  0.00    -0.324 N 
HETATM    7  C   UNL     1       1.846  36.862  59.618  1.00  0.00     0.264 A 
HETATM    8  O   UNL     1       0.850  36.270  59.236  1.00  0.00    -0.270 OA
HETATM    9  C   UNL     1       3.080  36.205  60.341  1.00  0.00     0.250 A 
HETATM   10  N   UNL     1       3.743  35.142  59.467  1.00  0.00    -0.043 N 
HETATM   11  H   UNL     1       4.692  34.997  59.838  1.00  0.00     0.282 HD
HETATM   12  C   UNL     1       2.920  33.900  59.657  1.00  0.00     0.204 C 
HETATM   13  C   UNL     1       3.702  32.917  58.818  1.00  0.00     0.036 C 
HETATM   14  C   UNL     1       4.087  33.765  57.584  1.00  0.00     0.030 C 
HETATM   15  C   UNL     1       3.918  35.242  57.987  1.00  0.00     0.237 C 
HETATM   16  C   UNL     1       2.676  33.882  61.142  1.00  0.00     0.126 C 
HETATM   17  C   UNL     1       2.542  35.368  61.537  1.00  0.00     0.145 C 
HETATM   18  C   UNL     1       3.353  35.476  62.794  1.00  0.00     0.239 C 
HETATM   19  O   UNL     1       3.415  36.519  63.426  1.00  0.00    -0.272 OA
HETATM   20  N   UNL     1       4.073  34.311  62.952  1.00  0.00    -0.249 N 
HETATM   21  C   UNL     1       3.848  33.409  61.945  1.00  0.00     0.238 C 
HETATM   22  O   UNL     1       4.464  32.391  61.676  1.00  0.00    -0.272 OA
HETATM   23  C   UNL     1       3.990  39.755  59.878  1.00  0.00     0.031 A 
HETATM   24  C   UNL     1       5.259  39.867  60.450  1.00  0.00     0.009 A 
HETATM   25  H   UNL     1       1.516  38.843  58.943  1.00  0.00     0.169 HD
ENDROOT
BRANCH  20  26
HETATM   26  C   UNL     1       5.081  34.150  63.936  1.00  0.00     0.078 A 
HETATM   27  C   UNL     1       4.760  34.114  65.307  1.00  0.00     0.095 A 
HETATM   28  C   UNL     1       5.785  34.023  66.256  1.00  0.00     0.039 A 
HETATM   29  C   UNL     1       7.117  33.916  65.850  1.00  0.00     0.003 A 
HETATM   30  C   UNL     1       7.434  33.886  64.497  1.00  0.00     0.002 A 
HETATM   31  C   UNL     1       6.422  33.995  63.544  1.00  0.00     0.033 A 
BRANCH  27  32
HETATM   32  O   UNL     1       3.424  34.100  65.626  1.00  0.00    -0.354 OA
HETATM   33  C   UNL     1       2.989  35.076  66.570  1.00  0.00     0.210 C 
ENDBRANCH  27  32
ENDBRANCH  20  26
TORSDOF 2
ENDMDL
MODEL 6
REMARK VINA RESULT:      -7.8      5.570      8.426
REMARK  2 active torsions:
REMARK  status: ('A' for Active; 'I' for Inactive)
REMARK    1  A    between atoms: N_20  and  C_21 
REMARK    2  A    between atoms: C_22  and  O_23 
ROOT
HETATM    1  C   UNL     1       6.981  29.791  57.706  1.00  0.00     0.048 C 
HETATM    2  C   UNL     1       5.801  30.578  57.206  1.00  0.00    -0.061 A 
HETATM    3  C   UNL     1       5.485  30.605  55.837  1.00  0.00     0.019 A 
HETATM    4  C   UNL     1       4.359  31.307  55.427  1.00  0.00     0.016 A 
HETATM    5  C   UNL     1       3.576  31.976  56.375  1.00  0.00     0.044 A 
HETATM    6  N   UNL     1       2.522  32.633  55.763  1.00  0.00    -0.324 N 
HETATM    7  C   UNL     1       2.540  32.437  54.395  1.00  0.00     0.264 A 
HETATM    8  O   UNL     1       1.772  32.923  53.582  1.00  0.00    -0.270 OA
HETATM    9  C   UNL     1       3.806  31.567  54.051  1.00  0.00     0.250 A 
HETATM   10  N   UNL     1       4.807  32.344  53.198  1.00  0.00    -0.043 N 
HETATM   11  H   UNL     1       5.714  31.865  53.286  1.00  0.00     0.282 HD
HETATM   12  C   UNL     1       4.299  32.234  51.789  1.00  0.00     0.204 C 
HETATM   13  C   UNL     1       5.390  32.963  51.042  1.00  0.00     0.036 C 
HETATM   14  C   UNL     1       5.693  34.156  51.977  1.00  0.00     0.030 C 
HETATM   15  C   UNL     1       5.121  33.796  53.360  1.00  0.00     0.237 C 
HETATM   16  C   UNL     1       3.898  30.787  51.689  1.00  0.00     0.126 C 
HETATM   17  C   UNL     1       3.357  30.430  53.090  1.00  0.00     0.145 C 
HETATM   18  C   UNL     1       3.967  29.090  53.376  1.00  0.00     0.239 C 
HETATM   19  O   UNL     1       3.697  28.469  54.392  1.00  0.00    -0.272 OA
HETATM   20  N   UNL     1       4.929  28.834  52.422  1.00  0.00    -0.249 N 
HETATM   21  C   UNL     1       5.050  29.847  51.508  1.00  0.00     0.238 C 
HETATM   22  O   UNL     1       5.926  30.030  50.678  1.00  0.00    -0.272 OA
HETATM   23  C   UNL     1       3.860  31.972  57.723  1.00  0.00     0.031 A 
HETATM   24  C   UNL     1       4.988  31.260  58.136  1.00  0.00     0.009 A 
HETATM   25  H   UNL     1       1.812  33.173  56.244  1.00  0.00     0.169 HD
ENDROOT
BRANCH  20  26
HETATM   26  C   UNL     1       5.826  27.738  52.500  1.00  0.00     0.078 A 
HETATM   27  C   UNL     1       5.620  26.574  51.733  1.00  0.00     0.095 A 
HETATM   28  C   UNL     1       6.485  25.484  51.884  1.00  0.00     0.039 A 
HETATM   29  C   UNL     1       7.578  25.563  52.750  1.00  0.00     0.003 A 
HETATM   30  C   UNL     1       7.823  26.734  53.460  1.00  0.00     0.002 A 
HETATM   31  C   UNL     1       6.956  27.818  53.331  1.00  0.00     0.033 A 
BRANCH  27  32
HETATM   32  O   UNL     1       4.600  26.614  50.815  1.00  0.00    -0.354 OA
HETATM   33  C   UNL     1       4.985  26.630  49.443  1.00  0.00     0.210 C 
ENDBRANCH  27  32
ENDBRANCH  20  26
TORSDOF 2
ENDMDL
MODEL 7
REMARK VINA RESULT:      -7.8      2.494      4.261
REMARK  2 active torsions:
REMARK  status: ('A' for Active; 'I' for Inactive)
REMARK    1  A    between atoms: N_20  and  C_21 
REMARK    2  A    between atoms: C_22  and  O_23 
ROOT
HETATM    1  C   UNL     1       8.164  31.953  59.480  1.00  0.00     0.048 C 
HETATM    2  C   UNL     1       7.288  32.141  60.687  1.00  0.00    -0.061 A 
HETATM    3  C   UNL     1       6.206  33.038  60.657  1.00  0.00     0.019 A 
HETATM    4  C   UNL     1       5.397  33.145  61.780  1.00  0.00     0.016 A 
HETATM    5  C   UNL     1       5.679  32.373  62.913  1.00  0.00     0.044 A 
HETATM    6  N   UNL     1       4.776  32.645  63.927  1.00  0.00    -0.324 N 
HETATM    7  C   UNL     1       3.853  33.594  63.530  1.00  0.00     0.264 A 
HETATM    8  O   UNL     1       2.963  34.072  64.214  1.00  0.00    -0.270 OA
HETATM    9  C   UNL     1       4.224  34.044  62.068  1.00  0.00     0.250 A 
HETATM   10  N   UNL     1       4.637  35.513  62.020  1.00  0.00    -0.043 N 
HETATM   11  H   UNL     1       5.163  35.650  61.146  1.00  0.00     0.282 HD
HETATM   12  C   UNL     1       3.351  36.287  61.973  1.00  0.00     0.204 C 
HETATM   13  C   UNL     1       3.877  37.697  61.854  1.00  0.00     0.036 C 
HETATM   14  C   UNL     1       5.081  37.685  62.823  1.00  0.00     0.030 C 
HETATM   15  C   UNL     1       5.443  36.208  63.068  1.00  0.00     0.237 C 
HETATM   16  C   UNL     1       2.524  35.506  60.986  1.00  0.00     0.126 C 
HETATM   17  C   UNL     1       2.921  34.033  61.220  1.00  0.00     0.145 C 
HETATM   18  C   UNL     1       3.079  33.484  59.833  1.00  0.00     0.239 C 
HETATM   19  O   UNL     1       3.330  32.305  59.639  1.00  0.00    -0.272 OA
HETATM   20  N   UNL     1       3.055  34.534  58.941  1.00  0.00    -0.249 N 
HETATM   21  C   UNL     1       2.897  35.748  59.556  1.00  0.00     0.238 C 
HETATM   22  O   UNL     1       3.038  36.867  59.092  1.00  0.00    -0.272 OA
HETATM   23  C   UNL     1       6.733  31.488  62.977  1.00  0.00     0.031 A 
HETATM   24  C   UNL     1       7.542  31.376  61.845  1.00  0.00     0.009 A 
HETATM   25  H   UNL     1       4.768  32.200  64.837  1.00  0.00     0.169 HD
ENDROOT
BRANCH  20  26
HETATM   26  C   UNL     1       3.363  34.389  57.564  1.00  0.00     0.078 A 
HETATM   27  C   UNL     1       2.351  34.435  56.584  1.00  0.00     0.095 A 
HETATM   28  C   UNL     1       2.679  34.220  55.241  1.00  0.00     0.039 A 
HETATM   29  C   UNL     1       4.007  34.011  54.861  1.00  0.00     0.003 A 
HETATM   30  C   UNL     1       5.017  34.029  55.817  1.00  0.00     0.002 A 
HETATM   31  C   UNL     1       4.698  34.224  57.160  1.00  0.00     0.033 A 
BRANCH  27  32
HETATM   32  O   UNL     1       1.090  34.767  57.016  1.00  0.00    -0.354 OA
HETATM   33  C   UNL     1       0.142  35.096  56.004  1.00  0.00     0.210 C 
ENDBRANCH  27  32
ENDBRANCH  20  26
TORSDOF 2
ENDMDL
MODEL 8
REMARK VINA RESULT:      -7.7      9.888     13.209
REMARK  2 active torsions:
REMARK  status: ('A' for Active; 'I' for Inactive)
REMARK    1  A    between atoms: N_20  and  C_21 
REMARK    2  A    between atoms: C_22  and  O_23 
ROOT
HETATM    1  C   UNL     1       3.993  29.146  54.051  1.00  0.00     0.048 C 
HETATM    2  C   UNL     1       4.268  28.285  52.849  1.00  0.00    -0.061 A 
HETATM    3  C   UNL     1       4.134  28.803  51.549  1.00  0.00     0.019 A 
HETATM    4  C   UNL     1       4.444  27.985  50.471  1.00  0.00     0.016 A 
HETATM    5  C   UNL     1       4.869  26.671  50.697  1.00  0.00     0.044 A 
HETATM    6  N   UNL     1       5.100  26.019  49.498  1.00  0.00    -0.324 N 
HETATM    7  C   UNL     1       4.853  26.850  48.422  1.00  0.00     0.264 A 
HETATM    8  O   UNL     1       4.922  26.551  47.242  1.00  0.00    -0.270 OA
HETATM    9  C   UNL     1       4.345  28.228  48.989  1.00  0.00     0.250 A 
HETATM   10  N   UNL     1       2.901  28.507  48.576  1.00  0.00    -0.043 N 
HETATM   11  H   UNL     1       2.536  29.221  49.221  1.00  0.00     0.282 HD
HETATM   12  C   UNL     1       2.984  29.065  47.184  1.00  0.00     0.204 C 
HETATM   13  C   UNL     1       1.529  29.367  46.917  1.00  0.00     0.036 C 
HETATM   14  C   UNL     1       0.817  28.143  47.536  1.00  0.00     0.030 C 
HETATM   15  C   UNL     1       1.823  27.476  48.493  1.00  0.00     0.237 C 
HETATM   16  C   UNL     1       4.141  30.023  47.275  1.00  0.00     0.126 C 
HETATM   17  C   UNL     1       5.126  29.360  48.261  1.00  0.00     0.145 C 
HETATM   18  C   UNL     1       5.559  30.491  49.145  1.00  0.00     0.239 C 
HETATM   19  O   UNL     1       6.403  30.335  50.014  1.00  0.00    -0.272 OA
HETATM   20  N   UNL     1       4.748  31.577  48.896  1.00  0.00    -0.249 N 
HETATM   21  C   UNL     1       3.803  31.323  47.937  1.00  0.00     0.238 C 
HETATM   22  O   UNL     1       2.821  31.981  47.635  1.00  0.00    -0.272 OA
HETATM   23  C   UNL     1       5.006  26.132  51.958  1.00  0.00     0.031 A 
HETATM   24  C   UNL     1       4.702  26.956  53.042  1.00  0.00     0.009 A 
HETATM   25  H   UNL     1       5.428  25.063  49.406  1.00  0.00     0.169 HD
ENDROOT
BRANCH  20  26
HETATM   26  C   UNL     1       4.764  32.754  49.688  1.00  0.00     0.078 A 
HETATM   27  C   UNL     1       5.505  33.886  49.293  1.00  0.00     0.095 A 
HETATM   28  C   UNL     1       5.554  35.007  50.130  1.00  0.00     0.039 A 
HETATM   29  C   UNL     1       4.834  35.029  51.326  1.00  0.00     0.003 A 
HETATM   30  C   UNL     1       4.049  33.939  51.688  1.00  0.00     0.002 A 
HETATM   31  C   UNL     1       4.008  32.811  50.871  1.00  0.00     0.033 A 
BRANCH  27  32
HETATM   32  O   UNL     1       6.086  33.838  48.050  1.00  0.00    -0.354 OA
HETATM   33  C   UNL     1       7.507  33.953  48.012  1.00  0.00     0.210 C 
ENDBRANCH  27  32
ENDBRANCH  20  26
TORSDOF 2
ENDMDL
MODEL 9
REMARK VINA RESULT:      -7.6      3.343      5.483
REMARK  2 active torsions:
REMARK  status: ('A' for Active; 'I' for Inactive)
REMARK    1  A    between atoms: N_20  and  C_21 
REMARK    2  A    between atoms: C_22  and  O_23 
ROOT
HETATM    1  C   UNL     1       9.753  30.674  58.418  1.00  0.00     0.048 C 
HETATM    2  C   UNL     1       8.455  31.143  59.016  1.00  0.00    -0.061 A 
HETATM    3  C   UNL     1       7.285  31.197  58.239  1.00  0.00     0.019 A 
HETATM    4  C   UNL     1       6.101  31.592  58.846  1.00  0.00     0.016 A 
HETATM    5  C   UNL     1       6.098  31.936  60.202  1.00  0.00     0.044 A 
HETATM    6  N   UNL     1       4.832  32.325  60.606  1.00  0.00    -0.324 N 
HETATM    7  C   UNL     1       3.933  32.257  59.559  1.00  0.00     0.264 A 
HETATM    8  O   UNL     1       2.756  32.578  59.590  1.00  0.00    -0.270 OA
HETATM    9  C   UNL     1       4.724  31.804  58.275  1.00  0.00     0.250 A 
HETATM   10  N   UNL     1       4.736  32.896  57.208  1.00  0.00    -0.043 N 
HETATM   11  H   UNL     1       5.511  32.681  56.566  1.00  0.00     0.282 HD
HETATM   12  C   UNL     1       3.423  32.769  56.492  1.00  0.00     0.204 C 
HETATM   13  C   UNL     1       3.579  33.831  55.431  1.00  0.00     0.036 C 
HETATM   14  C   UNL     1       4.265  34.979  56.208  1.00  0.00     0.030 C 
HETATM   15  C   UNL     1       4.860  34.359  57.485  1.00  0.00     0.237 C 
HETATM   16  C   UNL     1       3.279  31.281  56.317  1.00  0.00     0.126 C 
HETATM   17  C   UNL     1       3.909  30.672  57.587  1.00  0.00     0.145 C 
HETATM   18  C   UNL     1       4.734  29.534  57.065  1.00  0.00     0.239 C 
HETATM   19  O   UNL     1       5.330  28.779  57.817  1.00  0.00    -0.272 OA
HETATM   20  N   UNL     1       4.800  29.635  55.691  1.00  0.00    -0.249 N 
HETATM   21  C   UNL     1       4.111  30.716  55.207  1.00  0.00     0.238 C 
HETATM   22  O   UNL     1       4.136  31.202  54.089  1.00  0.00    -0.272 OA
HETATM   23  C   UNL     1       7.228  31.897  60.990  1.00  0.00     0.031 A 
HETATM   24  C   UNL     1       8.417  31.493  60.382  1.00  0.00     0.009 A 
HETATM   25  H   UNL     1       4.579  32.605  61.547  1.00  0.00     0.169 HD
ENDROOT
BRANCH  20  26
HETATM   26  C   UNL     1       5.651  28.828  54.894  1.00  0.00     0.078 A 
HETATM   27  C   UNL     1       5.121  27.909  53.966  1.00  0.00     0.095 A 
HETATM   28  C   UNL     1       5.987  27.079  53.244  1.00  0.00     0.039 A 
HETATM   29  C   UNL     1       7.370  27.191  53.401  1.00  0.00     0.003 A 
HETATM   30  C   UNL     1       7.899  28.141  54.268  1.00  0.00     0.002 A 
HETATM   31  C   UNL     1       7.045  28.960  55.005  1.00  0.00     0.033 A 
BRANCH  27  32
HETATM   32  O   UNL     1       3.762  27.940  53.777  1.00  0.00    -0.354 OA
HETATM   33  C   UNL     1       3.312  28.356  52.489  1.00  0.00     0.210 C 
ENDBRANCH  27  32
ENDBRANCH  20  26
TORSDOF 2
ENDMDL
MODEL 10
REMARK VINA RESULT:      -7.3      4.433      7.115
REMARK  2 active torsions:
REMARK  status: ('A' for Active; 'I' for Inactive)
REMARK    1  A    between atoms: N_20  and  C_21 
REMARK    2  A    between atoms: C_22  and  O_23 
ROOT
HETATM    1  C   UNL     1       8.511  29.922  58.233  1.00  0.00     0.048 C 
HETATM    2  C   UNL     1       7.230  30.703  58.127  1.00  0.00    -0.061 A 
HETATM    3  C   UNL     1       6.423  30.606  56.981  1.00  0.00     0.019 A 
HETATM    4  C   UNL     1       5.227  31.309  56.947  1.00  0.00     0.016 A 
HETATM    5  C   UNL     1       4.857  32.101  58.040  1.00  0.00     0.044 A 
HETATM    6  N   UNL     1       3.651  32.736  57.798  1.00  0.00    -0.324 N 
HETATM    7  C   UNL     1       3.154  32.403  56.553  1.00  0.00     0.264 A 
HETATM    8  O   UNL     1       2.136  32.837  56.038  1.00  0.00    -0.270 OA
HETATM    9  C   UNL     1       4.198  31.452  55.858  1.00  0.00     0.250 A 
HETATM   10  N   UNL     1       4.805  32.098  54.614  1.00  0.00    -0.043 N 
HETATM   11  H   UNL     1       5.678  31.593  54.408  1.00  0.00     0.282 HD
HETATM   12  C   UNL     1       3.805  31.868  53.517  1.00  0.00     0.204 C 
HETATM   13  C   UNL     1       4.536  32.473  52.342  1.00  0.00     0.036 C 
HETATM   14  C   UNL     1       5.169  33.740  52.961  1.00  0.00     0.030 C 
HETATM   15  C   UNL     1       5.158  33.544  54.489  1.00  0.00     0.237 C 
HETATM   16  C   UNL     1       3.395  30.435  53.731  1.00  0.00     0.126 C 
HETATM   17  C   UNL     1       3.420  30.244  55.263  1.00  0.00     0.145 C 
HETATM   18  C   UNL     1       4.091  28.915  55.444  1.00  0.00     0.239 C 
HETATM   19  O   UNL     1       4.222  28.411  56.549  1.00  0.00    -0.272 OA
HETATM   20  N   UNL     1       4.624  28.525  54.234  1.00  0.00    -0.249 N 
HETATM   21  C   UNL     1       4.394  29.436  53.237  1.00  0.00     0.238 C 
HETATM   22  O   UNL     1       4.894  29.498  52.125  1.00  0.00    -0.272 OA
HETATM   23  C   UNL     1       5.627  32.221  59.177  1.00  0.00     0.031 A 
HETATM   24  C   UNL     1       6.826  31.508  59.213  1.00  0.00     0.009 A 
HETATM   25  H   UNL     1       3.174  33.351  58.448  1.00  0.00     0.169 HD
ENDROOT
BRANCH  20  26
HETATM   26  C   UNL     1       5.485  27.407  54.090  1.00  0.00     0.078 A 
HETATM   27  C   UNL     1       6.876  27.532  54.270  1.00  0.00     0.095 A 
HETATM   28  C   UNL     1       7.704  26.425  54.054  1.00  0.00     0.039 A 
HETATM   29  C   UNL     1       7.156  25.187  53.710  1.00  0.00     0.003 A 
HETATM   30  C   UNL     1       5.777  25.043  53.594  1.00  0.00     0.002 A 
HETATM   31  C   UNL     1       4.945  26.145  53.789  1.00  0.00     0.033 A 
BRANCH  27  32
HETATM   32  O   UNL     1       7.331  28.745  54.727  1.00  0.00    -0.354 OA
HETATM   33  C   UNL     1       8.741  28.866  54.901  1.00  0.00     0.210 C 
ENDBRANCH  27  32
ENDBRANCH  20  26
TORSDOF 2
ENDMDL
