MODEL 1
REMARK VINA RESULT:      -7.3      0.000      0.000
REMARK  3 active torsions:
REMARK  status: ('A' for Active; 'I' for Inactive)
REMARK    1  A    between atoms: C_4  and  N_5 
REMARK    2  A    between atoms: N_5  and  C_6 
REMARK    3  A    between atoms: C_14  and  C_15 
REMARK       I    between atoms: C_15  and  N_16 
ROOT
HETATM    1  C   UNL     1       4.289  28.507  55.774  1.00  0.00     0.020 A 
HETATM    2  C   UNL     1       4.492  27.780  54.618  1.00  0.00     0.119 A 
HETATM    3  N   UNL     1       5.566  26.988  54.405  1.00  0.00    -0.242 NA
HETATM    4  C   UNL     1       6.518  26.903  55.368  1.00  0.00     0.143 A 
HETATM    5  C   UNL     1       6.371  27.600  56.579  1.00  0.00     0.077 A 
HETATM    6  C   UNL     1       5.247  28.414  56.776  1.00  0.00     0.022 A 
ENDROOT
BRANCH   4   7
HETATM    7  N   UNL     1       7.633  26.055  55.173  1.00  0.00    -0.339 N 
HETATM    8  H   UNL     1       8.427  26.591  54.806  1.00  0.00     0.167 HD
BRANCH   7   9
HETATM    9  C   UNL     1       7.666  24.699  54.779  1.00  0.00     0.055 A 
HETATM   10  C   UNL     1       7.866  24.347  53.428  1.00  0.00     0.062 A 
HETATM   11 CL   UNL     1       8.022  25.570  52.212  1.00  0.00    -0.082 Cl
HETATM   12  C   UNL     1       7.931  23.012  53.024  1.00  0.00     0.050 A 
HETATM   13  C   UNL     1       7.811  22.004  53.974  1.00  0.00     0.035 A 
HETATM   14 CL   UNL     1       7.896  20.355  53.489  1.00  0.00    -0.084 Cl
HETATM   15  C   UNL     1       7.628  22.320  55.317  1.00  0.00     0.026 A 
HETATM   16  C   UNL     1       7.558  23.659  55.713  1.00  0.00     0.033 A 
ENDBRANCH   7   9
ENDBRANCH   4   7
BRANCH   5  17
HETATM   17  C   UNL     1       7.418  27.521  57.623  1.00  0.00     0.253 C 
HETATM   18  N   UNL     1       7.961  28.700  58.055  1.00  0.00    -0.366 N 
HETATM   19  H   UNL     1       7.533  29.596  57.868  1.00  0.00     0.159 HD
HETATM   20  H   UNL     1       8.590  28.640  58.847  1.00  0.00     0.159 HD
HETATM   21  O   UNL     1       7.774  26.446  58.092  1.00  0.00    -0.268 OA
ENDBRANCH   5  17
TORSDOF 3
ENDMDL
MODEL 2
REMARK VINA RESULT:      -7.2      1.797      2.776
REMARK  3 active torsions:
REMARK  status: ('A' for Active; 'I' for Inactive)
REMARK    1  A    between atoms: C_4  and  N_5 
REMARK    2  A    between atoms: N_5  and  C_6 
REMARK    3  A    between atoms: C_14  and  C_15 
REMARK       I    between atoms: C_15  and  N_16 
ROOT
HETATM    1  C   UNL     1       4.745  28.693  56.581  1.00  0.00     0.020 A 
HETATM    2  C   UNL     1       5.958  28.301  57.112  1.00  0.00     0.119 A 
HETATM    3  N   UNL     1       6.837  27.501  56.470  1.00  0.00    -0.242 NA
HETATM    4  C   UNL     1       6.518  27.034  55.236  1.00  0.00     0.143 A 
HETATM    5  C   UNL     1       5.308  27.405  54.625  1.00  0.00     0.077 A 
HETATM    6  C   UNL     1       4.413  28.237  55.312  1.00  0.00     0.022 A 
ENDROOT
BRANCH   4   7
HETATM    7  N   UNL     1       7.441  26.221  54.538  1.00  0.00    -0.339 N 
HETATM    8  H   UNL     1       7.682  26.649  53.637  1.00  0.00     0.167 HD
BRANCH   7   9
HETATM    9  C   UNL     1       7.552  24.813  54.514  1.00  0.00     0.055 A 
HETATM   10  C   UNL     1       7.727  24.125  53.295  1.00  0.00     0.062 A 
HETATM   11 CL   UNL     1       7.755  24.986  51.793  1.00  0.00    -0.082 Cl
HETATM   12  C   UNL     1       7.869  22.736  53.255  1.00  0.00     0.050 A 
HETATM   13  C   UNL     1       7.851  22.013  54.443  1.00  0.00     0.035 A 
HETATM   14 CL   UNL     1       8.031  20.302  54.407  1.00  0.00    -0.084 Cl
HETATM   15  C   UNL     1       7.695  22.665  55.662  1.00  0.00     0.026 A 
HETATM   16  C   UNL     1       7.549  24.056  55.694  1.00  0.00     0.033 A 
ENDBRANCH   7   9
ENDBRANCH   4   7
BRANCH   5  17
HETATM   17  C   UNL     1       4.952  26.881  53.286  1.00  0.00     0.253 C 
HETATM   18  N   UNL     1       4.103  25.810  53.239  1.00  0.00    -0.366 N 
HETATM   19  H   UNL     1       3.550  25.520  54.034  1.00  0.00     0.159 HD
HETATM   20  H   UNL     1       3.777  25.535  52.320  1.00  0.00     0.159 HD
HETATM   21  O   UNL     1       5.387  27.395  52.262  1.00  0.00    -0.268 OA
ENDBRANCH   5  17
TORSDOF 3
ENDMDL
MODEL 3
REMARK VINA RESULT:      -7.1      6.045      9.079
REMARK  3 active torsions:
REMARK  status: ('A' for Active; 'I' for Inactive)
REMARK    1  A    between atoms: C_4  and  N_5 
REMARK    2  A    between atoms: N_5  and  C_6 
REMARK    3  A    between atoms: C_14  and  C_15 
REMARK       I    between atoms: C_15  and  N_16 
ROOT
HETATM    1  C   UNL     1      10.648  29.841  56.726  1.00  0.00     0.020 A 
HETATM    2  C   UNL     1      10.670  30.866  57.652  1.00  0.00     0.119 A 
HETATM    3  N   UNL     1       9.695  31.079  58.562  1.00  0.00    -0.242 NA
HETATM    4  C   UNL     1       8.616  30.255  58.572  1.00  0.00     0.143 A 
HETATM    5  C   UNL     1       8.534  29.178  57.672  1.00  0.00     0.077 A 
HETATM    6  C   UNL     1       9.560  28.979  56.737  1.00  0.00     0.022 A 
ENDROOT
BRANCH   4   7
HETATM    7  N   UNL     1       7.602  30.445  59.539  1.00  0.00    -0.339 N 
HETATM    8  H   UNL     1       6.678  30.433  59.092  1.00  0.00     0.167 HD
BRANCH   7   9
HETATM    9  C   UNL     1       7.624  31.226  60.715  1.00  0.00     0.055 A 
HETATM   10  C   UNL     1       6.772  32.341  60.856  1.00  0.00     0.062 A 
HETATM   11 CL   UNL     1       5.716  32.811  59.566  1.00  0.00    -0.082 Cl
HETATM   12  C   UNL     1       6.759  33.107  62.024  1.00  0.00     0.050 A 
HETATM   13  C   UNL     1       7.593  32.757  63.079  1.00  0.00     0.035 A 
HETATM   14 CL   UNL     1       7.581  33.690  64.526  1.00  0.00    -0.084 Cl
HETATM   15  C   UNL     1       8.435  31.654  62.976  1.00  0.00     0.026 A 
HETATM   16  C   UNL     1       8.446  30.894  61.802  1.00  0.00     0.033 A 
ENDBRANCH   7   9
ENDBRANCH   4   7
BRANCH   5  17
HETATM   17  C   UNL     1       7.350  28.289  57.671  1.00  0.00     0.253 C 
HETATM   18  N   UNL     1       7.578  26.942  57.738  1.00  0.00    -0.366 N 
HETATM   19  H   UNL     1       8.472  26.556  58.009  1.00  0.00     0.159 HD
HETATM   20  H   UNL     1       6.762  26.354  57.852  1.00  0.00     0.159 HD
HETATM   21  O   UNL     1       6.212  28.741  57.628  1.00  0.00    -0.268 OA
ENDBRANCH   5  17
TORSDOF 3
ENDMDL
MODEL 4
REMARK VINA RESULT:      -7.1      1.863      2.373
REMARK  3 active torsions:
REMARK  status: ('A' for Active; 'I' for Inactive)
REMARK    1  A    between atoms: C_4  and  N_5 
REMARK    2  A    between atoms: N_5  and  C_6 
REMARK    3  A    between atoms: C_14  and  C_15 
REMARK       I    between atoms: C_15  and  N_16 
ROOT
HETATM    1  C   UNL     1       4.227  28.783  53.383  1.00  0.00     0.020 A 
HETATM    2  C   UNL     1       5.204  28.316  52.526  1.00  0.00     0.119 A 
HETATM    3  N   UNL     1       6.214  27.504  52.907  1.00  0.00    -0.242 NA
HETATM    4  C   UNL     1       6.297  27.128  54.209  1.00  0.00     0.143 A 
HETATM    5  C   UNL     1       5.327  27.548  55.135  1.00  0.00     0.077 A 
HETATM    6  C   UNL     1       4.288  28.390  54.714  1.00  0.00     0.022 A 
ENDROOT
BRANCH   4   7
HETATM    7  N   UNL     1       7.330  26.253  54.618  1.00  0.00    -0.339 N 
HETATM    8  H   UNL     1       8.212  26.767  54.717  1.00  0.00     0.167 HD
BRANCH   7   9
HETATM    9  C   UNL     1       7.530  24.893  54.293  1.00  0.00     0.055 A 
HETATM   10  C   UNL     1       7.587  23.912  55.304  1.00  0.00     0.062 A 
HETATM   11 CL   UNL     1       7.468  24.358  56.973  1.00  0.00    -0.082 Cl
HETATM   12  C   UNL     1       7.754  22.559  55.000  1.00  0.00     0.050 A 
HETATM   13  C   UNL     1       7.853  22.165  53.670  1.00  0.00     0.035 A 
HETATM   14 CL   UNL     1       8.053  20.500  53.283  1.00  0.00    -0.084 Cl
HETATM   15  C   UNL     1       7.786  23.108  52.650  1.00  0.00     0.026 A 
HETATM   16  C   UNL     1       7.623  24.461  52.962  1.00  0.00     0.033 A 
ENDBRANCH   7   9
ENDBRANCH   4   7
BRANCH   5  17
HETATM   17  C   UNL     1       5.426  27.151  56.558  1.00  0.00     0.253 C 
HETATM   18  N   UNL     1       4.498  26.261  57.026  1.00  0.00    -0.366 N 
HETATM   19  H   UNL     1       3.915  25.711  56.410  1.00  0.00     0.159 HD
HETATM   20  H   UNL     1       4.645  25.911  57.965  1.00  0.00     0.159 HD
HETATM   21  O   UNL     1       6.311  27.588  57.284  1.00  0.00    -0.268 OA
ENDBRANCH   5  17
TORSDOF 3
ENDMDL
MODEL 5
REMARK VINA RESULT:      -6.9      3.073      5.997
REMARK  3 active torsions:
REMARK  status: ('A' for Active; 'I' for Inactive)
REMARK    1  A    between atoms: C_4  and  N_5 
REMARK    2  A    between atoms: N_5  and  C_6 
REMARK    3  A    between atoms: C_14  and  C_15 
REMARK       I    between atoms: C_15  and  N_16 
ROOT
HETATM    1  C   UNL     1       8.596  21.463  53.760  1.00  0.00     0.020 A 
HETATM    2  C   UNL     1       8.396  21.636  55.115  1.00  0.00     0.119 A 
HETATM    3  N   UNL     1       7.659  22.637  55.645  1.00  0.00    -0.242 NA
HETATM    4  C   UNL     1       7.088  23.543  54.810  1.00  0.00     0.143 A 
HETATM    5  C   UNL     1       7.234  23.419  53.418  1.00  0.00     0.077 A 
HETATM    6  C   UNL     1       8.002  22.371  52.893  1.00  0.00     0.022 A 
ENDROOT
BRANCH   4   7
HETATM    7  N   UNL     1       6.289  24.578  55.347  1.00  0.00    -0.339 N 
HETATM    8  H   UNL     1       5.475  24.747  54.745  1.00  0.00     0.167 HD
BRANCH   7   9
HETATM    9  C   UNL     1       6.681  25.731  56.063  1.00  0.00     0.055 A 
HETATM   10  C   UNL     1       6.171  27.000  55.720  1.00  0.00     0.062 A 
HETATM   11 CL   UNL     1       5.092  27.183  54.378  1.00  0.00    -0.082 Cl
HETATM   12  C   UNL     1       6.525  28.147  56.435  1.00  0.00     0.050 A 
HETATM   13  C   UNL     1       7.388  28.036  57.519  1.00  0.00     0.035 A 
HETATM   14 CL   UNL     1       7.826  29.441  58.412  1.00  0.00    -0.084 Cl
HETATM   15  C   UNL     1       7.896  26.795  57.891  1.00  0.00     0.026 A 
HETATM   16  C   UNL     1       7.541  25.652  57.167  1.00  0.00     0.033 A 
ENDBRANCH   7   9
ENDBRANCH   4   7
BRANCH   5  17
HETATM   17  C   UNL     1       6.625  24.417  52.508  1.00  0.00     0.253 C 
HETATM   18  N   UNL     1       7.475  25.157  51.733  1.00  0.00    -0.366 N 
HETATM   19  H   UNL     1       8.442  24.902  51.592  1.00  0.00     0.159 HD
HETATM   20  H   UNL     1       7.043  25.752  51.036  1.00  0.00     0.159 HD
HETATM   21  O   UNL     1       5.411  24.564  52.441  1.00  0.00    -0.268 OA
ENDBRANCH   5  17
TORSDOF 3
ENDMDL
MODEL 6
REMARK VINA RESULT:      -6.8      2.378      3.254
REMARK  3 active torsions:
REMARK  status: ('A' for Active; 'I' for Inactive)
REMARK    1  A    between atoms: C_4  and  N_5 
REMARK    2  A    between atoms: N_5  and  C_6 
REMARK    3  A    between atoms: C_14  and  C_15 
REMARK       I    between atoms: C_15  and  N_16 
ROOT
HETATM    1  C   UNL     1       8.585  30.016  57.407  1.00  0.00     0.020 A 
HETATM    2  C   UNL     1       9.298  28.833  57.377  1.00  0.00     0.119 A 
HETATM    3  N   UNL     1       8.728  27.614  57.252  1.00  0.00    -0.242 NA
HETATM    4  C   UNL     1       7.376  27.529  57.167  1.00  0.00     0.143 A 
HETATM    5  C   UNL     1       6.587  28.691  57.173  1.00  0.00     0.077 A 
HETATM    6  C   UNL     1       7.202  29.944  57.302  1.00  0.00     0.022 A 
ENDROOT
BRANCH   4   7
HETATM    7  N   UNL     1       6.767  26.262  57.006  1.00  0.00    -0.339 N 
HETATM    8  H   UNL     1       6.521  25.867  57.920  1.00  0.00     0.167 HD
BRANCH   7   9
HETATM    9  C   UNL     1       7.018  25.267  56.036  1.00  0.00     0.055 A 
HETATM   10  C   UNL     1       7.988  24.268  56.264  1.00  0.00     0.062 A 
HETATM   11 CL   UNL     1       8.932  24.271  57.715  1.00  0.00    -0.082 Cl
HETATM   12  C   UNL     1       8.229  23.259  55.329  1.00  0.00     0.050 A 
HETATM   13  C   UNL     1       7.488  23.226  54.153  1.00  0.00     0.035 A 
HETATM   14 CL   UNL     1       7.772  21.983  52.997  1.00  0.00    -0.084 Cl
HETATM   15  C   UNL     1       6.514  24.189  53.907  1.00  0.00     0.026 A 
HETATM   16  C   UNL     1       6.282  25.199  54.845  1.00  0.00     0.033 A 
ENDBRANCH   7   9
ENDBRANCH   4   7
BRANCH   5  17
HETATM   17  C   UNL     1       5.111  28.596  57.097  1.00  0.00     0.253 C 
HETATM   18  N   UNL     1       4.389  29.352  57.980  1.00  0.00    -0.366 N 
HETATM   19  H   UNL     1       4.798  30.113  58.504  1.00  0.00     0.159 HD
HETATM   20  H   UNL     1       3.385  29.366  57.843  1.00  0.00     0.159 HD
HETATM   21  O   UNL     1       4.558  27.884  56.268  1.00  0.00    -0.268 OA
ENDBRANCH   5  17
TORSDOF 3
ENDMDL
MODEL 7
REMARK VINA RESULT:      -6.7      3.377      5.253
REMARK  3 active torsions:
REMARK  status: ('A' for Active; 'I' for Inactive)
REMARK    1  A    between atoms: C_4  and  N_5 
REMARK    2  A    between atoms: N_5  and  C_6 
REMARK    3  A    between atoms: C_14  and  C_15 
REMARK       I    between atoms: C_15  and  N_16 
ROOT
HETATM    1  C   UNL     1       8.982  31.905  59.474  1.00  0.00     0.020 A 
HETATM    2  C   UNL     1       7.950  31.016  59.704  1.00  0.00     0.119 A 
HETATM    3  N   UNL     1       7.807  29.843  59.048  1.00  0.00    -0.242 NA
HETATM    4  C   UNL     1       8.714  29.511  58.095  1.00  0.00     0.143 A 
HETATM    5  C   UNL     1       9.802  30.357  57.820  1.00  0.00     0.077 A 
HETATM    6  C   UNL     1       9.928  31.568  58.514  1.00  0.00     0.022 A 
ENDROOT
BRANCH   4   7
HETATM    7  N   UNL     1       8.596  28.272  57.422  1.00  0.00    -0.339 N 
HETATM    8  H   UNL     1       9.521  27.845  57.298  1.00  0.00     0.167 HD
BRANCH   7   9
HETATM    9  C   UNL     1       7.682  27.885  56.416  1.00  0.00     0.055 A 
HETATM   10  C   UNL     1       7.247  26.548  56.316  1.00  0.00     0.062 A 
HETATM   11 CL   UNL     1       7.863  25.337  57.389  1.00  0.00    -0.082 Cl
HETATM   12  C   UNL     1       6.321  26.152  55.347  1.00  0.00     0.050 A 
HETATM   13  C   UNL     1       5.805  27.099  54.470  1.00  0.00     0.035 A 
HETATM   14 CL   UNL     1       4.659  26.625  53.276  1.00  0.00    -0.084 Cl
HETATM   15  C   UNL     1       6.205  28.429  54.554  1.00  0.00     0.026 A 
HETATM   16  C   UNL     1       7.135  28.817  55.523  1.00  0.00     0.033 A 
ENDBRANCH   7   9
ENDBRANCH   4   7
BRANCH   5  17
HETATM   17  C   UNL     1      10.782  30.002  56.767  1.00  0.00     0.253 C 
HETATM   18  N   UNL     1      12.045  29.671  57.175  1.00  0.00    -0.366 N 
HETATM   19  H   UNL     1      12.263  29.444  58.135  1.00  0.00     0.159 HD
HETATM   20  H   UNL     1      12.670  29.321  56.459  1.00  0.00     0.159 HD
HETATM   21  O   UNL     1      10.471  29.990  55.583  1.00  0.00    -0.268 OA
ENDBRANCH   5  17
TORSDOF 3
ENDMDL
MODEL 8
REMARK VINA RESULT:      -6.6      3.196      6.219
REMARK  3 active torsions:
REMARK  status: ('A' for Active; 'I' for Inactive)
REMARK    1  A    between atoms: C_4  and  N_5 
REMARK    2  A    between atoms: N_5  and  C_6 
REMARK    3  A    between atoms: C_14  and  C_15 
REMARK       I    between atoms: C_15  and  N_16 
ROOT
HETATM    1  C   UNL     1       8.211  22.524  53.587  1.00  0.00     0.020 A 
HETATM    2  C   UNL     1       8.617  23.203  54.719  1.00  0.00     0.119 A 
HETATM    3  N   UNL     1       8.180  24.437  55.054  1.00  0.00    -0.242 NA
HETATM    4  C   UNL     1       7.302  25.066  54.232  1.00  0.00     0.143 A 
HETATM    5  C   UNL     1       6.830  24.429  53.072  1.00  0.00     0.077 A 
HETATM    6  C   UNL     1       7.298  23.148  52.747  1.00  0.00     0.022 A 
ENDROOT
BRANCH   4   7
HETATM    7  N   UNL     1       6.811  26.345  54.585  1.00  0.00    -0.339 N 
HETATM    8  H   UNL     1       6.383  26.798  53.770  1.00  0.00     0.167 HD
BRANCH   7   9
HETATM    9  C   UNL     1       7.329  27.276  55.512  1.00  0.00     0.055 A 
HETATM   10  C   UNL     1       7.087  27.126  56.894  1.00  0.00     0.062 A 
HETATM   11 CL   UNL     1       6.105  25.827  57.481  1.00  0.00    -0.082 Cl
HETATM   12  C   UNL     1       7.616  28.020  57.828  1.00  0.00     0.050 A 
HETATM   13  C   UNL     1       8.410  29.075  57.391  1.00  0.00     0.035 A 
HETATM   14 CL   UNL     1       9.072  30.179  58.533  1.00  0.00    -0.084 Cl
HETATM   15  C   UNL     1       8.678  29.240  56.036  1.00  0.00     0.026 A 
HETATM   16  C   UNL     1       8.142  28.344  55.106  1.00  0.00     0.033 A 
ENDBRANCH   7   9
ENDBRANCH   4   7
BRANCH   5  17
HETATM   17  C   UNL     1       5.885  25.123  52.167  1.00  0.00     0.253 C 
HETATM   18  N   UNL     1       4.586  24.693  52.170  1.00  0.00    -0.366 N 
HETATM   19  H   UNL     1       4.212  24.103  52.899  1.00  0.00     0.159 HD
HETATM   20  H   UNL     1       3.929  25.248  51.634  1.00  0.00     0.159 HD
HETATM   21  O   UNL     1       6.247  26.053  51.456  1.00  0.00    -0.268 OA
ENDBRANCH   5  17
TORSDOF 3
ENDMDL
MODEL 9
REMARK VINA RESULT:      -6.5     10.912     13.702
REMARK  3 active torsions:
REMARK  status: ('A' for Active; 'I' for Inactive)
REMARK    1  A    between atoms: C_4  and  N_5 
REMARK    2  A    between atoms: N_5  and  C_6 
REMARK    3  A    between atoms: C_14  and  C_15 
REMARK       I    between atoms: C_15  and  N_16 
ROOT
HETATM    1  C   UNL     1       3.363  35.791  61.435  1.00  0.00     0.020 A 
HETATM    2  C   UNL     1       3.303  36.257  62.733  1.00  0.00     0.119 A 
HETATM    3  N   UNL     1       3.599  35.506  63.817  1.00  0.00    -0.242 NA
HETATM    4  C   UNL     1       3.964  34.211  63.636  1.00  0.00     0.143 A 
HETATM    5  C   UNL     1       4.065  33.673  62.342  1.00  0.00     0.077 A 
HETATM    6  C   UNL     1       3.753  34.473  61.234  1.00  0.00     0.022 A 
ENDROOT
BRANCH   4   7
HETATM    7  N   UNL     1       4.307  33.420  64.758  1.00  0.00    -0.339 N 
HETATM    8  H   UNL     1       3.584  32.712  64.928  1.00  0.00     0.167 HD
BRANCH   7   9
HETATM    9  C   UNL     1       4.989  33.792  65.938  1.00  0.00     0.055 A 
HETATM   10  C   UNL     1       6.395  33.896  65.954  1.00  0.00     0.062 A 
HETATM   11 CL   UNL     1       7.323  33.518  64.542  1.00  0.00    -0.082 Cl
HETATM   12  C   UNL     1       7.085  34.291  67.103  1.00  0.00     0.050 A 
HETATM   13  C   UNL     1       6.370  34.603  68.254  1.00  0.00     0.035 A 
HETATM   14 CL   UNL     1       7.209  35.096  69.674  1.00  0.00    -0.084 Cl
HETATM   15  C   UNL     1       4.981  34.524  68.265  1.00  0.00     0.026 A 
HETATM   16  C   UNL     1       4.298  34.123  67.112  1.00  0.00     0.033 A 
ENDBRANCH   7   9
ENDBRANCH   4   7
BRANCH   5  17
HETATM   17  C   UNL     1       4.446  32.255  62.146  1.00  0.00     0.253 C 
HETATM   18  N   UNL     1       3.433  31.354  61.963  1.00  0.00    -0.366 N 
HETATM   19  H   UNL     1       2.490  31.637  61.735  1.00  0.00     0.159 HD
HETATM   20  H   UNL     1       3.710  30.411  61.717  1.00  0.00     0.159 HD
HETATM   21  O   UNL     1       5.620  31.905  62.133  1.00  0.00    -0.268 OA
ENDBRANCH   5  17
TORSDOF 3
ENDMDL
MODEL 10
REMARK VINA RESULT:      -6.5      9.360     11.549
REMARK  3 active torsions:
REMARK  status: ('A' for Active; 'I' for Inactive)
REMARK    1  A    between atoms: C_4  and  N_5 
REMARK    2  A    between atoms: N_5  and  C_6 
REMARK    3  A    between atoms: C_14  and  C_15 
REMARK       I    between atoms: C_15  and  N_16 
ROOT
HETATM    1  C   UNL     1       5.094  37.786  64.221  1.00  0.00     0.020 A 
HETATM    2  C   UNL     1       5.869  37.664  63.084  1.00  0.00     0.119 A 
HETATM    3  N   UNL     1       5.975  36.525  62.365  1.00  0.00    -0.242 NA
HETATM    4  C   UNL     1       5.300  35.422  62.780  1.00  0.00     0.143 A 
HETATM    5  C   UNL     1       4.477  35.477  63.918  1.00  0.00     0.077 A 
HETATM    6  C   UNL     1       4.383  36.671  64.646  1.00  0.00     0.022 A 
ENDROOT
BRANCH   4   7
HETATM    7  N   UNL     1       5.377  34.231  62.021  1.00  0.00    -0.339 N 
HETATM    8  H   UNL     1       4.439  33.840  61.879  1.00  0.00     0.167 HD
BRANCH   7   9
HETATM    9  C   UNL     1       6.385  33.241  62.011  1.00  0.00     0.055 A 
HETATM   10  C   UNL     1       6.595  32.440  60.870  1.00  0.00     0.062 A 
HETATM   11 CL   UNL     1       5.586  32.613  59.473  1.00  0.00    -0.082 Cl
HETATM   12  C   UNL     1       7.606  31.476  60.831  1.00  0.00     0.050 A 
HETATM   13  C   UNL     1       8.434  31.311  61.936  1.00  0.00     0.035 A 
HETATM   14 CL   UNL     1       9.687  30.132  61.897  1.00  0.00    -0.084 Cl
HETATM   15  C   UNL     1       8.261  32.098  63.070  1.00  0.00     0.026 A 
HETATM   16  C   UNL     1       7.244  33.057  63.103  1.00  0.00     0.033 A 
ENDBRANCH   7   9
ENDBRANCH   4   7
BRANCH   5  17
HETATM   17  C   UNL     1       3.754  34.270  64.380  1.00  0.00     0.253 C 
HETATM   18  N   UNL     1       2.408  34.220  64.146  1.00  0.00    -0.366 N 
HETATM   19  H   UNL     1       1.946  34.839  63.494  1.00  0.00     0.159 HD
HETATM   20  H   UNL     1       1.947  33.344  64.362  1.00  0.00     0.159 HD
HETATM   21  O   UNL     1       4.339  33.348  64.935  1.00  0.00    -0.268 OA
ENDBRANCH   5  17
TORSDOF 3
ENDMDL
