MODEL 1
REMARK VINA RESULT:     -10.4      0.000      0.000
REMARK  5 active torsions:
REMARK  status: ('A' for Active; 'I' for Inactive)
REMARK    1  A    between atoms: C_5  and  C_6 
REMARK    2  A    between atoms: C_10  and  C_11 
REMARK       I    between atoms: C_11  and  N_12 
REMARK    3  A    between atoms: N_12  and  N_13 
REMARK       I    between atoms: N_13  and  C_14 
REMARK       I    between atoms: C_14  and  N_15 
REMARK    4  A    between atoms: N_15  and  C_16 
REMARK    5  A    between atoms: C_16  and  C_17 
ROOT
HETATM    1  C   UNL     1       8.122  28.863  56.406  1.00  0.00     0.288 C 
HETATM    2  N   UNL     1       7.126  27.934  56.609  1.00  0.00    -0.261 N 
HETATM    3  O   UNL     1       8.726  28.954  55.339  1.00  0.00    -0.264 OA
HETATM    4  H   UNL     1       6.633  27.808  57.490  1.00  0.00     0.190 HD
ENDROOT
BRANCH   2   5
HETATM    5  N   UNL     1       6.788  27.039  55.583  1.00  0.00    -0.249 N 
HETATM    6  C   UNL     1       7.156  25.726  55.779  1.00  0.00     0.334 C 
HETATM    7  N   UNL     1       6.892  24.938  54.690  1.00  0.00    -0.341 N 
HETATM    8  O   UNL     1       7.641  25.322  56.832  1.00  0.00    -0.246 OA
HETATM    9  H   UNL     1       6.243  25.305  54.010  1.00  0.00     0.164 HD
HETATM   10  H   UNL     1       6.805  27.427  54.644  1.00  0.00     0.192 HD
BRANCH   7  11
HETATM   11  C   UNL     1       7.064  23.498  54.751  1.00  0.00     0.129 C 
BRANCH  11  12
HETATM   12  C   UNL     1       8.371  23.030  54.083  1.00  0.00     0.004 C 
HETATM   13  C   UNL     1       9.372  22.362  55.047  1.00  0.00     0.010 C 
HETATM   14  C   UNL     1       9.113  20.884  55.389  1.00  0.00    -0.018 C 
HETATM   15  C   UNL     1       8.790  20.063  54.135  1.00  0.00     0.004 C 
HETATM   16  C   UNL     1       8.060  20.690  56.480  1.00  0.00     0.010 C 
HETATM   17  C   UNL     1       7.712  20.701  53.265  1.00  0.00     0.001 C 
HETATM   18  C   UNL     1       8.089  22.127  52.874  1.00  0.00     0.006 C 
ENDBRANCH  11  12
ENDBRANCH   7  11
ENDBRANCH   2   5
BRANCH   1  19
HETATM   19  C   UNL     1       8.405  29.706  57.535  1.00  0.00     0.121 A 
HETATM   20  N   UNL     1       9.615  30.318  57.697  1.00  0.00    -0.272 N 
HETATM   21  N   UNL     1       9.717  31.050  58.815  1.00  0.00    -0.174 NA
HETATM   22  H   UNL     1      10.414  30.265  57.072  1.00  0.00     0.189 HD
HETATM   23  C   UNL     1       8.522  30.924  59.417  1.00  0.00     0.089 A 
HETATM   24  C   UNL     1       7.669  30.091  58.639  1.00  0.00     0.071 A 
BRANCH  23  25
HETATM   25  C   UNL     1       8.230  31.566  60.705  1.00  0.00    -0.006 A 
HETATM   26  C   UNL     1       7.431  32.715  60.779  1.00  0.00     0.014 A 
HETATM   27  C   UNL     1       7.133  33.303  62.015  1.00  0.00     0.007 A 
HETATM   28  C   UNL     1       7.639  32.760  63.200  1.00  0.00    -0.062 A 
HETATM   29  C   UNL     1       7.289  33.360  64.529  1.00  0.00     0.048 C 
HETATM   30  C   UNL     1       8.435  31.613  63.132  1.00  0.00     0.007 A 
HETATM   31  C   UNL     1       8.732  31.027  61.897  1.00  0.00     0.014 A 
ENDBRANCH  23  25
ENDBRANCH   1  19
TORSDOF 5
ENDMDL
MODEL 2
REMARK VINA RESULT:     -10.2      1.841      3.198
REMARK  5 active torsions:
REMARK  status: ('A' for Active; 'I' for Inactive)
REMARK    1  A    between atoms: C_5  and  C_6 
REMARK    2  A    between atoms: C_10  and  C_11 
REMARK       I    between atoms: C_11  and  N_12 
REMARK    3  A    between atoms: N_12  and  N_13 
REMARK       I    between atoms: N_13  and  C_14 
REMARK       I    between atoms: C_14  and  N_15 
REMARK    4  A    between atoms: N_15  and  C_16 
REMARK    5  A    between atoms: C_16  and  C_17 
ROOT
HETATM    1  C   UNL     1       8.101  30.124  58.860  1.00  0.00     0.288 C 
HETATM    2  N   UNL     1       7.082  29.257  58.537  1.00  0.00    -0.261 N 
HETATM    3  O   UNL     1       9.005  30.397  58.072  1.00  0.00    -0.264 OA
HETATM    4  H   UNL     1       6.341  28.982  59.177  1.00  0.00     0.190 HD
ENDROOT
BRANCH   2   5
HETATM    5  N   UNL     1       7.066  28.637  57.278  1.00  0.00    -0.249 N 
HETATM    6  C   UNL     1       7.628  27.380  57.215  1.00  0.00     0.334 C 
HETATM    7  N   UNL     1       7.675  26.890  55.937  1.00  0.00    -0.341 N 
HETATM    8  O   UNL     1       8.012  26.774  58.210  1.00  0.00    -0.246 OA
HETATM    9  H   UNL     1       7.081  27.339  55.255  1.00  0.00     0.164 HD
HETATM   10  H   UNL     1       7.155  29.264  56.484  1.00  0.00     0.192 HD
BRANCH   7  11
HETATM   11  C   UNL     1       8.088  25.523  55.677  1.00  0.00     0.129 C 
BRANCH  11  12
HETATM   12  C   UNL     1       6.896  24.587  55.402  1.00  0.00     0.004 C 
HETATM   13  C   UNL     1       6.190  24.839  54.055  1.00  0.00     0.010 C 
HETATM   14  C   UNL     1       6.852  24.227  52.808  1.00  0.00    -0.018 C 
HETATM   15  C   UNL     1       7.269  22.772  53.047  1.00  0.00     0.004 C 
HETATM   16  C   UNL     1       8.009  25.066  52.263  1.00  0.00     0.010 C 
HETATM   17  C   UNL     1       8.066  22.583  54.334  1.00  0.00     0.001 C 
HETATM   18  C   UNL     1       7.299  23.112  55.542  1.00  0.00     0.006 C 
ENDBRANCH  11  12
ENDBRANCH   7  11
ENDBRANCH   2   5
BRANCH   1  19
HETATM   19  C   UNL     1       8.031  30.675  60.185  1.00  0.00     0.121 A 
HETATM   20  N   UNL     1       8.961  30.382  61.142  1.00  0.00    -0.272 N 
HETATM   21  N   UNL     1       8.734  30.963  62.328  1.00  0.00    -0.174 NA
HETATM   22  H   UNL     1       9.775  29.783  61.038  1.00  0.00     0.189 HD
HETATM   23  C   UNL     1       7.609  31.677  62.150  1.00  0.00     0.089 A 
HETATM   24  C   UNL     1       7.142  31.525  60.814  1.00  0.00     0.071 A 
BRANCH  23  25
HETATM   25  C   UNL     1       7.002  32.454  63.237  1.00  0.00    -0.006 A 
HETATM   26  C   UNL     1       5.610  32.547  63.374  1.00  0.00     0.014 A 
HETATM   27  C   UNL     1       5.040  33.267  64.431  1.00  0.00     0.007 A 
HETATM   28  C   UNL     1       5.850  33.918  65.366  1.00  0.00    -0.062 A 
HETATM   29  C   UNL     1       5.246  34.654  66.524  1.00  0.00     0.048 C 
HETATM   30  C   UNL     1       7.240  33.827  65.236  1.00  0.00     0.007 A 
HETATM   31  C   UNL     1       7.808  33.108  64.179  1.00  0.00     0.014 A 
ENDBRANCH  23  25
ENDBRANCH   1  19
TORSDOF 5
ENDMDL
MODEL 3
REMARK VINA RESULT:      -9.9      2.061     10.947
REMARK  5 active torsions:
REMARK  status: ('A' for Active; 'I' for Inactive)
REMARK    1  A    between atoms: C_5  and  C_6 
REMARK    2  A    between atoms: C_10  and  C_11 
REMARK       I    between atoms: C_11  and  N_12 
REMARK    3  A    between atoms: N_12  and  N_13 
REMARK       I    between atoms: N_13  and  C_14 
REMARK       I    between atoms: C_14  and  N_15 
REMARK    4  A    between atoms: N_15  and  C_16 
REMARK    5  A    between atoms: C_16  and  C_17 
ROOT
HETATM    1  C   UNL     1       6.587  28.348  57.463  1.00  0.00     0.288 C 
HETATM    2  N   UNL     1       7.438  29.090  58.251  1.00  0.00    -0.261 N 
HETATM    3  O   UNL     1       5.467  28.747  57.151  1.00  0.00    -0.264 OA
HETATM    4  H   UNL     1       8.354  28.773  58.558  1.00  0.00     0.190 HD
ENDROOT
BRANCH   2   5
HETATM    5  N   UNL     1       7.023  30.337  58.743  1.00  0.00    -0.249 N 
HETATM    6  C   UNL     1       7.721  30.824  59.826  1.00  0.00     0.334 C 
HETATM    7  N   UNL     1       7.189  31.987  60.315  1.00  0.00    -0.341 N 
HETATM    8  O   UNL     1       8.724  30.273  60.272  1.00  0.00    -0.246 OA
HETATM    9  H   UNL     1       6.559  32.489  59.707  1.00  0.00     0.164 HD
HETATM   10  H   UNL     1       6.028  30.526  58.664  1.00  0.00     0.192 HD
BRANCH   7  11
HETATM   11  C   UNL     1       7.866  32.739  61.355  1.00  0.00     0.129 C 
BRANCH  11  12
HETATM   12  C   UNL     1       7.695  32.106  62.749  1.00  0.00     0.004 C 
HETATM   13  C   UNL     1       7.797  33.109  63.917  1.00  0.00     0.010 C 
HETATM   14  C   UNL     1       6.533  33.931  64.226  1.00  0.00    -0.018 C 
HETATM   15  C   UNL     1       5.278  33.051  64.246  1.00  0.00     0.004 C 
HETATM   16  C   UNL     1       6.360  35.143  63.309  1.00  0.00     0.010 C 
HETATM   17  C   UNL     1       5.156  32.156  63.017  1.00  0.00     0.001 C 
HETATM   18  C   UNL     1       6.399  31.290  62.839  1.00  0.00     0.006 C 
ENDBRANCH  11  12
ENDBRANCH   7  11
ENDBRANCH   2   5
BRANCH   1  19
HETATM   19  C   UNL     1       7.104  27.075  57.043  1.00  0.00     0.121 A 
HETATM   20  N   UNL     1       8.158  26.476  57.674  1.00  0.00    -0.272 N 
HETATM   21  N   UNL     1       8.525  25.303  57.139  1.00  0.00    -0.174 NA
HETATM   22  H   UNL     1       8.669  26.830  58.476  1.00  0.00     0.189 HD
HETATM   23  C   UNL     1       7.677  25.112  56.115  1.00  0.00     0.089 A 
HETATM   24  C   UNL     1       6.765  26.202  56.027  1.00  0.00     0.071 A 
BRANCH  23  25
HETATM   25  C   UNL     1       7.763  23.933  55.245  1.00  0.00    -0.006 A 
HETATM   26  C   UNL     1       7.847  24.062  53.852  1.00  0.00     0.014 A 
HETATM   27  C   UNL     1       7.957  22.933  53.032  1.00  0.00     0.007 A 
HETATM   28  C   UNL     1       7.974  21.650  53.588  1.00  0.00    -0.062 A 
HETATM   29  C   UNL     1       8.136  20.440  52.718  1.00  0.00     0.048 C 
HETATM   30  C   UNL     1       7.892  21.514  54.977  1.00  0.00     0.007 A 
HETATM   31  C   UNL     1       7.781  22.644  55.795  1.00  0.00     0.014 A 
ENDBRANCH  23  25
ENDBRANCH   1  19
TORSDOF 5
ENDMDL
MODEL 4
REMARK VINA RESULT:      -9.5      2.214     11.010
REMARK  5 active torsions:
REMARK  status: ('A' for Active; 'I' for Inactive)
REMARK    1  A    between atoms: C_5  and  C_6 
REMARK    2  A    between atoms: C_10  and  C_11 
REMARK       I    between atoms: C_11  and  N_12 
REMARK    3  A    between atoms: N_12  and  N_13 
REMARK       I    between atoms: N_13  and  C_14 
REMARK       I    between atoms: C_14  and  N_15 
REMARK    4  A    between atoms: N_15  and  C_16 
REMARK    5  A    between atoms: C_16  and  C_17 
ROOT
HETATM    1  C   UNL     1       5.783  28.962  56.304  1.00  0.00     0.288 C 
HETATM    2  N   UNL     1       6.604  30.035  56.566  1.00  0.00    -0.261 N 
HETATM    3  O   UNL     1       4.619  28.915  56.699  1.00  0.00    -0.264 OA
HETATM    4  H   UNL     1       7.580  30.088  56.286  1.00  0.00     0.190 HD
ENDROOT
BRANCH   2   5
HETATM    5  N   UNL     1       6.124  31.112  57.326  1.00  0.00    -0.249 N 
HETATM    6  C   UNL     1       6.614  31.215  58.609  1.00  0.00     0.334 C 
HETATM    7  N   UNL     1       6.016  32.222  59.321  1.00  0.00    -0.341 N 
HETATM    8  O   UNL     1       7.507  30.492  59.039  1.00  0.00    -0.246 OA
HETATM    9  H   UNL     1       5.518  32.921  58.789  1.00  0.00     0.164 HD
HETATM   10  H   UNL     1       5.163  31.385  57.135  1.00  0.00     0.192 HD
BRANCH   7  11
HETATM   11  C   UNL     1       6.498  32.592  60.639  1.00  0.00     0.129 C 
BRANCH  11  12
HETATM   12  C   UNL     1       5.353  32.861  61.633  1.00  0.00     0.004 C 
HETATM   13  C   UNL     1       5.571  32.249  63.032  1.00  0.00     0.010 C 
HETATM   14  C   UNL     1       6.480  33.038  63.991  1.00  0.00    -0.018 C 
HETATM   15  C   UNL     1       6.135  34.531  63.995  1.00  0.00     0.004 C 
HETATM   16  C   UNL     1       7.970  32.801  63.746  1.00  0.00     0.010 C 
HETATM   17  C   UNL     1       6.041  35.126  62.593  1.00  0.00     0.001 C 
HETATM   18  C   UNL     1       5.039  34.361  61.734  1.00  0.00     0.006 C 
ENDBRANCH  11  12
ENDBRANCH   7  11
ENDBRANCH   2   5
BRANCH   1  19
HETATM   19  C   UNL     1       6.389  27.903  55.545  1.00  0.00     0.121 A 
HETATM   20  N   UNL     1       7.126  28.148  54.421  1.00  0.00    -0.272 N 
HETATM   21  N   UNL     1       7.600  27.046  53.823  1.00  0.00    -0.174 NA
HETATM   22  H   UNL     1       7.334  29.055  54.013  1.00  0.00     0.189 HD
HETATM   23  C   UNL     1       7.165  26.028  54.584  1.00  0.00     0.089 A 
HETATM   24  C   UNL     1       6.405  26.529  55.679  1.00  0.00     0.071 A 
BRANCH  23  25
HETATM   25  C   UNL     1       7.455  24.628  54.250  1.00  0.00    -0.006 A 
HETATM   26  C   UNL     1       7.448  23.630  55.234  1.00  0.00     0.014 A 
HETATM   27  C   UNL     1       7.697  22.293  54.900  1.00  0.00     0.007 A 
HETATM   28  C   UNL     1       7.970  21.929  53.578  1.00  0.00    -0.062 A 
HETATM   29  C   UNL     1       8.194  20.494  53.208  1.00  0.00     0.048 C 
HETATM   30  C   UNL     1       7.977  22.921  52.592  1.00  0.00     0.007 A 
HETATM   31  C   UNL     1       7.728  24.257  52.927  1.00  0.00     0.014 A 
ENDBRANCH  23  25
ENDBRANCH   1  19
TORSDOF 5
ENDMDL
MODEL 5
REMARK VINA RESULT:      -9.2      2.590      2.941
REMARK  5 active torsions:
REMARK  status: ('A' for Active; 'I' for Inactive)
REMARK    1  A    between atoms: C_5  and  C_6 
REMARK    2  A    between atoms: C_10  and  C_11 
REMARK       I    between atoms: C_11  and  N_12 
REMARK    3  A    between atoms: N_12  and  N_13 
REMARK       I    between atoms: N_13  and  C_14 
REMARK       I    between atoms: C_14  and  N_15 
REMARK    4  A    between atoms: N_15  and  C_16 
REMARK    5  A    between atoms: C_16  and  C_17 
ROOT
HETATM    1  C   UNL     1       4.868  29.088  56.228  1.00  0.00     0.288 C 
HETATM    2  N   UNL     1       4.725  27.772  56.604  1.00  0.00    -0.261 N 
HETATM    3  O   UNL     1       5.206  29.413  55.092  1.00  0.00    -0.264 OA
HETATM    4  H   UNL     1       4.483  27.470  57.545  1.00  0.00     0.190 HD
ENDROOT
BRANCH   2   5
HETATM    5  N   UNL     1       4.989  26.750  55.680  1.00  0.00    -0.249 N 
HETATM    6  C   UNL     1       5.810  25.734  56.118  1.00  0.00     0.334 C 
HETATM    7  N   UNL     1       6.109  24.836  55.128  1.00  0.00    -0.341 N 
HETATM    8  O   UNL     1       6.196  25.647  57.280  1.00  0.00    -0.246 OA
HETATM    9  H   UNL     1       5.517  24.846  54.311  1.00  0.00     0.164 HD
HETATM   10  H   UNL     1       5.035  27.044  54.708  1.00  0.00     0.192 HD
BRANCH   7  11
HETATM   11  C   UNL     1       6.832  23.613  55.423  1.00  0.00     0.129 C 
BRANCH  11  12
HETATM   12  C   UNL     1       8.171  23.520  54.667  1.00  0.00     0.004 C 
HETATM   13  C   UNL     1       9.212  22.597  55.333  1.00  0.00     0.010 C 
HETATM   14  C   UNL     1       9.055  21.088  55.074  1.00  0.00    -0.018 C 
HETATM   15  C   UNL     1       8.796  20.794  53.592  1.00  0.00     0.004 C 
HETATM   16  C   UNL     1       8.013  20.424  55.974  1.00  0.00     0.010 C 
HETATM   17  C   UNL     1       7.680  21.648  53.000  1.00  0.00     0.001 C 
HETATM   18  C   UNL     1       7.959  23.135  53.196  1.00  0.00     0.006 C 
ENDBRANCH  11  12
ENDBRANCH   7  11
ENDBRANCH   2   5
BRANCH   1  19
HETATM   19  C   UNL     1       4.601  30.048  57.264  1.00  0.00     0.121 A 
HETATM   20  N   UNL     1       3.329  30.391  57.624  1.00  0.00    -0.272 N 
HETATM   21  N   UNL     1       3.261  31.317  58.591  1.00  0.00    -0.174 NA
HETATM   22  H   UNL     1       2.465  30.025  57.235  1.00  0.00     0.189 HD
HETATM   23  C   UNL     1       4.541  31.596  58.890  1.00  0.00     0.089 A 
HETATM   24  C   UNL     1       5.412  30.813  58.080  1.00  0.00     0.071 A 
BRANCH  23  25
HETATM   25  C   UNL     1       4.903  32.596  59.901  1.00  0.00    -0.006 A 
HETATM   26  C   UNL     1       4.107  33.729  60.120  1.00  0.00     0.014 A 
HETATM   27  C   UNL     1       4.445  34.663  61.108  1.00  0.00     0.007 A 
HETATM   28  C   UNL     1       5.592  34.489  61.888  1.00  0.00    -0.062 A 
HETATM   29  C   UNL     1       5.936  35.462  62.975  1.00  0.00     0.048 C 
HETATM   30  C   UNL     1       6.389  33.359  61.675  1.00  0.00     0.007 A 
HETATM   31  C   UNL     1       6.051  32.428  60.688  1.00  0.00     0.014 A 
ENDBRANCH  23  25
ENDBRANCH   1  19
TORSDOF 5
ENDMDL
MODEL 6
REMARK VINA RESULT:      -9.1      2.805     11.114
REMARK  5 active torsions:
REMARK  status: ('A' for Active; 'I' for Inactive)
REMARK    1  A    between atoms: C_5  and  C_6 
REMARK    2  A    between atoms: C_10  and  C_11 
REMARK       I    between atoms: C_11  and  N_12 
REMARK    3  A    between atoms: N_12  and  N_13 
REMARK       I    between atoms: N_13  and  C_14 
REMARK       I    between atoms: C_14  and  N_15 
REMARK    4  A    between atoms: N_15  and  C_16 
REMARK    5  A    between atoms: C_16  and  C_17 
ROOT
HETATM    1  C   UNL     1       7.441  28.880  57.778  1.00  0.00     0.288 C 
HETATM    2  N   UNL     1       6.385  29.759  57.858  1.00  0.00    -0.261 N 
HETATM    3  O   UNL     1       8.410  28.949  58.532  1.00  0.00    -0.264 OA
HETATM    4  H   UNL     1       5.588  29.753  57.227  1.00  0.00     0.190 HD
ENDROOT
BRANCH   2   5
HETATM    5  N   UNL     1       6.405  30.788  58.812  1.00  0.00    -0.249 N 
HETATM    6  C   UNL     1       5.321  31.639  58.807  1.00  0.00     0.334 C 
HETATM    7  N   UNL     1       5.466  32.678  59.688  1.00  0.00    -0.341 N 
HETATM    8  O   UNL     1       4.333  31.453  58.103  1.00  0.00    -0.246 OA
HETATM    9  H   UNL     1       6.168  32.572  60.405  1.00  0.00     0.164 HD
HETATM   10  H   UNL     1       7.326  31.154  59.038  1.00  0.00     0.192 HD
BRANCH   7  11
HETATM   11  C   UNL     1       4.371  33.597  59.945  1.00  0.00     0.129 C 
BRANCH  11  12
HETATM   12  C   UNL     1       3.434  33.103  61.063  1.00  0.00     0.004 C 
HETATM   13  C   UNL     1       4.165  32.543  62.301  1.00  0.00     0.010 C 
HETATM   14  C   UNL     1       4.691  33.577  63.311  1.00  0.00    -0.018 C 
HETATM   15  C   UNL     1       3.641  34.650  63.621  1.00  0.00     0.004 C 
HETATM   16  C   UNL     1       6.029  34.195  62.904  1.00  0.00     0.010 C 
HETATM   17  C   UNL     1       3.024  35.260  62.366  1.00  0.00     0.001 C 
HETATM   18  C   UNL     1       2.423  34.185  61.466  1.00  0.00     0.006 C 
ENDBRANCH  11  12
ENDBRANCH   7  11
ENDBRANCH   2   5
BRANCH   1  19
HETATM   19  C   UNL     1       7.328  27.887  56.745  1.00  0.00     0.121 A 
HETATM   20  N   UNL     1       6.681  28.136  55.568  1.00  0.00    -0.272 N 
HETATM   21  N   UNL     1       6.649  27.094  54.726  1.00  0.00    -0.174 NA
HETATM   22  H   UNL     1       6.236  29.005  55.289  1.00  0.00     0.189 HD
HETATM   23  C   UNL     1       7.308  26.114  55.368  1.00  0.00     0.089 A 
HETATM   24  C   UNL     1       7.754  26.578  56.638  1.00  0.00     0.071 A 
BRANCH  23  25
HETATM   25  C   UNL     1       7.476  24.778  54.783  1.00  0.00    -0.006 A 
HETATM   26  C   UNL     1       7.675  24.608  53.406  1.00  0.00     0.014 A 
HETATM   27  C   UNL     1       7.863  23.331  52.861  1.00  0.00     0.007 A 
HETATM   28  C   UNL     1       7.845  22.199  53.682  1.00  0.00    -0.062 A 
HETATM   29  C   UNL     1       8.089  20.835  53.111  1.00  0.00     0.048 C 
HETATM   30  C   UNL     1       7.649  22.363  55.056  1.00  0.00     0.007 A 
HETATM   31  C   UNL     1       7.460  23.639  55.599  1.00  0.00     0.014 A 
ENDBRANCH  23  25
ENDBRANCH   1  19
TORSDOF 5
ENDMDL
MODEL 7
REMARK VINA RESULT:      -8.9      2.904      3.627
REMARK  5 active torsions:
REMARK  status: ('A' for Active; 'I' for Inactive)
REMARK    1  A    between atoms: C_5  and  C_6 
REMARK    2  A    between atoms: C_10  and  C_11 
REMARK       I    between atoms: C_11  and  N_12 
REMARK    3  A    between atoms: N_12  and  N_13 
REMARK       I    between atoms: N_13  and  C_14 
REMARK       I    between atoms: C_14  and  N_15 
REMARK    4  A    between atoms: N_15  and  C_16 
REMARK    5  A    between atoms: C_16  and  C_17 
ROOT
HETATM    1  C   UNL     1       7.722  28.577  57.710  1.00  0.00     0.288 C 
HETATM    2  N   UNL     1       6.802  27.562  57.582  1.00  0.00    -0.261 N 
HETATM    3  O   UNL     1       8.933  28.377  57.645  1.00  0.00    -0.264 OA
HETATM    4  H   UNL     1       5.796  27.689  57.668  1.00  0.00     0.190 HD
ENDROOT
BRANCH   2   5
HETATM    5  N   UNL     1       7.240  26.243  57.393  1.00  0.00    -0.249 N 
HETATM    6  C   UNL     1       6.821  25.625  56.234  1.00  0.00     0.334 C 
HETATM    7  N   UNL     1       7.196  24.309  56.175  1.00  0.00    -0.341 N 
HETATM    8  O   UNL     1       6.204  26.216  55.353  1.00  0.00    -0.246 OA
HETATM    9  H   UNL     1       7.931  24.017  56.802  1.00  0.00     0.164 HD
HETATM   10  H   UNL     1       7.345  25.693  58.241  1.00  0.00     0.192 HD
BRANCH   7  11
HETATM   11  C   UNL     1       6.985  23.527  54.971  1.00  0.00     0.129 C 
BRANCH  11  12
HETATM   12  C   UNL     1       8.304  23.167  54.261  1.00  0.00     0.004 C 
HETATM   13  C   UNL     1       9.299  22.376  55.135  1.00  0.00     0.010 C 
HETATM   14  C   UNL     1       9.049  20.863  55.261  1.00  0.00    -0.018 C 
HETATM   15  C   UNL     1       8.748  20.225  53.900  1.00  0.00     0.004 C 
HETATM   16  C   UNL     1       7.984  20.510  56.299  1.00  0.00     0.010 C 
HETATM   17  C   UNL     1       7.675  20.972  53.114  1.00  0.00     0.001 C 
HETATM   18  C   UNL     1       8.045  22.441  52.933  1.00  0.00     0.006 C 
ENDBRANCH  11  12
ENDBRANCH   7  11
ENDBRANCH   2   5
BRANCH   1  19
HETATM   19  C   UNL     1       7.161  29.882  57.931  1.00  0.00     0.121 A 
HETATM   20  N   UNL     1       7.847  30.864  58.586  1.00  0.00    -0.272 N 
HETATM   21  N   UNL     1       7.168  32.011  58.725  1.00  0.00    -0.174 NA
HETATM   22  H   UNL     1       8.787  30.803  58.965  1.00  0.00     0.189 HD
HETATM   23  C   UNL     1       5.984  31.783  58.133  1.00  0.00     0.089 A 
HETATM   24  C   UNL     1       5.945  30.456  57.617  1.00  0.00     0.071 A 
BRANCH  23  25
HETATM   25  C   UNL     1       4.926  32.801  58.091  1.00  0.00    -0.006 A 
HETATM   26  C   UNL     1       4.638  33.596  59.209  1.00  0.00     0.014 A 
HETATM   27  C   UNL     1       3.647  34.584  59.150  1.00  0.00     0.007 A 
HETATM   28  C   UNL     1       2.917  34.788  57.976  1.00  0.00    -0.062 A 
HETATM   29  C   UNL     1       1.886  35.873  57.894  1.00  0.00     0.048 C 
HETATM   30  C   UNL     1       3.201  33.999  56.857  1.00  0.00     0.007 A 
HETATM   31  C   UNL     1       4.191  33.012  56.917  1.00  0.00     0.014 A 
ENDBRANCH  23  25
ENDBRANCH   1  19
TORSDOF 5
ENDMDL
MODEL 8
REMARK VINA RESULT:      -8.7      7.046      8.222
REMARK  5 active torsions:
REMARK  status: ('A' for Active; 'I' for Inactive)
REMARK    1  A    between atoms: C_5  and  C_6 
REMARK    2  A    between atoms: C_10  and  C_11 
REMARK       I    between atoms: C_11  and  N_12 
REMARK    3  A    between atoms: N_12  and  N_13 
REMARK       I    between atoms: N_13  and  C_14 
REMARK       I    between atoms: C_14  and  N_15 
REMARK    4  A    between atoms: N_15  and  C_16 
REMARK    5  A    between atoms: C_16  and  C_17 
ROOT
HETATM    1  C   UNL     1       4.976  27.164  50.488  1.00  0.00     0.288 C 
HETATM    2  N   UNL     1       5.019  27.008  51.855  1.00  0.00    -0.261 N 
HETATM    3  O   UNL     1       4.908  26.206  49.721  1.00  0.00    -0.264 OA
HETATM    4  H   UNL     1       5.114  27.777  52.514  1.00  0.00     0.190 HD
ENDROOT
BRANCH   2   5
HETATM    5  N   UNL     1       5.006  25.720  52.411  1.00  0.00    -0.249 N 
HETATM    6  C   UNL     1       6.054  25.411  53.250  1.00  0.00     0.334 C 
HETATM    7  N   UNL     1       6.030  24.105  53.663  1.00  0.00    -0.341 N 
HETATM    8  O   UNL     1       6.892  26.238  53.598  1.00  0.00    -0.246 OA
HETATM    9  H   UNL     1       5.157  23.610  53.552  1.00  0.00     0.164 HD
HETATM   10  H   UNL     1       4.610  24.995  51.819  1.00  0.00     0.192 HD
BRANCH   7  11
HETATM   11  C   UNL     1       6.957  23.623  54.669  1.00  0.00     0.129 C 
BRANCH  11  12
HETATM   12  C   UNL     1       8.308  23.190  54.070  1.00  0.00     0.004 C 
HETATM   13  C   UNL     1       9.245  22.477  55.066  1.00  0.00     0.010 C 
HETATM   14  C   UNL     1       8.970  20.984  55.317  1.00  0.00    -0.018 C 
HETATM   15  C   UNL     1       8.737  20.225  54.006  1.00  0.00     0.004 C 
HETATM   16  C   UNL     1       7.846  20.735  56.323  1.00  0.00     0.010 C 
HETATM   17  C   UNL     1       7.717  20.904  53.096  1.00  0.00     0.001 C 
HETATM   18  C   UNL     1       8.114  22.347  52.801  1.00  0.00     0.006 C 
ENDBRANCH  11  12
ENDBRANCH   7  11
ENDBRANCH   2   5
BRANCH   1  19
HETATM   19  C   UNL     1       5.027  28.525  50.030  1.00  0.00     0.121 A 
HETATM   20  N   UNL     1       4.461  28.913  48.849  1.00  0.00    -0.272 N 
HETATM   21  N   UNL     1       4.620  30.213  48.564  1.00  0.00    -0.174 NA
HETATM   22  H   UNL     1       3.954  28.327  48.193  1.00  0.00     0.189 HD
HETATM   23  C   UNL     1       5.315  30.710  49.600  1.00  0.00     0.089 A 
HETATM   24  C   UNL     1       5.585  29.679  50.545  1.00  0.00     0.071 A 
BRANCH  23  25
HETATM   25  C   UNL     1       5.722  32.119  49.660  1.00  0.00    -0.006 A 
HETATM   26  C   UNL     1       5.526  32.883  50.819  1.00  0.00     0.014 A 
HETATM   27  C   UNL     1       5.943  34.219  50.876  1.00  0.00     0.007 A 
HETATM   28  C   UNL     1       6.554  34.820  49.772  1.00  0.00    -0.062 A 
HETATM   29  C   UNL     1       7.042  36.236  49.842  1.00  0.00     0.048 C 
HETATM   30  C   UNL     1       6.754  34.063  48.613  1.00  0.00     0.007 A 
HETATM   31  C   UNL     1       6.336  32.728  48.557  1.00  0.00     0.014 A 
ENDBRANCH  23  25
ENDBRANCH   1  19
TORSDOF 5
ENDMDL
MODEL 9
REMARK VINA RESULT:      -8.4      3.605     11.378
REMARK  5 active torsions:
REMARK  status: ('A' for Active; 'I' for Inactive)
REMARK    1  A    between atoms: C_5  and  C_6 
REMARK    2  A    between atoms: C_10  and  C_11 
REMARK       I    between atoms: C_11  and  N_12 
REMARK    3  A    between atoms: N_12  and  N_13 
REMARK       I    between atoms: N_13  and  C_14 
REMARK       I    between atoms: C_14  and  N_15 
REMARK    4  A    between atoms: N_15  and  C_16 
REMARK    5  A    between atoms: C_16  and  C_17 
ROOT
HETATM    1  C   UNL     1       6.714  28.768  56.650  1.00  0.00     0.288 C 
HETATM    2  N   UNL     1       5.995  29.104  57.775  1.00  0.00    -0.261 N 
HETATM    3  O   UNL     1       7.416  29.583  56.053  1.00  0.00    -0.264 OA
HETATM    4  H   UNL     1       5.378  28.464  58.269  1.00  0.00     0.190 HD
ENDROOT
BRANCH   2   5
HETATM    5  N   UNL     1       6.035  30.419  58.262  1.00  0.00    -0.249 N 
HETATM    6  C   UNL     1       4.962  31.219  57.934  1.00  0.00     0.334 C 
HETATM    7  N   UNL     1       5.126  32.514  58.349  1.00  0.00    -0.341 N 
HETATM    8  O   UNL     1       3.967  30.791  57.357  1.00  0.00    -0.246 OA
HETATM    9  H   UNL     1       5.832  32.680  59.051  1.00  0.00     0.164 HD
HETATM   10  H   UNL     1       6.962  30.830  58.329  1.00  0.00     0.192 HD
BRANCH   7  11
HETATM   11  C   UNL     1       4.045  33.476  58.236  1.00  0.00     0.129 C 
BRANCH  11  12
HETATM   12  C   UNL     1       4.153  34.610  59.273  1.00  0.00     0.004 C 
HETATM   13  C   UNL     1       3.641  35.977  58.773  1.00  0.00     0.010 C 
HETATM   14  C   UNL     1       2.119  36.195  58.813  1.00  0.00    -0.018 C 
HETATM   15  C   UNL     1       1.518  35.738  60.147  1.00  0.00     0.004 C 
HETATM   16  C   UNL     1       1.387  35.578  57.621  1.00  0.00     0.010 C 
HETATM   17  C   UNL     1       1.958  34.335  60.551  1.00  0.00     0.001 C 
HETATM   18  C   UNL     1       3.479  34.224  60.598  1.00  0.00     0.006 C 
ENDBRANCH  11  12
ENDBRANCH   7  11
ENDBRANCH   2   5
BRANCH   1  19
HETATM   19  C   UNL     1       6.574  27.403  56.224  1.00  0.00     0.121 A 
HETATM   20  N   UNL     1       5.477  26.654  56.540  1.00  0.00    -0.272 N 
HETATM   21  N   UNL     1       5.519  25.395  56.083  1.00  0.00    -0.174 NA
HETATM   22  H   UNL     1       4.666  26.954  57.074  1.00  0.00     0.189 HD
HETATM   23  C   UNL     1       6.691  25.305  55.431  1.00  0.00     0.089 A 
HETATM   24  C   UNL     1       7.379  26.551  55.494  1.00  0.00     0.071 A 
BRANCH  23  25
HETATM   25  C   UNL     1       7.134  24.059  54.795  1.00  0.00    -0.006 A 
HETATM   26  C   UNL     1       7.305  23.972  53.407  1.00  0.00     0.014 A 
HETATM   27  C   UNL     1       7.755  22.787  52.812  1.00  0.00     0.007 A 
HETATM   28  C   UNL     1       8.033  21.661  53.593  1.00  0.00    -0.062 A 
HETATM   29  C   UNL     1       8.556  20.404  52.968  1.00  0.00     0.048 C 
HETATM   30  C   UNL     1       7.865  21.742  54.980  1.00  0.00     0.007 A 
HETATM   31  C   UNL     1       7.414  22.926  55.572  1.00  0.00     0.014 A 
ENDBRANCH  23  25
ENDBRANCH   1  19
TORSDOF 5
ENDMDL
MODEL 10
REMARK VINA RESULT:      -8.4      6.827     10.105
REMARK  5 active torsions:
REMARK  status: ('A' for Active; 'I' for Inactive)
REMARK    1  A    between atoms: C_5  and  C_6 
REMARK    2  A    between atoms: C_10  and  C_11 
REMARK       I    between atoms: C_11  and  N_12 
REMARK    3  A    between atoms: N_12  and  N_13 
REMARK       I    between atoms: N_13  and  C_14 
REMARK       I    between atoms: C_14  and  N_15 
REMARK    4  A    between atoms: N_15  and  C_16 
REMARK    5  A    between atoms: C_16  and  C_17 
ROOT
HETATM    1  C   UNL     1       4.299  28.248  52.736  1.00  0.00     0.288 C 
HETATM    2  N   UNL     1       5.226  27.297  52.374  1.00  0.00    -0.261 N 
HETATM    3  O   UNL     1       4.218  28.682  53.883  1.00  0.00    -0.264 OA
HETATM    4  H   UNL     1       5.294  26.891  51.444  1.00  0.00     0.190 HD
ENDROOT
BRANCH   2   5
HETATM    5  N   UNL     1       6.106  26.779  53.337  1.00  0.00    -0.249 N 
HETATM    6  C   UNL     1       6.084  25.411  53.503  1.00  0.00     0.334 C 
HETATM    7  N   UNL     1       6.885  24.994  54.533  1.00  0.00    -0.341 N 
HETATM    8  O   UNL     1       5.433  24.664  52.778  1.00  0.00    -0.246 OA
HETATM    9  H   UNL     1       7.580  25.648  54.861  1.00  0.00     0.164 HD
HETATM   10  H   UNL     1       6.270  27.377  54.142  1.00  0.00     0.192 HD
BRANCH   7  11
HETATM   11  C   UNL     1       7.120  23.582  54.771  1.00  0.00     0.129 C 
BRANCH  11  12
HETATM   12  C   UNL     1       8.425  23.081  54.124  1.00  0.00     0.004 C 
HETATM   13  C   UNL     1       9.371  22.344  55.093  1.00  0.00     0.010 C 
HETATM   14  C   UNL     1       9.044  20.868  55.381  1.00  0.00    -0.018 C 
HETATM   15  C   UNL     1       8.723  20.100  54.094  1.00  0.00     0.004 C 
HETATM   16  C   UNL     1       7.953  20.684  56.437  1.00  0.00     0.010 C 
HETATM   17  C   UNL     1       7.696  20.808  53.216  1.00  0.00     0.001 C 
HETATM   18  C   UNL     1       8.141  22.228  52.880  1.00  0.00     0.006 C 
ENDBRANCH  11  12
ENDBRANCH   7  11
ENDBRANCH   2   5
BRANCH   1  19
HETATM   19  C   UNL     1       3.431  28.684  51.677  1.00  0.00     0.121 A 
HETATM   20  N   UNL     1       2.819  29.905  51.697  1.00  0.00    -0.272 N 
HETATM   21  N   UNL     1       2.027  30.141  50.642  1.00  0.00    -0.174 NA
HETATM   22  H   UNL     1       2.905  30.618  52.415  1.00  0.00     0.189 HD
HETATM   23  C   UNL     1       2.121  29.034  49.887  1.00  0.00     0.089 A 
HETATM   24  C   UNL     1       2.999  28.098  50.503  1.00  0.00     0.071 A 
BRANCH  23  25
HETATM   25  C   UNL     1       1.371  28.882  48.634  1.00  0.00    -0.006 A 
HETATM   26  C   UNL     1       0.868  29.996  47.949  1.00  0.00     0.014 A 
HETATM   27  C   UNL     1       0.180  29.843  46.739  1.00  0.00     0.007 A 
HETATM   28  C   UNL     1      -0.029  28.572  46.196  1.00  0.00    -0.062 A 
HETATM   29  C   UNL     1      -0.728  28.405  44.880  1.00  0.00     0.048 C 
HETATM   30  C   UNL     1       0.472  27.456  46.875  1.00  0.00     0.007 A 
HETATM   31  C   UNL     1       1.159  27.611  48.084  1.00  0.00     0.014 A 
ENDBRANCH  23  25
ENDBRANCH   1  19
TORSDOF 5
ENDMDL
