MODEL 1
REMARK VINA RESULT:      -9.3      0.000      0.000
REMARK  2 active torsions:
REMARK  status: ('A' for Active; 'I' for Inactive)
REMARK    1  A    between atoms: C_7  and  C_8 
REMARK    2  A    between atoms: C_8  and  O_9 
ROOT
HETATM    1  C   UNL     1       6.778  28.072  55.670  1.00  0.00     0.199 A 
HETATM    2  C   UNL     1       5.448  28.304  56.459  1.00  0.00     0.266 A 
HETATM    3  O   UNL     1       4.319  27.971  56.127  1.00  0.00    -0.269 OA
HETATM    4  N   UNL     1       5.764  29.030  57.607  1.00  0.00    -0.323 N 
HETATM    5  C   UNL     1       7.122  29.305  57.668  1.00  0.00     0.045 A 
HETATM    6  C   UNL     1       7.783  28.757  56.564  1.00  0.00     0.019 A 
HETATM    7  C   UNL     1       7.777  30.027  58.645  1.00  0.00     0.032 A 
HETATM    8  C   UNL     1       9.155  30.204  58.499  1.00  0.00     0.026 A 
HETATM    9  C   UNL     1       9.832  29.663  57.392  1.00  0.00     0.034 A 
HETATM   10 CL   UNL     1      11.530  29.906  57.239  1.00  0.00    -0.084 Cl
HETATM   11  C   UNL     1       9.151  28.938  56.411  1.00  0.00     0.037 A 
HETATM   12  H   UNL     1       5.067  29.337  58.268  1.00  0.00     0.169 HD
ENDROOT
BRANCH   1  13
HETATM   13  C   UNL     1       7.199  26.625  55.538  1.00  0.00     0.025 A 
HETATM   14  C   UNL     1       7.497  25.756  56.592  1.00  0.00     0.016 A 
HETATM   15  C   UNL     1       7.493  25.959  58.067  1.00  0.00     0.069 C 
HETATM   16  N   UNL     1       7.843  24.541  56.061  1.00  0.00    -0.359 N 
HETATM   17  H   UNL     1       8.109  23.727  56.597  1.00  0.00     0.166 HD
HETATM   18  C   UNL     1       7.776  24.572  54.693  1.00  0.00     0.043 A 
HETATM   19  C   UNL     1       7.372  25.856  54.325  1.00  0.00     0.003 A 
HETATM   20  C   UNL     1       8.047  23.555  53.768  1.00  0.00     0.030 A 
HETATM   21  C   UNL     1       7.228  26.121  52.943  1.00  0.00     0.014 A 
HETATM   22  C   UNL     1       7.498  25.117  52.004  1.00  0.00     0.001 A 
HETATM   23  C   UNL     1       7.902  23.852  52.412  1.00  0.00     0.002 A 
ENDBRANCH   1  13
BRANCH   1  24
HETATM   24  O   UNL     1       6.703  28.751  54.420  1.00  0.00    -0.371 OA
HETATM   25  H   UNL     1       5.926  28.360  53.983  1.00  0.00     0.212 HD
ENDBRANCH   1  24
TORSDOF 2
ENDMDL
MODEL 2
REMARK VINA RESULT:      -8.7      2.496      3.501
REMARK  2 active torsions:
REMARK  status: ('A' for Active; 'I' for Inactive)
REMARK    1  A    between atoms: C_7  and  C_8 
REMARK    2  A    between atoms: C_8  and  O_9 
ROOT
HETATM    1  C   UNL     1       6.467  25.355  53.604  1.00  0.00     0.199 A 
HETATM    2  C   UNL     1       4.936  25.419  53.294  1.00  0.00     0.266 A 
HETATM    3  O   UNL     1       4.270  24.608  52.666  1.00  0.00    -0.269 OA
HETATM    4  N   UNL     1       4.454  26.620  53.812  1.00  0.00    -0.323 N 
HETATM    5  C   UNL     1       5.469  27.349  54.415  1.00  0.00     0.045 A 
HETATM    6  C   UNL     1       6.681  26.655  54.340  1.00  0.00     0.019 A 
HETATM    7  C   UNL     1       5.358  28.593  55.001  1.00  0.00     0.032 A 
HETATM    8  C   UNL     1       6.520  29.160  55.533  1.00  0.00     0.026 A 
HETATM    9  C   UNL     1       7.746  28.475  55.462  1.00  0.00     0.034 A 
HETATM   10 CL   UNL     1       9.160  29.205  56.120  1.00  0.00    -0.084 Cl
HETATM   11  C   UNL     1       7.839  27.218  54.860  1.00  0.00     0.037 A 
HETATM   12  H   UNL     1       3.494  26.915  53.710  1.00  0.00     0.169 HD
ENDROOT
BRANCH   1  13
HETATM   13  C   UNL     1       6.885  24.234  54.529  1.00  0.00     0.025 A 
HETATM   14  C   UNL     1       6.759  24.226  55.921  1.00  0.00     0.016 A 
HETATM   15  C   UNL     1       6.211  25.238  56.866  1.00  0.00     0.069 C 
HETATM   16  N   UNL     1       7.259  23.040  56.390  1.00  0.00    -0.359 N 
HETATM   17  H   UNL     1       7.295  22.768  57.363  1.00  0.00     0.166 HD
HETATM   18  C   UNL     1       7.705  22.257  55.357  1.00  0.00     0.043 A 
HETATM   19  C   UNL     1       7.485  22.965  54.175  1.00  0.00     0.003 A 
HETATM   20  C   UNL     1       8.284  20.983  55.396  1.00  0.00     0.030 A 
HETATM   21  C   UNL     1       7.867  22.343  52.965  1.00  0.00     0.014 A 
HETATM   22  C   UNL     1       8.452  21.069  52.983  1.00  0.00     0.001 A 
HETATM   23  C   UNL     1       8.658  20.400  54.184  1.00  0.00     0.002 A 
ENDBRANCH   1  13
BRANCH   1  24
HETATM   24  O   UNL     1       7.192  25.371  52.377  1.00  0.00    -0.371 OA
HETATM   25  H   UNL     1       6.503  25.304  51.693  1.00  0.00     0.212 HD
ENDBRANCH   1  24
TORSDOF 2
ENDMDL
MODEL 3
REMARK VINA RESULT:      -8.6      2.692      5.647
REMARK  2 active torsions:
REMARK  status: ('A' for Active; 'I' for Inactive)
REMARK    1  A    between atoms: C_7  and  C_8 
REMARK    2  A    between atoms: C_8  and  O_9 
ROOT
HETATM    1  C   UNL     1       6.018  25.929  54.258  1.00  0.00     0.199 A 
HETATM    2  C   UNL     1       6.350  26.598  52.884  1.00  0.00     0.266 A 
HETATM    3  O   UNL     1       5.937  27.668  52.459  1.00  0.00    -0.269 OA
HETATM    4  N   UNL     1       7.169  25.718  52.177  1.00  0.00    -0.323 N 
HETATM    5  C   UNL     1       7.410  24.563  52.906  1.00  0.00     0.045 A 
HETATM    6  C   UNL     1       6.772  24.626  54.150  1.00  0.00     0.019 A 
HETATM    7  C   UNL     1       8.149  23.469  52.503  1.00  0.00     0.032 A 
HETATM    8  C   UNL     1       8.247  22.396  53.393  1.00  0.00     0.026 A 
HETATM    9  C   UNL     1       7.608  22.444  54.644  1.00  0.00     0.034 A 
HETATM   10 CL   UNL     1       7.743  21.101  55.713  1.00  0.00    -0.084 Cl
HETATM   11  C   UNL     1       6.860  23.558  55.033  1.00  0.00     0.037 A 
HETATM   12  H   UNL     1       7.494  25.906  51.241  1.00  0.00     0.169 HD
ENDROOT
BRANCH   1  13
HETATM   13  C   UNL     1       6.548  26.662  55.470  1.00  0.00     0.025 A 
HETATM   14  C   UNL     1       6.088  26.522  56.782  1.00  0.00     0.016 A 
HETATM   15  C   UNL     1       5.014  25.670  57.364  1.00  0.00     0.069 C 
HETATM   16  N   UNL     1       6.817  27.361  57.584  1.00  0.00    -0.359 N 
HETATM   17  H   UNL     1       6.693  27.465  58.581  1.00  0.00     0.166 HD
HETATM   18  C   UNL     1       7.750  28.046  56.851  1.00  0.00     0.043 A 
HETATM   19  C   UNL     1       7.619  27.634  55.524  1.00  0.00     0.003 A 
HETATM   20  C   UNL     1       8.690  28.994  57.274  1.00  0.00     0.030 A 
HETATM   21  C   UNL     1       8.494  28.212  54.575  1.00  0.00     0.014 A 
HETATM   22  C   UNL     1       9.438  29.165  54.979  1.00  0.00     0.001 A 
HETATM   23  C   UNL     1       9.533  29.551  56.311  1.00  0.00     0.002 A 
ENDBRANCH   1  13
BRANCH   1  24
HETATM   24  O   UNL     1       4.618  25.671  54.325  1.00  0.00    -0.371 OA
HETATM   25  H   UNL     1       4.335  25.657  53.393  1.00  0.00     0.212 HD
ENDBRANCH   1  24
TORSDOF 2
ENDMDL
MODEL 4
REMARK VINA RESULT:      -8.3      7.050      9.057
REMARK  2 active torsions:
REMARK  status: ('A' for Active; 'I' for Inactive)
REMARK    1  A    between atoms: C_7  and  C_8 
REMARK    2  A    between atoms: C_8  and  O_9 
ROOT
HETATM    1  C   UNL     1       4.631  32.740  61.892  1.00  0.00     0.199 A 
HETATM    2  C   UNL     1       4.839  31.919  63.206  1.00  0.00     0.266 A 
HETATM    3  O   UNL     1       4.689  30.715  63.363  1.00  0.00    -0.269 OA
HETATM    4  N   UNL     1       5.173  32.822  64.215  1.00  0.00    -0.323 N 
HETATM    5  C   UNL     1       5.205  34.122  63.734  1.00  0.00     0.045 A 
HETATM    6  C   UNL     1       4.908  34.146  62.367  1.00  0.00     0.019 A 
HETATM    7  C   UNL     1       5.468  35.267  64.459  1.00  0.00     0.032 A 
HETATM    8  C   UNL     1       5.427  36.485  63.775  1.00  0.00     0.026 A 
HETATM    9  C   UNL     1       5.127  36.524  62.402  1.00  0.00     0.034 A 
HETATM   10 CL   UNL     1       5.078  38.042  61.591  1.00  0.00    -0.084 Cl
HETATM   11  C   UNL     1       4.859  35.355  61.686  1.00  0.00     0.037 A 
HETATM   12  H   UNL     1       5.325  32.541  65.172  1.00  0.00     0.169 HD
ENDROOT
BRANCH   1  13
HETATM   13  C   UNL     1       5.614  32.432  60.784  1.00  0.00     0.025 A 
HETATM   14  C   UNL     1       5.302  32.266  59.432  1.00  0.00     0.016 A 
HETATM   15  C   UNL     1       4.006  32.336  58.703  1.00  0.00     0.069 C 
HETATM   16  N   UNL     1       6.462  31.991  58.756  1.00  0.00    -0.359 N 
HETATM   17  H   UNL     1       6.530  31.823  57.762  1.00  0.00     0.166 HD
HETATM   18  C   UNL     1       7.533  31.978  59.611  1.00  0.00     0.043 A 
HETATM   19  C   UNL     1       7.046  32.254  60.889  1.00  0.00     0.003 A 
HETATM   20  C   UNL     1       8.885  31.739  59.337  1.00  0.00     0.030 A 
HETATM   21  C   UNL     1       7.984  32.299  61.946  1.00  0.00     0.014 A 
HETATM   22  C   UNL     1       9.341  32.059  61.691  1.00  0.00     0.001 A 
HETATM   23  C   UNL     1       9.784  31.782  60.404  1.00  0.00     0.002 A 
ENDBRANCH   1  13
BRANCH   1  24
HETATM   24  O   UNL     1       3.271  32.629  61.484  1.00  0.00    -0.371 OA
HETATM   25  H   UNL     1       2.778  32.542  62.319  1.00  0.00     0.212 HD
ENDBRANCH   1  24
TORSDOF 2
ENDMDL
MODEL 5
REMARK VINA RESULT:      -8.3      8.269     10.479
REMARK  2 active torsions:
REMARK  status: ('A' for Active; 'I' for Inactive)
REMARK    1  A    between atoms: C_7  and  C_8 
REMARK    2  A    between atoms: C_8  and  O_9 
ROOT
HETATM    1  C   UNL     1       3.742  34.742  62.192  1.00  0.00     0.199 A 
HETATM    2  C   UNL     1       3.022  34.433  63.546  1.00  0.00     0.266 A 
HETATM    3  O   UNL     1       2.196  33.559  63.765  1.00  0.00    -0.269 OA
HETATM    4  N   UNL     1       3.445  35.386  64.472  1.00  0.00    -0.323 N 
HETATM    5  C   UNL     1       4.340  36.278  63.900  1.00  0.00     0.045 A 
HETATM    6  C   UNL     1       4.571  35.949  62.560  1.00  0.00     0.019 A 
HETATM    7  C   UNL     1       4.933  37.363  64.513  1.00  0.00     0.032 A 
HETATM    8  C   UNL     1       5.793  38.148  63.741  1.00  0.00     0.026 A 
HETATM    9  C   UNL     1       6.032  37.831  62.392  1.00  0.00     0.034 A 
HETATM   10 CL   UNL     1       7.092  38.823  61.467  1.00  0.00    -0.084 Cl
HETATM   11  C   UNL     1       5.419  36.731  61.787  1.00  0.00     0.037 A 
HETATM   12  H   UNL     1       3.094  35.423  65.417  1.00  0.00     0.169 HD
ENDROOT
BRANCH   1  13
HETATM   13  C   UNL     1       4.692  33.667  61.713  1.00  0.00     0.025 A 
HETATM   14  C   UNL     1       4.552  32.905  60.550  1.00  0.00     0.016 A 
HETATM   15  C   UNL     1       3.507  32.909  59.489  1.00  0.00     0.069 C 
HETATM   16  N   UNL     1       5.609  32.037  60.477  1.00  0.00    -0.359 N 
HETATM   17  H   UNL     1       5.760  31.365  59.737  1.00  0.00     0.166 HD
HETATM   18  C   UNL     1       6.450  32.203  61.546  1.00  0.00     0.043 A 
HETATM   19  C   UNL     1       5.915  33.216  62.342  1.00  0.00     0.003 A 
HETATM   20  C   UNL     1       7.636  31.525  61.856  1.00  0.00     0.030 A 
HETATM   21  C   UNL     1       6.626  33.567  63.513  1.00  0.00     0.014 A 
HETATM   22  C   UNL     1       7.812  32.897  63.841  1.00  0.00     0.001 A 
HETATM   23  C   UNL     1       8.309  31.890  63.023  1.00  0.00     0.002 A 
ENDBRANCH   1  13
BRANCH   1  24
HETATM   24  O   UNL     1       2.768  35.106  61.219  1.00  0.00    -0.371 OA
HETATM   25  H   UNL     1       1.967  35.290  61.741  1.00  0.00     0.212 HD
ENDBRANCH   1  24
TORSDOF 2
ENDMDL
MODEL 6
REMARK VINA RESULT:      -8.1      7.042      9.473
REMARK  2 active torsions:
REMARK  status: ('A' for Active; 'I' for Inactive)
REMARK    1  A    between atoms: C_7  and  C_8 
REMARK    2  A    between atoms: C_8  and  O_9 
ROOT
HETATM    1  C   UNL     1       5.169  33.564  61.951  1.00  0.00     0.199 A 
HETATM    2  C   UNL     1       4.036  32.792  62.704  1.00  0.00     0.266 A 
HETATM    3  O   UNL     1       3.619  31.667  62.467  1.00  0.00    -0.269 OA
HETATM    4  N   UNL     1       3.524  33.647  63.679  1.00  0.00    -0.323 N 
HETATM    5  C   UNL     1       4.168  34.875  63.658  1.00  0.00     0.045 A 
HETATM    6  C   UNL     1       5.159  34.891  62.670  1.00  0.00     0.019 A 
HETATM    7  C   UNL     1       3.898  35.966  64.458  1.00  0.00     0.032 A 
HETATM    8  C   UNL     1       4.659  37.120  64.253  1.00  0.00     0.026 A 
HETATM    9  C   UNL     1       5.656  37.151  63.262  1.00  0.00     0.034 A 
HETATM   10 CL   UNL     1       6.570  38.591  63.030  1.00  0.00    -0.084 Cl
HETATM   11  C   UNL     1       5.912  36.039  62.458  1.00  0.00     0.037 A 
HETATM   12  H   UNL     1       2.755  33.393  64.280  1.00  0.00     0.169 HD
ENDROOT
BRANCH   1  13
HETATM   13  C   UNL     1       6.553  32.975  62.100  1.00  0.00     0.025 A 
HETATM   14  C   UNL     1       7.287  32.890  63.287  1.00  0.00     0.016 A 
HETATM   15  C   UNL     1       6.965  33.315  64.677  1.00  0.00     0.069 C 
HETATM   16  N   UNL     1       8.492  32.302  63.004  1.00  0.00    -0.359 N 
HETATM   17  H   UNL     1       9.222  32.118  63.678  1.00  0.00     0.166 HD
HETATM   18  C   UNL     1       8.579  31.987  61.673  1.00  0.00     0.043 A 
HETATM   19  C   UNL     1       7.385  32.387  61.073  1.00  0.00     0.003 A 
HETATM   20  C   UNL     1       9.630  31.382  60.972  1.00  0.00     0.030 A 
HETATM   21  C   UNL     1       7.246  32.153  59.685  1.00  0.00     0.014 A 
HETATM   22  C   UNL     1       8.287  31.552  58.966  1.00  0.00     0.001 A 
HETATM   23  C   UNL     1       9.463  31.173  59.602  1.00  0.00     0.002 A 
ENDBRANCH   1  13
BRANCH   1  24
HETATM   24  O   UNL     1       4.780  33.751  60.592  1.00  0.00    -0.371 OA
HETATM   25  H   UNL     1       5.570  33.498  60.082  1.00  0.00     0.212 HD
ENDBRANCH   1  24
TORSDOF 2
ENDMDL
MODEL 7
REMARK VINA RESULT:      -7.9      7.764     10.588
REMARK  2 active torsions:
REMARK  status: ('A' for Active; 'I' for Inactive)
REMARK    1  A    between atoms: C_7  and  C_8 
REMARK    2  A    between atoms: C_8  and  O_9 
ROOT
HETATM    1  C   UNL     1       4.978  34.677  63.310  1.00  0.00     0.199 A 
HETATM    2  C   UNL     1       4.278  34.684  64.709  1.00  0.00     0.266 A 
HETATM    3  O   UNL     1       3.688  33.759  65.249  1.00  0.00    -0.269 OA
HETATM    4  N   UNL     1       4.387  35.975  65.225  1.00  0.00    -0.323 N 
HETATM    5  C   UNL     1       5.060  36.811  64.347  1.00  0.00     0.045 A 
HETATM    6  C   UNL     1       5.449  36.107  63.202  1.00  0.00     0.019 A 
HETATM    7  C   UNL     1       5.318  38.155  64.519  1.00  0.00     0.032 A 
HETATM    8  C   UNL     1       5.997  38.816  63.491  1.00  0.00     0.026 A 
HETATM    9  C   UNL     1       6.391  38.123  62.334  1.00  0.00     0.034 A 
HETATM   10 CL   UNL     1       7.219  38.969  61.083  1.00  0.00    -0.084 Cl
HETATM   11  C   UNL     1       6.116  36.763  62.176  1.00  0.00     0.037 A 
HETATM   12  H   UNL     1       3.981  36.247  66.108  1.00  0.00     0.169 HD
ENDROOT
BRANCH   1  13
HETATM   13  C   UNL     1       6.197  33.788  63.210  1.00  0.00     0.025 A 
HETATM   14  C   UNL     1       7.085  33.490  64.247  1.00  0.00     0.016 A 
HETATM   15  C   UNL     1       7.113  33.916  65.673  1.00  0.00     0.069 C 
HETATM   16  N   UNL     1       8.058  32.661  63.753  1.00  0.00    -0.359 N 
HETATM   17  H   UNL     1       8.832  32.290  64.286  1.00  0.00     0.166 HD
HETATM   18  C   UNL     1       7.841  32.392  62.427  1.00  0.00     0.043 A 
HETATM   19  C   UNL     1       6.683  33.074  62.049  1.00  0.00     0.003 A 
HETATM   20  C   UNL     1       8.589  31.598  61.548  1.00  0.00     0.030 A 
HETATM   21  C   UNL     1       6.257  32.937  60.708  1.00  0.00     0.014 A 
HETATM   22  C   UNL     1       6.995  32.150  59.813  1.00  0.00     0.001 A 
HETATM   23  C   UNL     1       8.146  31.491  60.229  1.00  0.00     0.002 A 
ENDBRANCH   1  13
BRANCH   1  24
HETATM   24  O   UNL     1       4.005  34.413  62.304  1.00  0.00    -0.371 OA
HETATM   25  H   UNL     1       4.015  33.444  62.211  1.00  0.00     0.212 HD
ENDBRANCH   1  24
TORSDOF 2
ENDMDL
MODEL 8
REMARK VINA RESULT:      -7.8      9.528     11.635
REMARK  2 active torsions:
REMARK  status: ('A' for Active; 'I' for Inactive)
REMARK    1  A    between atoms: C_7  and  C_8 
REMARK    2  A    between atoms: C_8  and  O_9 
ROOT
HETATM    1  C   UNL     1       5.075  33.329  62.322  1.00  0.00     0.199 A 
HETATM    2  C   UNL     1       3.753  32.496  62.239  1.00  0.00     0.266 A 
HETATM    3  O   UNL     1       3.613  31.301  62.456  1.00  0.00    -0.269 OA
HETATM    4  N   UNL     1       2.745  33.354  61.802  1.00  0.00    -0.323 N 
HETATM    5  C   UNL     1       3.234  34.634  61.585  1.00  0.00     0.045 A 
HETATM    6  C   UNL     1       4.599  34.693  61.885  1.00  0.00     0.019 A 
HETATM    7  C   UNL     1       2.525  35.723  61.123  1.00  0.00     0.032 A 
HETATM    8  C   UNL     1       3.224  36.922  60.955  1.00  0.00     0.026 A 
HETATM    9  C   UNL     1       4.597  36.995  61.249  1.00  0.00     0.034 A 
HETATM   10 CL   UNL     1       5.430  38.485  61.024  1.00  0.00    -0.084 Cl
HETATM   11  C   UNL     1       5.299  35.880  61.712  1.00  0.00     0.037 A 
HETATM   12  H   UNL     1       1.799  33.046  61.634  1.00  0.00     0.169 HD
ENDROOT
BRANCH   1  13
HETATM   13  C   UNL     1       5.653  33.472  63.712  1.00  0.00     0.025 A 
HETATM   14  C   UNL     1       6.932  33.076  64.115  1.00  0.00     0.016 A 
HETATM   15  C   UNL     1       8.049  32.440  63.364  1.00  0.00     0.069 C 
HETATM   16  N   UNL     1       7.070  33.366  65.446  1.00  0.00    -0.359 N 
HETATM   17  H   UNL     1       7.896  33.184  65.998  1.00  0.00     0.166 HD
HETATM   18  C   UNL     1       5.931  33.949  65.938  1.00  0.00     0.043 A 
HETATM   19  C   UNL     1       5.022  34.037  64.884  1.00  0.00     0.003 A 
HETATM   20  C   UNL     1       5.652  34.395  67.236  1.00  0.00     0.030 A 
HETATM   21  C   UNL     1       3.762  34.617  65.160  1.00  0.00     0.014 A 
HETATM   22  C   UNL     1       3.464  35.067  66.453  1.00  0.00     0.001 A 
HETATM   23  C   UNL     1       4.397  34.956  67.477  1.00  0.00     0.002 A 
ENDBRANCH   1  13
BRANCH   1  24
HETATM   24  O   UNL     1       6.007  32.818  61.374  1.00  0.00    -0.371 OA
HETATM   25  H   UNL     1       6.024  31.860  61.549  1.00  0.00     0.212 HD
ENDBRANCH   1  24
TORSDOF 2
ENDMDL
MODEL 9
REMARK VINA RESULT:      -7.8      8.589     10.907
REMARK  2 active torsions:
REMARK  status: ('A' for Active; 'I' for Inactive)
REMARK    1  A    between atoms: C_7  and  C_8 
REMARK    2  A    between atoms: C_8  and  O_9 
ROOT
HETATM    1  C   UNL     1       5.403  32.464  62.652  1.00  0.00     0.199 A 
HETATM    2  C   UNL     1       6.913  32.152  62.384  1.00  0.00     0.266 A 
HETATM    3  O   UNL     1       7.392  31.569  61.422  1.00  0.00    -0.269 OA
HETATM    4  N   UNL     1       7.635  32.607  63.486  1.00  0.00    -0.323 N 
HETATM    5  C   UNL     1       6.798  33.169  64.438  1.00  0.00     0.045 A 
HETATM    6  C   UNL     1       5.468  33.130  64.005  1.00  0.00     0.019 A 
HETATM    7  C   UNL     1       7.167  33.689  65.662  1.00  0.00     0.032 A 
HETATM    8  C   UNL     1       6.152  34.189  66.482  1.00  0.00     0.026 A 
HETATM    9  C   UNL     1       4.811  34.153  66.061  1.00  0.00     0.034 A 
HETATM   10 CL   UNL     1       3.583  34.770  67.098  1.00  0.00    -0.084 Cl
HETATM   11  C   UNL     1       4.456  33.618  64.820  1.00  0.00     0.037 A 
HETATM   12  H   UNL     1       8.634  32.491  63.571  1.00  0.00     0.169 HD
ENDROOT
BRANCH   1  13
HETATM   13  C   UNL     1       4.773  33.447  61.691  1.00  0.00     0.025 A 
HETATM   14  C   UNL     1       3.878  33.134  60.664  1.00  0.00     0.016 A 
HETATM   15  C   UNL     1       3.298  31.835  60.224  1.00  0.00     0.069 C 
HETATM   16  N   UNL     1       3.547  34.295  60.016  1.00  0.00    -0.359 N 
HETATM   17  H   UNL     1       2.916  34.362  59.229  1.00  0.00     0.166 HD
HETATM   18  C   UNL     1       4.185  35.367  60.582  1.00  0.00     0.043 A 
HETATM   19  C   UNL     1       4.959  34.881  61.637  1.00  0.00     0.003 A 
HETATM   20  C   UNL     1       4.128  36.722  60.230  1.00  0.00     0.030 A 
HETATM   21  C   UNL     1       5.710  35.821  62.379  1.00  0.00     0.014 A 
HETATM   22  C   UNL     1       5.668  37.180  62.039  1.00  0.00     0.001 A 
HETATM   23  C   UNL     1       4.888  37.623  60.978  1.00  0.00     0.002 A 
ENDBRANCH   1  13
BRANCH   1  24
HETATM   24  O   UNL     1       4.685  31.237  62.753  1.00  0.00    -0.371 OA
HETATM   25  H   UNL     1       5.099  30.781  63.507  1.00  0.00     0.212 HD
ENDBRANCH   1  24
TORSDOF 2
ENDMDL
MODEL 10
REMARK VINA RESULT:      -7.7      8.103     11.677
REMARK  2 active torsions:
REMARK  status: ('A' for Active; 'I' for Inactive)
REMARK    1  A    between atoms: C_7  and  C_8 
REMARK    2  A    between atoms: C_8  and  O_9 
ROOT
HETATM    1  C   UNL     1       4.301  33.825  63.722  1.00  0.00     0.199 A 
HETATM    2  C   UNL     1       2.850  33.665  63.159  1.00  0.00     0.266 A 
HETATM    3  O   UNL     1       1.798  33.867  63.748  1.00  0.00    -0.269 OA
HETATM    4  N   UNL     1       2.959  33.180  61.856  1.00  0.00    -0.323 N 
HETATM    5  C   UNL     1       4.287  32.998  61.498  1.00  0.00     0.045 A 
HETATM    6  C   UNL     1       5.133  33.371  62.547  1.00  0.00     0.019 A 
HETATM    7  C   UNL     1       4.760  32.504  60.299  1.00  0.00     0.032 A 
HETATM    8  C   UNL     1       6.145  32.382  60.156  1.00  0.00     0.026 A 
HETATM    9  C   UNL     1       7.007  32.750  61.203  1.00  0.00     0.034 A 
HETATM   10 CL   UNL     1       8.708  32.579  60.996  1.00  0.00    -0.084 Cl
HETATM   11  C   UNL     1       6.509  33.243  62.411  1.00  0.00     0.037 A 
HETATM   12  H   UNL     1       2.156  32.959  61.286  1.00  0.00     0.169 HD
ENDROOT
BRANCH   1  13
HETATM   13  C   UNL     1       4.708  35.245  64.047  1.00  0.00     0.025 A 
HETATM   14  C   UNL     1       4.955  35.758  65.324  1.00  0.00     0.016 A 
HETATM   15  C   UNL     1       4.905  35.120  66.668  1.00  0.00     0.069 C 
HETATM   16  N   UNL     1       5.287  37.081  65.197  1.00  0.00    -0.359 N 
HETATM   17  H   UNL     1       5.514  37.699  65.963  1.00  0.00     0.166 HD
HETATM   18  C   UNL     1       5.277  37.461  63.880  1.00  0.00     0.043 A 
HETATM   19  C   UNL     1       4.924  36.340  63.127  1.00  0.00     0.003 A 
HETATM   20  C   UNL     1       5.553  38.713  63.315  1.00  0.00     0.030 A 
HETATM   21  C   UNL     1       4.854  36.496  61.724  1.00  0.00     0.014 A 
HETATM   22  C   UNL     1       5.124  37.742  61.141  1.00  0.00     0.001 A 
HETATM   23  C   UNL     1       5.468  38.835  61.928  1.00  0.00     0.002 A 
ENDBRANCH   1  13
BRANCH   1  24
HETATM   24  O   UNL     1       4.478  32.925  64.813  1.00  0.00    -0.371 OA
HETATM   25  H   UNL     1       5.034  32.214  64.448  1.00  0.00     0.212 HD
ENDBRANCH   1  24
TORSDOF 2
ENDMDL
