MODEL 1
REMARK VINA RESULT:      -8.9      0.000      0.000
REMARK  6 active torsions:
REMARK  status: ('A' for Active; 'I' for Inactive)
REMARK    1  A    between atoms: O_2  and  C_3 
REMARK    2  A    between atoms: C_7  and  C_8 
REMARK    3  A    between atoms: C_8  and  N_9 
REMARK    4  A    between atoms: N_9  and  C_10 
REMARK       I    between atoms: N_9  and  C_13 
REMARK       I    between atoms: C_13  and  N_15 
REMARK    5  A    between atoms: N_15  and  C_16 
REMARK    6  A    between atoms: C_19  and  C_22 
ROOT
HETATM    1  N   UNL     1       7.082  29.206  57.697  1.00  0.00    -0.325 N 
HETATM    2  C   UNL     1       7.779  28.014  57.428  1.00  0.00     0.323 C 
HETATM    3  O   UNL     1       9.008  27.978  57.407  1.00  0.00    -0.247 OA
HETATM    4  N   UNL     1       6.964  26.928  57.179  1.00  0.00    -0.309 N 
HETATM    5  H   UNL     1       5.979  27.080  57.312  1.00  0.00     0.170 HD
ENDROOT
BRANCH   1   6
HETATM    6  C   UNL     1       7.874  30.438  57.770  1.00  0.00     0.166 C 
BRANCH   6   7
HETATM    7  C   UNL     1       8.047  30.933  59.189  1.00  0.00    -0.037 A 
HETATM    8  C   UNL     1       9.109  30.477  59.979  1.00  0.00     0.009 A 
HETATM    9  C   UNL     1       9.270  30.942  61.284  1.00  0.00     0.003 A 
HETATM   10  C   UNL     1       8.368  31.866  61.818  1.00  0.00     0.037 A 
HETATM   11  C   UNL     1       7.301  32.328  61.047  1.00  0.00     0.068 A 
HETATM   12  C   UNL     1       7.152  31.865  59.736  1.00  0.00     0.045 A 
BRANCH  11  13
HETATM   13  O   UNL     1       6.350  33.225  61.448  1.00  0.00    -0.356 OA
HETATM   14  C   UNL     1       5.088  32.690  61.828  1.00  0.00     0.210 C 
ENDBRANCH  11  13
ENDBRANCH   6   7
ENDBRANCH   1   6
BRANCH   1  15
HETATM   15  C   UNL     1       5.646  29.353  57.608  1.00  0.00     0.089 A 
HETATM   16  C   UNL     1       5.019  30.553  56.939  1.00  0.00     0.027 A 
HETATM   17  C   UNL     1       4.895  29.203  56.307  1.00  0.00     0.027 A 
ENDBRANCH   1  15
BRANCH   4  18
HETATM   18  C   UNL     1       7.342  25.627  56.789  1.00  0.00     0.036 A 
HETATM   19  C   UNL     1       8.264  24.839  57.475  1.00  0.00     0.030 A 
HETATM   20  C   UNL     1       8.602  23.561  57.007  1.00  0.00     0.014 A 
HETATM   21  C   UNL     1       8.026  23.048  55.839  1.00  0.00    -0.023 A 
HETATM   22  C   UNL     1       7.095  23.837  55.155  1.00  0.00     0.014 A 
HETATM   23  C   UNL     1       6.758  25.113  55.625  1.00  0.00     0.030 A 
BRANCH  21  24
HETATM   24  C   UNL     1       8.392  21.726  55.363  1.00  0.00     0.010 A 
HETATM   25  C   UNL     1       8.244  21.128  54.088  1.00  0.00     0.152 A 
HETATM   26  N   UNL     1       8.688  19.869  54.050  1.00  0.00    -0.187 NA
HETATM   27  N   UNL     1       9.115  19.650  55.304  1.00  0.00    -0.289 N 
HETATM   28  H   UNL     1       9.496  18.738  55.529  1.00  0.00     0.188 HD
HETATM   29  C   UNL     1       8.961  20.729  56.127  1.00  0.00     0.123 A 
ENDBRANCH  21  24
ENDBRANCH   4  18
TORSDOF 6
ENDMDL
MODEL 2
REMARK VINA RESULT:      -8.8      3.520     10.009
REMARK  6 active torsions:
REMARK  status: ('A' for Active; 'I' for Inactive)
REMARK    1  A    between atoms: O_2  and  C_3 
REMARK    2  A    between atoms: C_7  and  C_8 
REMARK    3  A    between atoms: C_8  and  N_9 
REMARK    4  A    between atoms: N_9  and  C_10 
REMARK       I    between atoms: N_9  and  C_13 
REMARK       I    between atoms: C_13  and  N_15 
REMARK    5  A    between atoms: N_15  and  C_16 
REMARK    6  A    between atoms: C_19  and  C_22 
ROOT
HETATM    1  N   UNL     1       8.227  29.738  57.101  1.00  0.00    -0.325 N 
HETATM    2  C   UNL     1       7.500  30.099  58.250  1.00  0.00     0.323 C 
HETATM    3  O   UNL     1       6.321  29.780  58.391  1.00  0.00    -0.247 OA
HETATM    4  N   UNL     1       8.221  30.842  59.163  1.00  0.00    -0.309 N 
HETATM    5  H   UNL     1       9.198  30.959  58.960  1.00  0.00     0.170 HD
ENDROOT
BRANCH   1   6
HETATM    6  C   UNL     1       7.475  29.126  56.001  1.00  0.00     0.166 C 
BRANCH   6   7
HETATM    7  C   UNL     1       7.597  27.618  55.983  1.00  0.00    -0.037 A 
HETATM    8  C   UNL     1       7.990  26.920  57.132  1.00  0.00     0.009 A 
HETATM    9  C   UNL     1       8.093  25.530  57.114  1.00  0.00     0.003 A 
HETATM   10  C   UNL     1       7.809  24.819  55.945  1.00  0.00     0.037 A 
HETATM   11  C   UNL     1       7.421  25.497  54.790  1.00  0.00     0.068 A 
HETATM   12  C   UNL     1       7.310  26.891  54.818  1.00  0.00     0.045 A 
BRANCH  11  13
HETATM   13  O   UNL     1       7.119  24.925  53.585  1.00  0.00    -0.356 OA
HETATM   14  C   UNL     1       7.972  23.875  53.145  1.00  0.00     0.210 C 
ENDBRANCH  11  13
ENDBRANCH   6   7
ENDBRANCH   1   6
BRANCH   1  15
HETATM   15  C   UNL     1       9.571  30.187  56.807  1.00  0.00     0.089 A 
HETATM   16  C   UNL     1      10.764  29.285  57.013  1.00  0.00     0.027 A 
HETATM   17  C   UNL     1      10.358  29.672  55.626  1.00  0.00     0.027 A 
ENDBRANCH   1  15
BRANCH   4  18
HETATM   18  C   UNL     1       7.763  31.434  60.358  1.00  0.00     0.036 A 
HETATM   19  C   UNL     1       6.699  32.331  60.433  1.00  0.00     0.030 A 
HETATM   20  C   UNL     1       6.321  32.892  61.661  1.00  0.00     0.014 A 
HETATM   21  C   UNL     1       7.004  32.570  62.839  1.00  0.00    -0.023 A 
HETATM   22  C   UNL     1       8.067  31.664  62.764  1.00  0.00     0.014 A 
HETATM   23  C   UNL     1       8.443  31.103  61.537  1.00  0.00     0.030 A 
BRANCH  21  24
HETATM   24  C   UNL     1       6.604  33.165  64.102  1.00  0.00     0.010 A 
HETATM   25  C   UNL     1       5.320  33.367  64.664  1.00  0.00     0.152 A 
HETATM   26  N   UNL     1       5.364  33.977  65.851  1.00  0.00    -0.187 NA
HETATM   27  N   UNL     1       6.676  34.178  66.052  1.00  0.00    -0.289 N 
HETATM   28  H   UNL     1       6.966  34.645  66.904  1.00  0.00     0.188 HD
HETATM   29  C   UNL     1       7.459  33.709  65.036  1.00  0.00     0.123 A 
ENDBRANCH  21  24
ENDBRANCH   4  18
TORSDOF 6
ENDMDL
MODEL 3
REMARK VINA RESULT:      -8.7      1.428      2.100
REMARK  6 active torsions:
REMARK  status: ('A' for Active; 'I' for Inactive)
REMARK    1  A    between atoms: O_2  and  C_3 
REMARK    2  A    between atoms: C_7  and  C_8 
REMARK    3  A    between atoms: C_8  and  N_9 
REMARK    4  A    between atoms: N_9  and  C_10 
REMARK       I    between atoms: N_9  and  C_13 
REMARK       I    between atoms: C_13  and  N_15 
REMARK    5  A    between atoms: N_15  and  C_16 
REMARK    6  A    between atoms: C_19  and  C_22 
ROOT
HETATM    1  N   UNL     1       5.801  29.108  56.355  1.00  0.00    -0.325 N 
HETATM    2  C   UNL     1       6.624  27.972  56.249  1.00  0.00     0.323 C 
HETATM    3  O   UNL     1       7.848  28.056  56.338  1.00  0.00    -0.247 OA
HETATM    4  N   UNL     1       5.938  26.796  56.024  1.00  0.00    -0.309 N 
HETATM    5  H   UNL     1       4.936  26.860  56.058  1.00  0.00     0.170 HD
ENDROOT
BRANCH   1   6
HETATM    6  C   UNL     1       6.467  30.414  56.392  1.00  0.00     0.166 C 
BRANCH   6   7
HETATM    7  C   UNL     1       6.720  30.896  57.803  1.00  0.00    -0.037 A 
HETATM    8  C   UNL     1       5.915  31.890  58.373  1.00  0.00     0.009 A 
HETATM    9  C   UNL     1       6.147  32.324  59.677  1.00  0.00     0.003 A 
HETATM   10  C   UNL     1       7.190  31.776  60.427  1.00  0.00     0.037 A 
HETATM   11  C   UNL     1       8.005  30.788  59.875  1.00  0.00     0.068 A 
HETATM   12  C   UNL     1       7.761  30.349  58.569  1.00  0.00     0.045 A 
BRANCH  11  13
HETATM   13  O   UNL     1       9.057  30.173  60.496  1.00  0.00    -0.356 OA
HETATM   14  C   UNL     1       9.219  30.433  61.885  1.00  0.00     0.210 C 
ENDBRANCH  11  13
ENDBRANCH   6   7
ENDBRANCH   1   6
BRANCH   1  15
HETATM   15  C   UNL     1       4.371  29.106  56.131  1.00  0.00     0.089 A 
HETATM   16  C   UNL     1       3.425  29.789  57.090  1.00  0.00     0.027 A 
HETATM   17  C   UNL     1       3.615  30.344  55.714  1.00  0.00     0.027 A 
ENDBRANCH   1  15
BRANCH   4  18
HETATM   18  C   UNL     1       6.468  25.513  55.780  1.00  0.00     0.036 A 
HETATM   19  C   UNL     1       7.083  24.720  56.748  1.00  0.00     0.030 A 
HETATM   20  C   UNL     1       7.604  23.461  56.416  1.00  0.00     0.014 A 
HETATM   21  C   UNL     1       7.524  22.972  55.107  1.00  0.00    -0.023 A 
HETATM   22  C   UNL     1       6.901  23.766  54.138  1.00  0.00     0.014 A 
HETATM   23  C   UNL     1       6.380  25.023  54.471  1.00  0.00     0.030 A 
BRANCH  21  24
HETATM   24  C   UNL     1       8.075  21.669  54.778  1.00  0.00     0.010 A 
HETATM   25  C   UNL     1       8.148  20.981  53.543  1.00  0.00     0.152 A 
HETATM   26  N   UNL     1       8.715  19.777  53.652  1.00  0.00    -0.187 NA
HETATM   27  N   UNL     1       9.001  19.684  54.960  1.00  0.00    -0.289 N 
HETATM   28  H   UNL     1       9.440  18.834  55.297  1.00  0.00     0.188 HD
HETATM   29  C   UNL     1       8.640  20.789  55.677  1.00  0.00     0.123 A 
ENDBRANCH  21  24
ENDBRANCH   4  18
TORSDOF 6
ENDMDL
MODEL 4
REMARK VINA RESULT:      -8.5      4.724      6.025
REMARK  6 active torsions:
REMARK  status: ('A' for Active; 'I' for Inactive)
REMARK    1  A    between atoms: O_2  and  C_3 
REMARK    2  A    between atoms: C_7  and  C_8 
REMARK    3  A    between atoms: C_8  and  N_9 
REMARK    4  A    between atoms: N_9  and  C_10 
REMARK       I    between atoms: N_9  and  C_13 
REMARK       I    between atoms: C_13  and  N_15 
REMARK    5  A    between atoms: N_15  and  C_16 
REMARK    6  A    between atoms: C_19  and  C_22 
ROOT
HETATM    1  N   UNL     1       7.004  27.355  56.587  1.00  0.00    -0.325 N 
HETATM    2  C   UNL     1       6.616  27.723  55.286  1.00  0.00     0.323 C 
HETATM    3  O   UNL     1       6.451  28.901  54.973  1.00  0.00    -0.247 OA
HETATM    4  N   UNL     1       6.428  26.657  54.430  1.00  0.00    -0.309 N 
HETATM    5  H   UNL     1       6.680  25.754  54.793  1.00  0.00     0.170 HD
ENDROOT
BRANCH   1   6
HETATM    6  C   UNL     1       7.026  28.415  57.601  1.00  0.00     0.166 C 
BRANCH   6   7
HETATM    7  C   UNL     1       8.325  29.189  57.603  1.00  0.00    -0.037 A 
HETATM    8  C   UNL     1       9.444  28.707  56.914  1.00  0.00     0.009 A 
HETATM    9  C   UNL     1      10.637  29.429  56.911  1.00  0.00     0.003 A 
HETATM   10  C   UNL     1      10.728  30.640  57.600  1.00  0.00     0.037 A 
HETATM   11  C   UNL     1       9.625  31.135  58.296  1.00  0.00     0.068 A 
HETATM   12  C   UNL     1       8.428  30.410  58.287  1.00  0.00     0.045 A 
BRANCH  11  13
HETATM   13  O   UNL     1       9.581  32.300  59.011  1.00  0.00    -0.356 OA
HETATM   14  C   UNL     1       8.720  32.323  60.142  1.00  0.00     0.210 C 
ENDBRANCH  11  13
ENDBRANCH   6   7
ENDBRANCH   1   6
BRANCH   1  15
HETATM   15  C   UNL     1       7.089  25.991  57.061  1.00  0.00     0.089 A 
HETATM   16  C   UNL     1       8.334  25.162  56.851  1.00  0.00     0.027 A 
HETATM   17  C   UNL     1       7.955  25.592  58.232  1.00  0.00     0.027 A 
ENDBRANCH   1  15
BRANCH   4  18
HETATM   18  C   UNL     1       5.953  26.679  53.103  1.00  0.00     0.036 A 
HETATM   19  C   UNL     1       5.844  27.832  52.327  1.00  0.00     0.030 A 
HETATM   20  C   UNL     1       5.340  27.770  51.020  1.00  0.00     0.014 A 
HETATM   21  C   UNL     1       4.931  26.553  50.465  1.00  0.00    -0.023 A 
HETATM   22  C   UNL     1       5.047  25.395  51.241  1.00  0.00     0.014 A 
HETATM   23  C   UNL     1       5.552  25.459  52.546  1.00  0.00     0.030 A 
BRANCH  21  24
HETATM   24  C   UNL     1       4.404  26.507  49.112  1.00  0.00     0.010 A 
HETATM   25  C   UNL     1       4.648  27.344  47.996  1.00  0.00     0.152 A 
HETATM   26  N   UNL     1       3.947  26.986  46.916  1.00  0.00    -0.187 NA
HETATM   27  N   UNL     1       3.244  25.924  47.338  1.00  0.00    -0.289 N 
HETATM   28  H   UNL     1       2.616  25.472  46.683  1.00  0.00     0.188 HD
HETATM   29  C   UNL     1       3.482  25.596  48.642  1.00  0.00     0.123 A 
ENDBRANCH  21  24
ENDBRANCH   4  18
TORSDOF 6
ENDMDL
MODEL 5
REMARK VINA RESULT:      -8.3      4.849      7.780
REMARK  6 active torsions:
REMARK  status: ('A' for Active; 'I' for Inactive)
REMARK    1  A    between atoms: O_2  and  C_3 
REMARK    2  A    between atoms: C_7  and  C_8 
REMARK    3  A    between atoms: C_8  and  N_9 
REMARK    4  A    between atoms: N_9  and  C_10 
REMARK       I    between atoms: N_9  and  C_13 
REMARK       I    between atoms: C_13  and  N_15 
REMARK    5  A    between atoms: N_15  and  C_16 
REMARK    6  A    between atoms: C_19  and  C_22 
ROOT
HETATM    1  N   UNL     1       4.929  28.703  52.996  1.00  0.00    -0.325 N 
HETATM    2  C   UNL     1       5.731  27.549  52.935  1.00  0.00     0.323 C 
HETATM    3  O   UNL     1       6.462  27.325  51.971  1.00  0.00    -0.247 OA
HETATM    4  N   UNL     1       5.601  26.713  54.025  1.00  0.00    -0.309 N 
HETATM    5  H   UNL     1       5.033  27.061  54.779  1.00  0.00     0.170 HD
ENDROOT
BRANCH   1   6
HETATM    6  C   UNL     1       4.861  29.532  51.788  1.00  0.00     0.166 C 
BRANCH   6   7
HETATM    7  C   UNL     1       3.765  29.091  50.843  1.00  0.00    -0.037 A 
HETATM    8  C   UNL     1       2.469  29.606  50.963  1.00  0.00     0.009 A 
HETATM    9  C   UNL     1       1.464  29.203  50.084  1.00  0.00     0.003 A 
HETATM   10  C   UNL     1       1.740  28.275  49.078  1.00  0.00     0.037 A 
HETATM   11  C   UNL     1       3.024  27.747  48.946  1.00  0.00     0.068 A 
HETATM   12  C   UNL     1       4.030  28.163  49.824  1.00  0.00     0.045 A 
BRANCH  11  13
HETATM   13  O   UNL     1       3.426  26.834  48.010  1.00  0.00    -0.356 OA
HETATM   14  C   UNL     1       2.438  26.386  47.090  1.00  0.00     0.210 C 
ENDBRANCH  11  13
ENDBRANCH   6   7
ENDBRANCH   1   6
BRANCH   1  15
HETATM   15  C   UNL     1       3.952  28.968  54.029  1.00  0.00     0.089 A 
HETATM   16  C   UNL     1       4.345  29.619  55.334  1.00  0.00     0.027 A 
HETATM   17  C   UNL     1       3.483  30.363  54.364  1.00  0.00     0.027 A 
ENDBRANCH   1  15
BRANCH   4  18
HETATM   18  C   UNL     1       6.188  25.447  54.226  1.00  0.00     0.036 A 
HETATM   19  C   UNL     1       6.522  24.926  55.476  1.00  0.00     0.030 A 
HETATM   20  C   UNL     1       7.123  23.664  55.587  1.00  0.00     0.014 A 
HETATM   21  C   UNL     1       7.407  22.901  54.449  1.00  0.00    -0.023 A 
HETATM   22  C   UNL     1       7.066  23.422  53.196  1.00  0.00     0.014 A 
HETATM   23  C   UNL     1       6.463  24.682  53.087  1.00  0.00     0.030 A 
BRANCH  21  24
HETATM   24  C   UNL     1       8.038  21.599  54.581  1.00  0.00     0.010 A 
HETATM   25  C   UNL     1       8.402  20.645  53.600  1.00  0.00     0.152 A 
HETATM   26  N   UNL     1       8.946  19.544  54.125  1.00  0.00    -0.187 NA
HETATM   27  N   UNL     1       8.924  19.783  55.445  1.00  0.00    -0.289 N 
HETATM   28  H   UNL     1       9.285  19.069  56.069  1.00  0.00     0.188 HD
HETATM   29  C   UNL     1       8.392  20.998  55.770  1.00  0.00     0.123 A 
ENDBRANCH  21  24
ENDBRANCH   4  18
TORSDOF 6
ENDMDL
MODEL 6
REMARK VINA RESULT:      -8.2      3.015      9.019
REMARK  6 active torsions:
REMARK  status: ('A' for Active; 'I' for Inactive)
REMARK    1  A    between atoms: O_2  and  C_3 
REMARK    2  A    between atoms: C_7  and  C_8 
REMARK    3  A    between atoms: C_8  and  N_9 
REMARK    4  A    between atoms: N_9  and  C_10 
REMARK       I    between atoms: N_9  and  C_13 
REMARK       I    between atoms: C_13  and  N_15 
REMARK    5  A    between atoms: N_15  and  C_16 
REMARK    6  A    between atoms: C_19  and  C_22 
ROOT
HETATM    1  N   UNL     1       6.690  27.070  53.884  1.00  0.00    -0.325 N 
HETATM    2  C   UNL     1       7.259  27.926  54.845  1.00  0.00     0.323 C 
HETATM    3  O   UNL     1       8.468  28.147  54.873  1.00  0.00    -0.247 OA
HETATM    4  N   UNL     1       6.349  28.458  55.737  1.00  0.00    -0.309 N 
HETATM    5  H   UNL     1       5.382  28.260  55.547  1.00  0.00     0.170 HD
ENDROOT
BRANCH   1   6
HETATM    6  C   UNL     1       7.615  26.313  53.035  1.00  0.00     0.166 C 
BRANCH   6   7
HETATM    7  C   UNL     1       7.768  24.876  53.483  1.00  0.00    -0.037 A 
HETATM    8  C   UNL     1       7.730  23.830  52.552  1.00  0.00     0.009 A 
HETATM    9  C   UNL     1       7.881  22.508  52.969  1.00  0.00     0.003 A 
HETATM   10  C   UNL     1       8.065  22.213  54.321  1.00  0.00     0.037 A 
HETATM   11  C   UNL     1       8.101  23.241  55.263  1.00  0.00     0.068 A 
HETATM   12  C   UNL     1       7.959  24.566  54.838  1.00  0.00     0.045 A 
BRANCH  11  13
HETATM   13  O   UNL     1       8.271  23.090  56.612  1.00  0.00    -0.356 OA
HETATM   14  C   UNL     1       8.799  24.206  57.318  1.00  0.00     0.210 C 
ENDBRANCH  11  13
ENDBRANCH   6   7
ENDBRANCH   1   6
BRANCH   1  15
HETATM   15  C   UNL     1       5.302  26.661  53.872  1.00  0.00     0.089 A 
HETATM   16  C   UNL     1       4.273  27.399  53.050  1.00  0.00     0.027 A 
HETATM   17  C   UNL     1       4.661  26.005  52.672  1.00  0.00     0.027 A 
ENDBRANCH   1  15
BRANCH   4  18
HETATM   18  C   UNL     1       6.605  29.266  56.863  1.00  0.00     0.036 A 
HETATM   19  C   UNL     1       5.899  30.428  57.172  1.00  0.00     0.030 A 
HETATM   20  C   UNL     1       6.232  31.188  58.303  1.00  0.00     0.014 A 
HETATM   21  C   UNL     1       7.282  30.803  59.143  1.00  0.00    -0.023 A 
HETATM   22  C   UNL     1       7.986  29.634  58.836  1.00  0.00     0.014 A 
HETATM   23  C   UNL     1       7.651  28.875  57.707  1.00  0.00     0.030 A 
BRANCH  21  24
HETATM   24  C   UNL     1       7.619  31.606  60.306  1.00  0.00     0.010 A 
HETATM   25  C   UNL     1       8.709  31.518  61.205  1.00  0.00     0.152 A 
HETATM   26  N   UNL     1       8.656  32.434  62.176  1.00  0.00    -0.187 NA
HETATM   27  N   UNL     1       7.527  33.108  61.908  1.00  0.00    -0.289 N 
HETATM   28  H   UNL     1       7.262  33.866  62.527  1.00  0.00     0.188 HD
HETATM   29  C   UNL     1       6.871  32.653  60.800  1.00  0.00     0.123 A 
ENDBRANCH  21  24
ENDBRANCH   4  18
TORSDOF 6
ENDMDL
MODEL 7
REMARK VINA RESULT:      -8.0      5.238      8.682
REMARK  6 active torsions:
REMARK  status: ('A' for Active; 'I' for Inactive)
REMARK    1  A    between atoms: O_2  and  C_3 
REMARK    2  A    between atoms: C_7  and  C_8 
REMARK    3  A    between atoms: C_8  and  N_9 
REMARK    4  A    between atoms: N_9  and  C_10 
REMARK       I    between atoms: N_9  and  C_13 
REMARK       I    between atoms: C_13  and  N_15 
REMARK    5  A    between atoms: N_15  and  C_16 
REMARK    6  A    between atoms: C_19  and  C_22 
ROOT
HETATM    1  N   UNL     1       5.124  34.219  63.619  1.00  0.00    -0.325 N 
HETATM    2  C   UNL     1       5.686  33.900  62.369  1.00  0.00     0.323 C 
HETATM    3  O   UNL     1       5.309  34.451  61.336  1.00  0.00    -0.247 OA
HETATM    4  N   UNL     1       6.659  32.923  62.420  1.00  0.00    -0.309 N 
HETATM    5  H   UNL     1       6.928  32.619  63.340  1.00  0.00     0.170 HD
ENDROOT
BRANCH   1   6
HETATM    6  C   UNL     1       3.949  35.096  63.618  1.00  0.00     0.166 C 
BRANCH   6   7
HETATM    7  C   UNL     1       4.283  36.510  63.195  1.00  0.00    -0.037 A 
HETATM    8  C   UNL     1       3.479  37.186  62.270  1.00  0.00     0.009 A 
HETATM    9  C   UNL     1       3.784  38.493  61.890  1.00  0.00     0.003 A 
HETATM   10  C   UNL     1       4.901  39.138  62.426  1.00  0.00     0.037 A 
HETATM   11  C   UNL     1       5.716  38.479  63.346  1.00  0.00     0.068 A 
HETATM   12  C   UNL     1       5.398  37.172  63.730  1.00  0.00     0.045 A 
BRANCH  11  13
HETATM   13  O   UNL     1       6.836  38.992  63.941  1.00  0.00    -0.356 OA
HETATM   14  C   UNL     1       7.387  40.167  63.359  1.00  0.00     0.210 C 
ENDBRANCH  11  13
ENDBRANCH   6   7
ENDBRANCH   1   6
BRANCH   1  15
HETATM   15  C   UNL     1       5.422  33.522  64.852  1.00  0.00     0.089 A 
HETATM   16  C   UNL     1       6.548  33.969  65.755  1.00  0.00     0.027 A 
HETATM   17  C   UNL     1       5.131  34.116  66.209  1.00  0.00     0.027 A 
ENDBRANCH   1  15
BRANCH   4  18
HETATM   18  C   UNL     1       7.342  32.318  61.345  1.00  0.00     0.036 A 
HETATM   19  C   UNL     1       6.745  31.965  60.135  1.00  0.00     0.030 A 
HETATM   20  C   UNL     1       7.493  31.345  59.124  1.00  0.00     0.014 A 
HETATM   21  C   UNL     1       8.851  31.062  59.304  1.00  0.00    -0.023 A 
HETATM   22  C   UNL     1       9.450  31.423  60.516  1.00  0.00     0.014 A 
HETATM   23  C   UNL     1       8.702  32.043  61.525  1.00  0.00     0.030 A 
BRANCH  21  24
HETATM   24  C   UNL     1       9.609  30.413  58.249  1.00  0.00     0.010 A 
HETATM   25  C   UNL     1      10.900  30.687  57.735  1.00  0.00     0.152 A 
HETATM   26  N   UNL     1      11.244  29.871  56.735  1.00  0.00    -0.187 NA
HETATM   27  N   UNL     1      10.172  29.076  56.598  1.00  0.00    -0.289 N 
HETATM   28  H   UNL     1      10.192  28.363  55.877  1.00  0.00     0.188 HD
HETATM   29  C   UNL     1       9.168  29.357  57.479  1.00  0.00     0.123 A 
ENDBRANCH  21  24
ENDBRANCH   4  18
TORSDOF 6
ENDMDL
MODEL 8
REMARK VINA RESULT:      -7.9      3.367      9.608
REMARK  6 active torsions:
REMARK  status: ('A' for Active; 'I' for Inactive)
REMARK    1  A    between atoms: O_2  and  C_3 
REMARK    2  A    between atoms: C_7  and  C_8 
REMARK    3  A    between atoms: C_8  and  N_9 
REMARK    4  A    between atoms: N_9  and  C_10 
REMARK       I    between atoms: N_9  and  C_13 
REMARK       I    between atoms: C_13  and  N_15 
REMARK    5  A    between atoms: N_15  and  C_16 
REMARK    6  A    between atoms: C_19  and  C_22 
ROOT
HETATM    1  N   UNL     1       6.608  26.035  54.117  1.00  0.00    -0.325 N 
HETATM    2  C   UNL     1       6.709  27.180  54.929  1.00  0.00     0.323 C 
HETATM    3  O   UNL     1       7.801  27.629  55.274  1.00  0.00    -0.247 OA
HETATM    4  N   UNL     1       5.494  27.718  55.301  1.00  0.00    -0.309 N 
HETATM    5  H   UNL     1       4.682  27.301  54.879  1.00  0.00     0.170 HD
ENDROOT
BRANCH   1   6
HETATM    6  C   UNL     1       7.845  25.295  53.851  1.00  0.00     0.166 C 
BRANCH   6   7
HETATM    7  C   UNL     1       7.988  24.071  54.728  1.00  0.00    -0.037 A 
HETATM    8  C   UNL     1       8.233  24.201  56.101  1.00  0.00     0.009 A 
HETATM    9  C   UNL     1       8.354  23.070  56.907  1.00  0.00     0.003 A 
HETATM   10  C   UNL     1       8.238  21.793  56.351  1.00  0.00     0.037 A 
HETATM   11  C   UNL     1       7.998  21.644  54.985  1.00  0.00     0.068 A 
HETATM   12  C   UNL     1       7.868  22.783  54.184  1.00  0.00     0.045 A 
BRANCH  11  13
HETATM   13  O   UNL     1       7.867  20.458  54.317  1.00  0.00    -0.356 OA
HETATM   14  C   UNL     1       8.149  20.476  52.923  1.00  0.00     0.210 C 
ENDBRANCH  11  13
ENDBRANCH   6   7
ENDBRANCH   1   6
BRANCH   1  15
HETATM   15  C   UNL     1       5.364  25.377  53.783  1.00  0.00     0.089 A 
HETATM   16  C   UNL     1       4.467  25.902  52.687  1.00  0.00     0.027 A 
HETATM   17  C   UNL     1       5.177  24.599  52.502  1.00  0.00     0.027 A 
ENDBRANCH   1  15
BRANCH   4  18
HETATM   18  C   UNL     1       5.250  28.795  56.177  1.00  0.00     0.036 A 
HETATM   19  C   UNL     1       6.199  29.329  57.049  1.00  0.00     0.030 A 
HETATM   20  C   UNL     1       5.868  30.389  57.904  1.00  0.00     0.014 A 
HETATM   21  C   UNL     1       4.579  30.933  57.909  1.00  0.00    -0.023 A 
HETATM   22  C   UNL     1       3.630  30.402  57.029  1.00  0.00     0.014 A 
HETATM   23  C   UNL     1       3.962  29.343  56.174  1.00  0.00     0.030 A 
BRANCH  21  24
HETATM   24  C   UNL     1       4.250  32.027  58.807  1.00  0.00     0.010 A 
HETATM   25  C   UNL     1       4.679  33.376  58.816  1.00  0.00     0.152 A 
HETATM   26  N   UNL     1       4.165  34.076  59.832  1.00  0.00    -0.187 NA
HETATM   27  N   UNL     1       3.412  33.176  60.483  1.00  0.00    -0.289 N 
HETATM   28  H   UNL     1       2.917  33.476  61.315  1.00  0.00     0.188 HD
HETATM   29  C   UNL     1       3.428  31.937  59.910  1.00  0.00     0.123 A 
ENDBRANCH  21  24
ENDBRANCH   4  18
TORSDOF 6
ENDMDL
MODEL 9
REMARK VINA RESULT:      -7.9      3.880      9.788
REMARK  6 active torsions:
REMARK  status: ('A' for Active; 'I' for Inactive)
REMARK    1  A    between atoms: O_2  and  C_3 
REMARK    2  A    between atoms: C_7  and  C_8 
REMARK    3  A    between atoms: C_8  and  N_9 
REMARK    4  A    between atoms: N_9  and  C_10 
REMARK       I    between atoms: N_9  and  C_13 
REMARK       I    between atoms: C_13  and  N_15 
REMARK    5  A    between atoms: N_15  and  C_16 
REMARK    6  A    between atoms: C_19  and  C_22 
ROOT
HETATM    1  N   UNL     1       6.137  30.609  56.952  1.00  0.00    -0.325 N 
HETATM    2  C   UNL     1       6.607  30.950  58.234  1.00  0.00     0.323 C 
HETATM    3  O   UNL     1       7.696  30.553  58.645  1.00  0.00    -0.247 OA
HETATM    4  N   UNL     1       5.737  31.734  58.964  1.00  0.00    -0.309 N 
HETATM    5  H   UNL     1       4.920  32.054  58.475  1.00  0.00     0.170 HD
ENDROOT
BRANCH   1   6
HETATM    6  C   UNL     1       6.911  29.617  56.200  1.00  0.00     0.166 C 
BRANCH   6   7
HETATM    7  C   UNL     1       6.599  28.198  56.620  1.00  0.00    -0.037 A 
HETATM    8  C   UNL     1       5.316  27.665  56.439  1.00  0.00     0.009 A 
HETATM    9  C   UNL     1       5.035  26.354  56.819  1.00  0.00     0.003 A 
HETATM   10  C   UNL     1       6.031  25.559  57.392  1.00  0.00     0.037 A 
HETATM   11  C   UNL     1       7.313  26.073  57.585  1.00  0.00     0.068 A 
HETATM   12  C   UNL     1       7.591  27.386  57.191  1.00  0.00     0.045 A 
BRANCH  11  13
HETATM   13  O   UNL     1       8.373  25.405  58.134  1.00  0.00    -0.356 OA
HETATM   14  C   UNL     1       8.986  24.407  57.329  1.00  0.00     0.210 C 
ENDBRANCH  11  13
ENDBRANCH   6   7
ENDBRANCH   1   6
BRANCH   1  15
HETATM   15  C   UNL     1       4.816  30.927  56.454  1.00  0.00     0.089 A 
HETATM   16  C   UNL     1       4.564  32.170  55.635  1.00  0.00     0.027 A 
HETATM   17  C   UNL     1       4.456  30.825  54.991  1.00  0.00     0.027 A 
ENDBRANCH   1  15
BRANCH   4  18
HETATM   18  C   UNL     1       5.866  32.163  60.301  1.00  0.00     0.036 A 
HETATM   19  C   UNL     1       7.066  32.569  60.883  1.00  0.00     0.030 A 
HETATM   20  C   UNL     1       7.112  32.962  62.228  1.00  0.00     0.014 A 
HETATM   21  C   UNL     1       5.958  32.951  63.020  1.00  0.00    -0.023 A 
HETATM   22  C   UNL     1       4.753  32.550  62.433  1.00  0.00     0.014 A 
HETATM   23  C   UNL     1       4.709  32.159  61.088  1.00  0.00     0.030 A 
BRANCH  21  24
HETATM   24  C   UNL     1       6.024  33.354  64.414  1.00  0.00     0.010 A 
HETATM   25  C   UNL     1       4.995  33.666  65.335  1.00  0.00     0.152 A 
HETATM   26  N   UNL     1       5.464  34.020  66.535  1.00  0.00    -0.187 NA
HETATM   27  N   UNL     1       6.795  33.945  66.385  1.00  0.00    -0.289 N 
HETATM   28  H   UNL     1       7.382  34.182  67.178  1.00  0.00     0.188 HD
HETATM   29  C   UNL     1       7.181  33.550  65.136  1.00  0.00     0.123 A 
ENDBRANCH  21  24
ENDBRANCH   4  18
TORSDOF 6
ENDMDL
MODEL 10
REMARK VINA RESULT:      -7.8      4.014     10.665
REMARK  6 active torsions:
REMARK  status: ('A' for Active; 'I' for Inactive)
REMARK    1  A    between atoms: O_2  and  C_3 
REMARK    2  A    between atoms: C_7  and  C_8 
REMARK    3  A    between atoms: C_8  and  N_9 
REMARK    4  A    between atoms: N_9  and  C_10 
REMARK       I    between atoms: N_9  and  C_13 
REMARK       I    between atoms: C_13  and  N_15 
REMARK    5  A    between atoms: N_15  and  C_16 
REMARK    6  A    between atoms: C_19  and  C_22 
ROOT
HETATM    1  N   UNL     1       7.677  30.840  58.901  1.00  0.00    -0.325 N 
HETATM    2  C   UNL     1       6.852  31.367  59.911  1.00  0.00     0.323 C 
HETATM    3  O   UNL     1       5.690  31.700  59.683  1.00  0.00    -0.247 OA
HETATM    4  N   UNL     1       7.470  31.487  61.139  1.00  0.00    -0.309 N 
HETATM    5  H   UNL     1       8.395  31.099  61.204  1.00  0.00     0.170 HD
ENDROOT
BRANCH   1   6
HETATM    6  C   UNL     1       7.157  30.873  57.530  1.00  0.00     0.166 C 
BRANCH   6   7
HETATM    7  C   UNL     1       6.387  29.621  57.172  1.00  0.00    -0.037 A 
HETATM    8  C   UNL     1       5.126  29.707  56.570  1.00  0.00     0.009 A 
HETATM    9  C   UNL     1       4.424  28.550  56.233  1.00  0.00     0.003 A 
HETATM   10  C   UNL     1       4.971  27.293  56.499  1.00  0.00     0.037 A 
HETATM   11  C   UNL     1       6.224  27.188  57.101  1.00  0.00     0.068 A 
HETATM   12  C   UNL     1       6.927  28.352  57.428  1.00  0.00     0.045 A 
BRANCH  11  13
HETATM   13  O   UNL     1       6.869  26.024  57.417  1.00  0.00    -0.356 OA
HETATM   14  C   UNL     1       6.404  24.841  56.778  1.00  0.00     0.210 C 
ENDBRANCH  11  13
ENDBRANCH   6   7
ENDBRANCH   1   6
BRANCH   1  15
HETATM   15  C   UNL     1       9.086  30.552  59.061  1.00  0.00     0.089 A 
HETATM   16  C   UNL     1       9.984  30.330  57.867  1.00  0.00     0.027 A 
HETATM   17  C   UNL     1      10.162  31.551  58.712  1.00  0.00     0.027 A 
ENDBRANCH   1  15
BRANCH   4  18
HETATM   18  C   UNL     1       6.956  32.059  62.320  1.00  0.00     0.036 A 
HETATM   19  C   UNL     1       5.600  32.105  62.645  1.00  0.00     0.030 A 
HETATM   20  C   UNL     1       5.170  32.714  63.832  1.00  0.00     0.014 A 
HETATM   21  C   UNL     1       6.086  33.293  64.716  1.00  0.00    -0.023 A 
HETATM   22  C   UNL     1       7.446  33.241  64.393  1.00  0.00     0.014 A 
HETATM   23  C   UNL     1       7.875  32.631  63.207  1.00  0.00     0.030 A 
BRANCH  21  24
HETATM   24  C   UNL     1       5.623  33.927  65.939  1.00  0.00     0.010 A 
HETATM   25  C   UNL     1       6.325  34.302  67.109  1.00  0.00     0.152 A 
HETATM   26  N   UNL     1       5.533  34.845  68.038  1.00  0.00    -0.187 NA
HETATM   27  N   UNL     1       4.318  34.812  67.470  1.00  0.00    -0.289 N 
HETATM   28  H   UNL     1       3.531  35.171  67.999  1.00  0.00     0.188 HD
HETATM   29  C   UNL     1       4.317  34.274  66.215  1.00  0.00     0.123 A 
ENDBRANCH  21  24
ENDBRANCH   4  18
TORSDOF 6
ENDMDL
