MODEL 1
REMARK VINA RESULT:     -11.0      0.000      0.000
REMARK  5 active torsions:
REMARK  status: ('A' for Active; 'I' for Inactive)
REMARK    1  A    between atoms: C_6  and  S_7 
REMARK    2  A    between atoms: S_7  and  C_8 
REMARK    3  A    between atoms: C_8  and  C_9 
REMARK       I    between atoms: C_9  and  N_10 
REMARK    4  A    between atoms: N_10  and  C_11 
REMARK    5  A    between atoms: N_22  and  C_23 
ROOT
HETATM    1  C   UNL     1       8.302  20.642  56.532  1.00  0.00     0.001 A 
HETATM    2  C   UNL     1       8.376  21.930  57.061  1.00  0.00     0.019 A 
HETATM    3  C   UNL     1       8.102  23.035  56.242  1.00  0.00     0.061 A 
HETATM    4  C   UNL     1       7.763  22.863  54.906  1.00  0.00     0.075 A 
HETATM    5  N   UNL     1       7.554  23.944  54.047  1.00  0.00    -0.223 NA
HETATM    6  C   UNL     1       7.553  25.142  54.542  1.00  0.00     0.177 A 
HETATM    7  N   UNL     1       7.759  25.434  55.893  1.00  0.00    -0.256 N 
HETATM    8  C   UNL     1       8.118  24.407  56.779  1.00  0.00     0.267 A 
HETATM    9  O   UNL     1       8.397  24.549  57.968  1.00  0.00    -0.267 OA
HETATM   10  C   UNL     1       7.676  21.567  54.389  1.00  0.00     0.032 A 
HETATM   11  C   UNL     1       7.946  20.460  55.197  1.00  0.00     0.002 A 
ENDROOT
BRANCH   6  12
HETATM   12  S   UNL     1       7.427  26.469  53.388  1.00  0.00    -0.082 SA
BRANCH  12  13
HETATM   13  C   UNL     1       7.085  25.610  51.827  1.00  0.00     0.185 C 
BRANCH  13  14
HETATM   14  C   UNL     1       5.638  25.789  51.381  1.00  0.00     0.231 C 
HETATM   15  N   UNL     1       5.488  26.686  50.341  1.00  0.00    -0.326 N 
HETATM   16  H   UNL     1       6.330  27.199  50.083  1.00  0.00     0.169 HD
HETATM   17  O   UNL     1       4.736  25.143  51.909  1.00  0.00    -0.272 OA
BRANCH  15  18
HETATM   18  C   UNL     1       4.314  27.011  49.632  1.00  0.00     0.037 A 
HETATM   19  C   UNL     1       3.864  26.299  48.514  1.00  0.00     0.061 A 
HETATM   20  C   UNL     1       2.721  26.760  47.898  1.00  0.00     0.065 A 
HETATM   21  C   UNL     1       2.023  27.876  48.352  1.00  0.00     0.063 A 
HETATM   22  N   UNL     1       2.061  26.275  46.774  1.00  0.00    -0.306 N 
HETATM   23  N   UNL     1       0.935  28.077  47.511  1.00  0.00    -0.307 N 
HETATM   24  C   UNL     1       2.428  28.591  49.450  1.00  0.00     0.034 A 
HETATM   25  C   UNL     1       0.947  27.086  46.519  1.00  0.00     0.325 A 
HETATM   26  H   UNL     1       0.240  28.802  47.569  1.00  0.00     0.170 HD
HETATM   27  O   UNL     1       0.145  26.961  45.611  1.00  0.00    -0.247 OA
HETATM   28  C   UNL     1       3.591  28.145  50.090  1.00  0.00     0.032 A 
HETATM   29  H   UNL     1       2.319  25.477  46.215  1.00  0.00     0.170 HD
ENDBRANCH  15  18
ENDBRANCH  13  14
ENDBRANCH  12  13
ENDBRANCH   6  12
BRANCH   7  30
HETATM   30  C   UNL     1       7.557  26.739  56.456  1.00  0.00     0.046 A 
HETATM   31  C   UNL     1       8.648  27.574  56.745  1.00  0.00     0.055 A 
HETATM   32  C   UNL     1       8.457  28.828  57.339  1.00  0.00     0.058 A 
HETATM   33 CL   UNL     1       9.856  29.796  57.641  1.00  0.00    -0.082 Cl
HETATM   34  C   UNL     1       7.167  29.257  57.666  1.00  0.00     0.055 A 
HETATM   35 CL   UNL     1       6.855  30.784  58.409  1.00  0.00    -0.083 Cl
HETATM   36  C   UNL     1       6.076  28.428  57.399  1.00  0.00     0.028 A 
HETATM   37  C   UNL     1       6.269  27.177  56.802  1.00  0.00     0.032 A 
ENDBRANCH   7  30
TORSDOF 5
ENDMDL
MODEL 2
REMARK VINA RESULT:     -10.5      2.926      5.158
REMARK  5 active torsions:
REMARK  status: ('A' for Active; 'I' for Inactive)
REMARK    1  A    between atoms: C_6  and  S_7 
REMARK    2  A    between atoms: S_7  and  C_8 
REMARK    3  A    between atoms: C_8  and  C_9 
REMARK       I    between atoms: C_9  and  N_10 
REMARK    4  A    between atoms: N_10  and  C_11 
REMARK    5  A    between atoms: N_22  and  C_23 
ROOT
HETATM    1  C   UNL     1       7.681  29.459  57.982  1.00  0.00     0.001 A 
HETATM    2  C   UNL     1       7.902  28.113  57.693  1.00  0.00     0.019 A 
HETATM    3  C   UNL     1       7.270  27.526  56.589  1.00  0.00     0.061 A 
HETATM    4  C   UNL     1       6.420  28.269  55.778  1.00  0.00     0.075 A 
HETATM    5  N   UNL     1       5.720  27.696  54.714  1.00  0.00    -0.223 NA
HETATM    6  C   UNL     1       5.969  26.465  54.394  1.00  0.00     0.177 A 
HETATM    7  N   UNL     1       6.895  25.654  55.056  1.00  0.00    -0.256 N 
HETATM    8  C   UNL     1       7.521  26.121  56.221  1.00  0.00     0.267 A 
HETATM    9  O   UNL     1       8.293  25.478  56.929  1.00  0.00    -0.267 OA
HETATM   10  C   UNL     1       6.217  29.622  56.067  1.00  0.00     0.032 A 
HETATM   11  C   UNL     1       6.843  30.216  57.165  1.00  0.00     0.002 A 
ENDROOT
BRANCH   6  12
HETATM   12  S   UNL     1       4.955  25.759  53.137  1.00  0.00    -0.082 SA
BRANCH  12  13
HETATM   13  C   UNL     1       5.610  26.515  51.623  1.00  0.00     0.185 C 
BRANCH  13  14
HETATM   14  C   UNL     1       4.578  27.402  50.936  1.00  0.00     0.231 C 
HETATM   15  N   UNL     1       4.402  27.108  49.597  1.00  0.00    -0.326 N 
HETATM   16  H   UNL     1       5.055  26.428  49.210  1.00  0.00     0.169 HD
HETATM   17  O   UNL     1       3.966  28.258  51.570  1.00  0.00    -0.272 OA
BRANCH  15  18
HETATM   18  C   UNL     1       3.470  27.663  48.698  1.00  0.00     0.037 A 
HETATM   19  C   UNL     1       2.255  27.052  48.366  1.00  0.00     0.061 A 
HETATM   20  C   UNL     1       1.464  27.693  47.440  1.00  0.00     0.065 A 
HETATM   21  C   UNL     1       1.830  28.900  46.849  1.00  0.00     0.063 A 
HETATM   22  N   UNL     1       0.233  27.318  46.911  1.00  0.00    -0.306 N 
HETATM   23  N   UNL     1       0.826  29.268  45.961  1.00  0.00    -0.307 N 
HETATM   24  C   UNL     1       3.006  29.534  47.157  1.00  0.00     0.034 A 
HETATM   25  C   UNL     1      -0.177  28.288  45.987  1.00  0.00     0.325 A 
HETATM   26  H   UNL     1       0.793  30.086  45.377  1.00  0.00     0.170 HD
HETATM   27  O   UNL     1      -1.202  28.283  45.328  1.00  0.00    -0.247 OA
HETATM   28  C   UNL     1       3.830  28.898  48.094  1.00  0.00     0.032 A 
HETATM   29  H   UNL     1      -0.298  26.491  47.135  1.00  0.00     0.170 HD
ENDBRANCH  15  18
ENDBRANCH  13  14
ENDBRANCH  12  13
ENDBRANCH   6  12
BRANCH   7  30
HETATM   30  C   UNL     1       7.303  24.366  54.569  1.00  0.00     0.046 A 
HETATM   31  C   UNL     1       7.208  23.226  55.383  1.00  0.00     0.055 A 
HETATM   32  C   UNL     1       7.651  21.978  54.928  1.00  0.00     0.058 A 
HETATM   33 CL   UNL     1       7.477  20.627  55.991  1.00  0.00    -0.082 Cl
HETATM   34  C   UNL     1       8.209  21.857  53.652  1.00  0.00     0.055 A 
HETATM   35 CL   UNL     1       8.785  20.355  53.027  1.00  0.00    -0.083 Cl
HETATM   36  C   UNL     1       8.324  22.987  52.839  1.00  0.00     0.028 A 
HETATM   37  C   UNL     1       7.877  24.232  53.296  1.00  0.00     0.032 A 
ENDBRANCH   7  30
TORSDOF 5
ENDMDL
MODEL 3
REMARK VINA RESULT:     -10.3      1.984      2.223
REMARK  5 active torsions:
REMARK  status: ('A' for Active; 'I' for Inactive)
REMARK    1  A    between atoms: C_6  and  S_7 
REMARK    2  A    between atoms: S_7  and  C_8 
REMARK    3  A    between atoms: C_8  and  C_9 
REMARK       I    between atoms: C_9  and  N_10 
REMARK    4  A    between atoms: N_10  and  C_11 
REMARK    5  A    between atoms: N_22  and  C_23 
ROOT
HETATM    1  C   UNL     1       8.863  20.077  55.458  1.00  0.00     0.001 A 
HETATM    2  C   UNL     1       8.591  21.315  56.038  1.00  0.00     0.019 A 
HETATM    3  C   UNL     1       8.196  22.390  55.231  1.00  0.00     0.061 A 
HETATM    4  C   UNL     1       8.076  22.239  53.855  1.00  0.00     0.075 A 
HETATM    5  N   UNL     1       7.754  23.308  53.016  1.00  0.00    -0.223 NA
HETATM    6  C   UNL     1       7.433  24.445  53.549  1.00  0.00     0.177 A 
HETATM    7  N   UNL     1       7.396  24.684  54.926  1.00  0.00    -0.256 N 
HETATM    8  C   UNL     1       7.849  23.698  55.815  1.00  0.00     0.267 A 
HETATM    9  O   UNL     1       7.935  23.817  57.035  1.00  0.00    -0.267 OA
HETATM   10  C   UNL     1       8.336  20.990  53.284  1.00  0.00     0.032 A 
HETATM   11  C   UNL     1       8.728  19.912  54.081  1.00  0.00     0.002 A 
ENDROOT
BRANCH   6  12
HETATM   12  S   UNL     1       7.177  25.790  52.438  1.00  0.00    -0.082 SA
BRANCH  12  13
HETATM   13  C   UNL     1       5.489  25.498  51.841  1.00  0.00     0.185 C 
BRANCH  13  14
HETATM   14  C   UNL     1       4.925  26.711  51.109  1.00  0.00     0.231 C 
HETATM   15  N   UNL     1       4.688  26.484  49.766  1.00  0.00    -0.326 N 
HETATM   16  H   UNL     1       5.023  25.591  49.409  1.00  0.00     0.169 HD
HETATM   17  O   UNL     1       4.690  27.754  51.714  1.00  0.00    -0.272 OA
BRANCH  15  18
HETATM   18  C   UNL     1       4.087  27.348  48.829  1.00  0.00     0.037 A 
HETATM   19  C   UNL     1       4.724  28.477  48.298  1.00  0.00     0.061 A 
HETATM   20  C   UNL     1       3.997  29.252  47.422  1.00  0.00     0.065 A 
HETATM   21  C   UNL     1       2.687  28.944  47.059  1.00  0.00     0.063 A 
HETATM   22  N   UNL     1       4.355  30.423  46.763  1.00  0.00    -0.306 N 
HETATM   23  N   UNL     1       2.242  29.923  46.179  1.00  0.00    -0.307 N 
HETATM   24  C   UNL     1       2.035  27.842  47.550  1.00  0.00     0.034 A 
HETATM   25  C   UNL     1       3.272  30.855  45.986  1.00  0.00     0.325 A 
HETATM   26  H   UNL     1       1.340  29.988  45.739  1.00  0.00     0.170 HD
HETATM   27  O   UNL     1       3.228  31.848  45.282  1.00  0.00    -0.247 OA
HETATM   28  C   UNL     1       2.754  27.041  48.447  1.00  0.00     0.032 A 
HETATM   29  H   UNL     1       5.239  30.905  46.819  1.00  0.00     0.170 HD
ENDBRANCH  15  18
ENDBRANCH  13  14
ENDBRANCH  12  13
ENDBRANCH   6  12
BRANCH   7  30
HETATM   30  C   UNL     1       6.850  25.881  55.502  1.00  0.00     0.046 A 
HETATM   31  C   UNL     1       7.677  26.971  55.814  1.00  0.00     0.055 A 
HETATM   32  C   UNL     1       7.154  28.119  56.422  1.00  0.00     0.058 A 
HETATM   33 CL   UNL     1       8.242  29.420  56.752  1.00  0.00    -0.082 Cl
HETATM   34  C   UNL     1       5.794  28.185  56.739  1.00  0.00     0.055 A 
HETATM   35 CL   UNL     1       5.080  29.562  57.497  1.00  0.00    -0.083 Cl
HETATM   36  C   UNL     1       4.965  27.100  56.449  1.00  0.00     0.028 A 
HETATM   37  C   UNL     1       5.489  25.955  55.838  1.00  0.00     0.032 A 
ENDBRANCH   7  30
TORSDOF 5
ENDMDL
MODEL 4
REMARK VINA RESULT:     -10.2      4.833      9.908
REMARK  5 active torsions:
REMARK  status: ('A' for Active; 'I' for Inactive)
REMARK    1  A    between atoms: C_6  and  S_7 
REMARK    2  A    between atoms: S_7  and  C_8 
REMARK    3  A    between atoms: C_8  and  C_9 
REMARK       I    between atoms: C_9  and  N_10 
REMARK    4  A    between atoms: N_10  and  C_11 
REMARK    5  A    between atoms: N_22  and  C_23 
ROOT
HETATM    1  C   UNL     1       8.013  22.485  54.635  1.00  0.00     0.001 A 
HETATM    2  C   UNL     1       7.088  23.256  53.932  1.00  0.00     0.019 A 
HETATM    3  C   UNL     1       6.873  24.591  54.301  1.00  0.00     0.061 A 
HETATM    4  C   UNL     1       7.566  25.156  55.364  1.00  0.00     0.075 A 
HETATM    5  N   UNL     1       7.322  26.459  55.802  1.00  0.00    -0.223 NA
HETATM    6  C   UNL     1       6.516  27.207  55.116  1.00  0.00     0.177 A 
HETATM    7  N   UNL     1       5.855  26.791  53.956  1.00  0.00    -0.256 N 
HETATM    8  C   UNL     1       5.943  25.452  53.549  1.00  0.00     0.267 A 
HETATM    9  O   UNL     1       5.351  24.951  52.594  1.00  0.00    -0.267 OA
HETATM   10  C   UNL     1       8.503  24.379  56.054  1.00  0.00     0.032 A 
HETATM   11  C   UNL     1       8.725  23.048  55.692  1.00  0.00     0.002 A 
ENDROOT
BRANCH   6  12
HETATM   12  S   UNL     1       6.140  28.789  55.796  1.00  0.00    -0.082 SA
BRANCH  12  13
HETATM   13  C   UNL     1       7.772  29.409  56.292  1.00  0.00     0.185 C 
BRANCH  13  14
HETATM   14  C   UNL     1       7.912  29.500  57.807  1.00  0.00     0.231 C 
HETATM   15  N   UNL     1       7.959  30.798  58.280  1.00  0.00    -0.326 N 
HETATM   16  H   UNL     1       8.014  31.520  57.564  1.00  0.00     0.169 HD
HETATM   17  O   UNL     1       7.939  28.483  58.495  1.00  0.00    -0.272 OA
BRANCH  15  18
HETATM   18  C   UNL     1       7.989  31.237  59.618  1.00  0.00     0.037 A 
HETATM   19  C   UNL     1       6.982  32.019  60.199  1.00  0.00     0.061 A 
HETATM   20  C   UNL     1       7.169  32.409  61.506  1.00  0.00     0.065 A 
HETATM   21  C   UNL     1       8.295  32.049  62.242  1.00  0.00     0.063 A 
HETATM   22  N   UNL     1       6.360  33.192  62.324  1.00  0.00    -0.306 N 
HETATM   23  N   UNL     1       8.180  32.608  63.509  1.00  0.00    -0.307 N 
HETATM   24  C   UNL     1       9.295  31.275  61.711  1.00  0.00     0.034 A 
HETATM   25  C   UNL     1       6.978  33.327  63.574  1.00  0.00     0.325 A 
HETATM   26  H   UNL     1       8.830  32.536  64.273  1.00  0.00     0.170 HD
HETATM   27  O   UNL     1       6.557  33.951  64.533  1.00  0.00    -0.247 OA
HETATM   28  C   UNL     1       9.130  30.871  60.381  1.00  0.00     0.032 A 
HETATM   29  H   UNL     1       5.475  33.609  62.082  1.00  0.00     0.170 HD
ENDBRANCH  15  18
ENDBRANCH  13  14
ENDBRANCH  12  13
ENDBRANCH   6  12
BRANCH   7  30
HETATM   30  C   UNL     1       5.127  27.686  53.101  1.00  0.00     0.046 A 
HETATM   31  C   UNL     1       5.777  28.387  52.073  1.00  0.00     0.055 A 
HETATM   32  C   UNL     1       5.079  29.298  51.271  1.00  0.00     0.058 A 
HETATM   33 CL   UNL     1       5.956  30.101  50.017  1.00  0.00    -0.082 Cl
HETATM   34  C   UNL     1       3.720  29.530  51.497  1.00  0.00     0.055 A 
HETATM   35 CL   UNL     1       2.796  30.644  50.556  1.00  0.00    -0.083 Cl
HETATM   36  C   UNL     1       3.066  28.852  52.528  1.00  0.00     0.028 A 
HETATM   37  C   UNL     1       3.765  27.939  53.326  1.00  0.00     0.032 A 
ENDBRANCH   7  30
TORSDOF 5
ENDMDL
MODEL 5
REMARK VINA RESULT:     -10.2      3.527      6.123
REMARK  5 active torsions:
REMARK  status: ('A' for Active; 'I' for Inactive)
REMARK    1  A    between atoms: C_6  and  S_7 
REMARK    2  A    between atoms: S_7  and  C_8 
REMARK    3  A    between atoms: C_8  and  C_9 
REMARK       I    between atoms: C_9  and  N_10 
REMARK    4  A    between atoms: N_10  and  C_11 
REMARK    5  A    between atoms: N_22  and  C_23 
ROOT
HETATM    1  C   UNL     1       9.355  31.551  59.974  1.00  0.00     0.001 A 
HETATM    2  C   UNL     1       9.399  30.422  59.156  1.00  0.00     0.019 A 
HETATM    3  C   UNL     1       8.275  30.069  58.397  1.00  0.00     0.061 A 
HETATM    4  C   UNL     1       7.112  30.828  58.454  1.00  0.00     0.075 A 
HETATM    5  N   UNL     1       5.953  30.463  57.766  1.00  0.00    -0.223 NA
HETATM    6  C   UNL     1       6.002  29.457  56.951  1.00  0.00     0.177 A 
HETATM    7  N   UNL     1       7.148  28.692  56.715  1.00  0.00    -0.256 N 
HETATM    8  C   UNL     1       8.301  28.915  57.482  1.00  0.00     0.267 A 
HETATM    9  O   UNL     1       9.342  28.262  57.420  1.00  0.00    -0.267 OA
HETATM   10  C   UNL     1       7.083  31.967  59.265  1.00  0.00     0.032 A 
HETATM   11  C   UNL     1       8.199  32.327  60.023  1.00  0.00     0.002 A 
ENDROOT
BRANCH   6  12
HETATM   12  S   UNL     1       4.475  28.959  56.224  1.00  0.00    -0.082 SA
BRANCH  12  13
HETATM   13  C   UNL     1       3.855  30.503  55.501  1.00  0.00     0.185 C 
BRANCH  13  14
HETATM   14  C   UNL     1       3.808  30.442  53.978  1.00  0.00     0.231 C 
HETATM   15  N   UNL     1       4.643  29.482  53.438  1.00  0.00    -0.326 N 
HETATM   16  H   UNL     1       5.265  29.023  54.101  1.00  0.00     0.169 HD
HETATM   17  O   UNL     1       3.053  31.176  53.345  1.00  0.00    -0.272 OA
BRANCH  15  18
HETATM   18  C   UNL     1       4.773  29.099  52.088  1.00  0.00     0.037 A 
HETATM   19  C   UNL     1       4.240  27.914  51.566  1.00  0.00     0.061 A 
HETATM   20  C   UNL     1       4.483  27.652  50.236  1.00  0.00     0.065 A 
HETATM   21  C   UNL     1       5.217  28.514  49.424  1.00  0.00     0.063 A 
HETATM   22  N   UNL     1       4.102  26.562  49.461  1.00  0.00    -0.306 N 
HETATM   23  N   UNL     1       5.285  27.956  48.153  1.00  0.00    -0.307 N 
HETATM   24  C   UNL     1       5.743  29.688  49.898  1.00  0.00     0.034 A 
HETATM   25  C   UNL     1       4.597  26.735  48.162  1.00  0.00     0.325 A 
HETATM   26  H   UNL     1       5.747  28.332  47.342  1.00  0.00     0.170 HD
HETATM   27  O   UNL     1       4.460  25.974  47.220  1.00  0.00    -0.247 OA
HETATM   28  C   UNL     1       5.514  29.974  51.249  1.00  0.00     0.032 A 
HETATM   29  H   UNL     1       3.564  25.763  49.759  1.00  0.00     0.170 HD
ENDBRANCH  15  18
ENDBRANCH  13  14
ENDBRANCH  12  13
ENDBRANCH   6  12
BRANCH   7  30
HETATM   30  C   UNL     1       7.240  27.714  55.668  1.00  0.00     0.046 A 
HETATM   31  C   UNL     1       7.045  26.350  55.939  1.00  0.00     0.055 A 
HETATM   32  C   UNL     1       7.183  25.390  54.930  1.00  0.00     0.058 A 
HETATM   33 CL   UNL     1       6.906  23.736  55.350  1.00  0.00    -0.082 Cl
HETATM   34  C   UNL     1       7.532  25.782  53.634  1.00  0.00     0.055 A 
HETATM   35 CL   UNL     1       7.729  24.655  52.342  1.00  0.00    -0.083 Cl
HETATM   36  C   UNL     1       7.744  27.133  53.356  1.00  0.00     0.028 A 
HETATM   37  C   UNL     1       7.603  28.092  54.366  1.00  0.00     0.032 A 
ENDBRANCH   7  30
TORSDOF 5
ENDMDL
MODEL 6
REMARK VINA RESULT:      -9.8      2.946      3.697
REMARK  5 active torsions:
REMARK  status: ('A' for Active; 'I' for Inactive)
REMARK    1  A    between atoms: C_6  and  S_7 
REMARK    2  A    between atoms: S_7  and  C_8 
REMARK    3  A    between atoms: C_8  and  C_9 
REMARK       I    between atoms: C_9  and  N_10 
REMARK    4  A    between atoms: N_10  and  C_11 
REMARK    5  A    between atoms: N_22  and  C_23 
ROOT
HETATM    1  C   UNL     1       8.699  20.063  55.724  1.00  0.00     0.001 A 
HETATM    2  C   UNL     1       8.407  21.300  56.296  1.00  0.00     0.019 A 
HETATM    3  C   UNL     1       8.175  22.410  55.473  1.00  0.00     0.061 A 
HETATM    4  C   UNL     1       8.237  22.294  54.090  1.00  0.00     0.075 A 
HETATM    5  N   UNL     1       8.081  23.395  53.244  1.00  0.00    -0.223 NA
HETATM    6  C   UNL     1       7.743  24.535  53.760  1.00  0.00     0.177 A 
HETATM    7  N   UNL     1       7.529  24.746  55.126  1.00  0.00    -0.256 N 
HETATM    8  C   UNL     1       7.812  23.721  56.040  1.00  0.00     0.267 A 
HETATM    9  O   UNL     1       7.735  23.809  57.264  1.00  0.00    -0.267 OA
HETATM   10  C   UNL     1       8.515  21.046  53.524  1.00  0.00     0.032 A 
HETATM   11  C   UNL     1       8.746  19.934  54.337  1.00  0.00     0.002 A 
ENDROOT
BRANCH   6  12
HETATM   12  S   UNL     1       7.702  25.913  52.663  1.00  0.00    -0.082 SA
BRANCH  12  13
HETATM   13  C   UNL     1       6.358  25.478  51.524  1.00  0.00     0.185 C 
BRANCH  13  14
HETATM   14  C   UNL     1       5.458  26.670  51.219  1.00  0.00     0.231 C 
HETATM   15  N   UNL     1       5.650  27.739  52.074  1.00  0.00    -0.326 N 
HETATM   16  H   UNL     1       6.270  27.561  52.862  1.00  0.00     0.169 HD
HETATM   17  O   UNL     1       4.681  26.641  50.268  1.00  0.00    -0.272 OA
BRANCH  15  18
HETATM   18  C   UNL     1       5.060  29.017  52.018  1.00  0.00     0.037 A 
HETATM   19  C   UNL     1       4.035  29.436  52.876  1.00  0.00     0.061 A 
HETATM   20  C   UNL     1       3.527  30.699  52.674  1.00  0.00     0.065 A 
HETATM   21  C   UNL     1       3.999  31.546  51.673  1.00  0.00     0.063 A 
HETATM   22  N   UNL     1       2.510  31.366  53.349  1.00  0.00    -0.306 N 
HETATM   23  N   UNL     1       3.274  32.730  51.732  1.00  0.00    -0.307 N 
HETATM   24  C   UNL     1       5.007  31.175  50.821  1.00  0.00     0.034 A 
HETATM   25  C   UNL     1       2.338  32.631  52.772  1.00  0.00     0.325 A 
HETATM   26  H   UNL     1       3.371  33.539  51.142  1.00  0.00     0.170 HD
HETATM   27  O   UNL     1       1.532  33.482  53.104  1.00  0.00    -0.247 OA
HETATM   28  C   UNL     1       5.537  29.891  51.004  1.00  0.00     0.032 A 
HETATM   29  H   UNL     1       1.967  31.020  54.124  1.00  0.00     0.170 HD
ENDBRANCH  15  18
ENDBRANCH  13  14
ENDBRANCH  12  13
ENDBRANCH   6  12
BRANCH   7  30
HETATM   30  C   UNL     1       6.964  25.955  55.656  1.00  0.00     0.046 A 
HETATM   31  C   UNL     1       7.777  26.917  56.277  1.00  0.00     0.055 A 
HETATM   32  C   UNL     1       7.221  28.073  56.838  1.00  0.00     0.058 A 
HETATM   33 CL   UNL     1       8.300  29.211  57.565  1.00  0.00    -0.082 Cl
HETATM   34  C   UNL     1       5.839  28.276  56.798  1.00  0.00     0.055 A 
HETATM   35 CL   UNL     1       5.082  29.671  57.477  1.00  0.00    -0.083 Cl
HETATM   36  C   UNL     1       5.019  27.318  56.198  1.00  0.00     0.028 A 
HETATM   37  C   UNL     1       5.576  26.165  55.634  1.00  0.00     0.032 A 
ENDBRANCH   7  30
TORSDOF 5
ENDMDL
MODEL 7
REMARK VINA RESULT:      -9.7      4.145      8.907
REMARK  5 active torsions:
REMARK  status: ('A' for Active; 'I' for Inactive)
REMARK    1  A    between atoms: C_6  and  S_7 
REMARK    2  A    between atoms: S_7  and  C_8 
REMARK    3  A    between atoms: C_8  and  C_9 
REMARK       I    between atoms: C_9  and  N_10 
REMARK    4  A    between atoms: N_10  and  C_11 
REMARK    5  A    between atoms: N_22  and  C_23 
ROOT
HETATM    1  C   UNL     1       7.864  23.744  55.092  1.00  0.00     0.001 A 
HETATM    2  C   UNL     1       7.581  24.199  53.805  1.00  0.00     0.019 A 
HETATM    3  C   UNL     1       6.640  25.221  53.620  1.00  0.00     0.061 A 
HETATM    4  C   UNL     1       5.980  25.784  54.704  1.00  0.00     0.075 A 
HETATM    5  N   UNL     1       4.986  26.753  54.548  1.00  0.00    -0.223 NA
HETATM    6  C   UNL     1       4.763  27.232  53.365  1.00  0.00     0.177 A 
HETATM    7  N   UNL     1       5.450  26.834  52.214  1.00  0.00    -0.256 N 
HETATM    8  C   UNL     1       6.354  25.764  52.280  1.00  0.00     0.267 A 
HETATM    9  O   UNL     1       6.960  25.276  51.327  1.00  0.00    -0.267 OA
HETATM   10  C   UNL     1       6.282  25.332  55.992  1.00  0.00     0.032 A 
HETATM   11  C   UNL     1       7.219  24.315  56.187  1.00  0.00     0.002 A 
ENDROOT
BRANCH   6  12
HETATM   12  S   UNL     1       3.404  28.344  53.210  1.00  0.00    -0.082 SA
BRANCH  12  13
HETATM   13  C   UNL     1       4.107  29.916  53.779  1.00  0.00     0.185 C 
BRANCH  13  14
HETATM   14  C   UNL     1       4.494  29.870  55.253  1.00  0.00     0.231 C 
HETATM   15  N   UNL     1       5.858  29.930  55.468  1.00  0.00    -0.326 N 
HETATM   16  H   UNL     1       6.434  29.879  54.630  1.00  0.00     0.169 HD
HETATM   17  O   UNL     1       3.630  29.820  56.125  1.00  0.00    -0.272 OA
BRANCH  15  18
HETATM   18  C   UNL     1       6.544  30.005  56.696  1.00  0.00     0.037 A 
HETATM   19  C   UNL     1       6.184  30.875  57.732  1.00  0.00     0.061 A 
HETATM   20  C   UNL     1       6.974  30.867  58.860  1.00  0.00     0.065 A 
HETATM   21  C   UNL     1       8.084  30.034  58.991  1.00  0.00     0.063 A 
HETATM   22  N   UNL     1       6.873  31.624  60.022  1.00  0.00    -0.306 N 
HETATM   23  N   UNL     1       8.661  30.278  60.231  1.00  0.00    -0.307 N 
HETATM   24  C   UNL     1       8.460  29.161  58.003  1.00  0.00     0.034 A 
HETATM   25  C   UNL     1       7.918  31.271  60.885  1.00  0.00     0.325 A 
HETATM   26  H   UNL     1       9.478  29.841  60.624  1.00  0.00     0.170 HD
HETATM   27  O   UNL     1       8.143  31.736  61.989  1.00  0.00    -0.247 OA
HETATM   28  C   UNL     1       7.673  29.155  56.844  1.00  0.00     0.032 A 
HETATM   29  H   UNL     1       6.176  32.321  60.233  1.00  0.00     0.170 HD
ENDBRANCH  15  18
ENDBRANCH  13  14
ENDBRANCH  12  13
ENDBRANCH   6  12
BRANCH   7  30
HETATM   30  C   UNL     1       5.332  27.511  50.953  1.00  0.00     0.046 A 
HETATM   31  C   UNL     1       5.753  28.843  50.809  1.00  0.00     0.055 A 
HETATM   32  C   UNL     1       5.592  29.520  49.594  1.00  0.00     0.058 A 
HETATM   33 CL   UNL     1       6.157  31.151  49.503  1.00  0.00    -0.082 Cl
HETATM   34  C   UNL     1       4.994  28.876  48.508  1.00  0.00     0.055 A 
HETATM   35 CL   UNL     1       4.754  29.650  46.984  1.00  0.00    -0.083 Cl
HETATM   36  C   UNL     1       4.556  27.557  48.644  1.00  0.00     0.028 A 
HETATM   37  C   UNL     1       4.720  26.881  49.858  1.00  0.00     0.032 A 
ENDBRANCH   7  30
TORSDOF 5
ENDMDL
MODEL 8
REMARK VINA RESULT:      -9.7      4.999      8.898
REMARK  5 active torsions:
REMARK  status: ('A' for Active; 'I' for Inactive)
REMARK    1  A    between atoms: C_6  and  S_7 
REMARK    2  A    between atoms: S_7  and  C_8 
REMARK    3  A    between atoms: C_8  and  C_9 
REMARK       I    between atoms: C_9  and  N_10 
REMARK    4  A    between atoms: N_10  and  C_11 
REMARK    5  A    between atoms: N_22  and  C_23 
ROOT
HETATM    1  C   UNL     1       5.073  33.446  64.654  1.00  0.00     0.001 A 
HETATM    2  C   UNL     1       5.980  32.687  63.915  1.00  0.00     0.019 A 
HETATM    3  C   UNL     1       5.902  32.679  62.516  1.00  0.00     0.061 A 
HETATM    4  C   UNL     1       4.928  33.416  61.854  1.00  0.00     0.075 A 
HETATM    5  N   UNL     1       4.779  33.373  60.466  1.00  0.00    -0.223 NA
HETATM    6  C   UNL     1       5.657  32.726  59.764  1.00  0.00     0.177 A 
HETATM    7  N   UNL     1       6.753  32.050  60.308  1.00  0.00    -0.256 N 
HETATM    8  C   UNL     1       6.876  31.932  61.700  1.00  0.00     0.267 A 
HETATM    9  O   UNL     1       7.749  31.302  62.293  1.00  0.00    -0.267 OA
HETATM   10  C   UNL     1       4.033  34.186  62.602  1.00  0.00     0.032 A 
HETATM   11  C   UNL     1       4.104  34.201  63.997  1.00  0.00     0.002 A 
ENDROOT
BRANCH   6  12
HETATM   12  S   UNL     1       5.336  32.590  58.036  1.00  0.00    -0.082 SA
BRANCH  12  13
HETATM   13  C   UNL     1       4.530  30.970  57.907  1.00  0.00     0.185 C 
BRANCH  13  14
HETATM   14  C   UNL     1       5.097  30.140  56.760  1.00  0.00     0.231 C 
HETATM   15  N   UNL     1       4.604  28.849  56.717  1.00  0.00    -0.326 N 
HETATM   16  H   UNL     1       4.026  28.577  57.510  1.00  0.00     0.169 HD
HETATM   17  O   UNL     1       5.885  30.635  55.959  1.00  0.00    -0.272 OA
BRANCH  15  18
HETATM   18  C   UNL     1       4.840  27.858  55.744  1.00  0.00     0.037 A 
HETATM   19  C   UNL     1       5.610  26.711  55.978  1.00  0.00     0.061 A 
HETATM   20  C   UNL     1       5.789  25.851  54.918  1.00  0.00     0.065 A 
HETATM   21  C   UNL     1       5.235  26.084  53.661  1.00  0.00     0.063 A 
HETATM   22  N   UNL     1       6.509  24.662  54.851  1.00  0.00    -0.306 N 
HETATM   23  N   UNL     1       5.611  25.041  52.824  1.00  0.00    -0.307 N 
HETATM   24  C   UNL     1       4.467  27.189  53.398  1.00  0.00     0.034 A 
HETATM   25  C   UNL     1       6.410  24.147  53.551  1.00  0.00     0.325 A 
HETATM   26  H   UNL     1       5.376  24.918  51.853  1.00  0.00     0.170 HD
HETATM   27  O   UNL     1       6.920  23.124  53.131  1.00  0.00    -0.247 OA
HETATM   28  C   UNL     1       4.275  28.082  54.460  1.00  0.00     0.032 A 
HETATM   29  H   UNL     1       7.028  24.224  55.595  1.00  0.00     0.170 HD
ENDBRANCH  15  18
ENDBRANCH  13  14
ENDBRANCH  12  13
ENDBRANCH   6  12
BRANCH   7  30
HETATM   30  C   UNL     1       7.819  31.511  59.511  1.00  0.00     0.046 A 
HETATM   31  C   UNL     1       7.706  30.242  58.921  1.00  0.00     0.055 A 
HETATM   32  C   UNL     1       8.763  29.694  58.185  1.00  0.00     0.058 A 
HETATM   33 CL   UNL     1       8.528  28.135  57.479  1.00  0.00    -0.082 Cl
HETATM   34  C   UNL     1       9.957  30.406  58.042  1.00  0.00     0.055 A 
HETATM   35 CL   UNL     1      11.307  29.791  57.158  1.00  0.00    -0.083 Cl
HETATM   36  C   UNL     1      10.089  31.661  58.638  1.00  0.00     0.028 A 
HETATM   37  C   UNL     1       9.029  32.209  59.370  1.00  0.00     0.032 A 
ENDBRANCH   7  30
TORSDOF 5
ENDMDL
MODEL 9
REMARK VINA RESULT:      -9.6      5.397     11.049
REMARK  5 active torsions:
REMARK  status: ('A' for Active; 'I' for Inactive)
REMARK    1  A    between atoms: C_6  and  S_7 
REMARK    2  A    between atoms: S_7  and  C_8 
REMARK    3  A    between atoms: C_8  and  C_9 
REMARK       I    between atoms: C_9  and  N_10 
REMARK    4  A    between atoms: N_10  and  C_11 
REMARK    5  A    between atoms: N_22  and  C_23 
ROOT
HETATM    1  C   UNL     1       2.576  31.784  55.719  1.00  0.00     0.001 A 
HETATM    2  C   UNL     1       3.018  30.551  55.241  1.00  0.00     0.019 A 
HETATM    3  C   UNL     1       4.349  30.162  55.445  1.00  0.00     0.061 A 
HETATM    4  C   UNL     1       5.237  30.993  56.115  1.00  0.00     0.075 A 
HETATM    5  N   UNL     1       6.586  30.666  56.272  1.00  0.00    -0.223 NA
HETATM    6  C   UNL     1       6.992  29.495  55.893  1.00  0.00     0.177 A 
HETATM    7  N   UNL     1       6.165  28.525  55.319  1.00  0.00    -0.256 N 
HETATM    8  C   UNL     1       4.837  28.844  55.000  1.00  0.00     0.267 A 
HETATM    9  O   UNL     1       4.038  28.105  54.429  1.00  0.00    -0.267 OA
HETATM   10  C   UNL     1       4.781  32.221  56.605  1.00  0.00     0.032 A 
HETATM   11  C   UNL     1       3.457  32.616  56.408  1.00  0.00     0.002 A 
ENDROOT
BRANCH   6  12
HETATM   12  S   UNL     1       8.727  29.197  55.986  1.00  0.00    -0.082 SA
BRANCH  12  13
HETATM   13  C   UNL     1       8.976  28.835  57.746  1.00  0.00     0.185 C 
BRANCH  13  14
HETATM   14  C   UNL     1       8.929  30.097  58.601  1.00  0.00     0.231 C 
HETATM   15  N   UNL     1       7.796  30.189  59.387  1.00  0.00    -0.326 N 
HETATM   16  H   UNL     1       7.087  29.478  59.214  1.00  0.00     0.169 HD
HETATM   17  O   UNL     1       9.856  30.902  58.579  1.00  0.00    -0.272 OA
BRANCH  15  18
HETATM   18  C   UNL     1       7.482  31.165  60.353  1.00  0.00     0.037 A 
HETATM   19  C   UNL     1       8.050  31.197  61.633  1.00  0.00     0.061 A 
HETATM   20  C   UNL     1       7.615  32.187  62.486  1.00  0.00     0.065 A 
HETATM   21  C   UNL     1       6.660  33.130  62.114  1.00  0.00     0.063 A 
HETATM   22  N   UNL     1       7.981  32.450  63.802  1.00  0.00    -0.306 N 
HETATM   23  N   UNL     1       6.439  33.971  63.197  1.00  0.00    -0.307 N 
HETATM   24  C   UNL     1       6.090  33.137  60.866  1.00  0.00     0.034 A 
HETATM   25  C   UNL     1       7.255  33.557  64.260  1.00  0.00     0.325 A 
HETATM   26  H   UNL     1       5.805  34.751  63.250  1.00  0.00     0.170 HD
HETATM   27  O   UNL     1       7.315  34.062  65.367  1.00  0.00    -0.247 OA
HETATM   28  C   UNL     1       6.513  32.136  59.983  1.00  0.00     0.032 A 
HETATM   29  H   UNL     1       8.650  31.942  64.359  1.00  0.00     0.170 HD
ENDBRANCH  15  18
ENDBRANCH  13  14
ENDBRANCH  12  13
ENDBRANCH   6  12
BRANCH   7  30
HETATM   30  C   UNL     1       6.583  27.171  55.089  1.00  0.00     0.046 A 
HETATM   31  C   UNL     1       7.040  26.763  53.826  1.00  0.00     0.055 A 
HETATM   32  C   UNL     1       7.401  25.432  53.587  1.00  0.00     0.058 A 
HETATM   33 CL   UNL     1       7.970  25.025  52.006  1.00  0.00    -0.082 Cl
HETATM   34  C   UNL     1       7.296  24.485  54.609  1.00  0.00     0.055 A 
HETATM   35 CL   UNL     1       7.713  22.824  54.386  1.00  0.00    -0.083 Cl
HETATM   36  C   UNL     1       6.828  24.874  55.865  1.00  0.00     0.028 A 
HETATM   37  C   UNL     1       6.470  26.206  56.103  1.00  0.00     0.032 A 
ENDBRANCH   7  30
TORSDOF 5
ENDMDL
MODEL 10
REMARK VINA RESULT:      -9.5      4.079      6.154
REMARK  5 active torsions:
REMARK  status: ('A' for Active; 'I' for Inactive)
REMARK    1  A    between atoms: C_6  and  S_7 
REMARK    2  A    between atoms: S_7  and  C_8 
REMARK    3  A    between atoms: C_8  and  C_9 
REMARK       I    between atoms: C_9  and  N_10 
REMARK    4  A    between atoms: N_10  and  C_11 
REMARK    5  A    between atoms: N_22  and  C_23 
ROOT
HETATM    1  C   UNL     1       7.070  29.533  57.502  1.00  0.00     0.001 A 
HETATM    2  C   UNL     1       7.414  28.195  57.318  1.00  0.00     0.019 A 
HETATM    3  C   UNL     1       6.855  27.472  56.256  1.00  0.00     0.061 A 
HETATM    4  C   UNL     1       5.956  28.073  55.383  1.00  0.00     0.075 A 
HETATM    5  N   UNL     1       5.327  27.361  54.359  1.00  0.00    -0.223 NA
HETATM    6  C   UNL     1       5.689  26.137  54.136  1.00  0.00     0.177 A 
HETATM    7  N   UNL     1       6.673  25.464  54.867  1.00  0.00    -0.256 N 
HETATM    8  C   UNL     1       7.236  26.072  55.999  1.00  0.00     0.267 A 
HETATM    9  O   UNL     1       8.050  25.555  56.761  1.00  0.00    -0.267 OA
HETATM   10  C   UNL     1       5.629  29.419  55.566  1.00  0.00     0.032 A 
HETATM   11  C   UNL     1       6.182  30.148  56.621  1.00  0.00     0.002 A 
ENDROOT
BRANCH   6  12
HETATM   12  S   UNL     1       4.762  25.250  52.928  1.00  0.00    -0.082 SA
BRANCH  12  13
HETATM   13  C   UNL     1       5.534  25.771  51.371  1.00  0.00     0.185 C 
BRANCH  13  14
HETATM   14  C   UNL     1       4.957  27.086  50.858  1.00  0.00     0.231 C 
HETATM   15  N   UNL     1       5.508  28.202  51.460  1.00  0.00    -0.326 N 
HETATM   16  H   UNL     1       6.132  28.012  52.242  1.00  0.00     0.169 HD
HETATM   17  O   UNL     1       4.111  27.093  49.968  1.00  0.00    -0.272 OA
BRANCH  15  18
HETATM   18  C   UNL     1       5.275  29.559  51.160  1.00  0.00     0.037 A 
HETATM   19  C   UNL     1       5.857  30.221  50.072  1.00  0.00     0.061 A 
HETATM   20  C   UNL     1       5.569  31.560  49.928  1.00  0.00     0.065 A 
HETATM   21  C   UNL     1       4.734  32.246  50.807  1.00  0.00     0.063 A 
HETATM   22  N   UNL     1       6.011  32.466  48.969  1.00  0.00    -0.306 N 
HETATM   23  N   UNL     1       4.662  33.569  50.390  1.00  0.00    -0.307 N 
HETATM   24  C   UNL     1       4.138  31.628  51.877  1.00  0.00     0.034 A 
HETATM   25  C   UNL     1       5.457  33.723  49.245  1.00  0.00     0.325 A 
HETATM   26  H   UNL     1       4.144  34.319  50.815  1.00  0.00     0.170 HD
HETATM   27  O   UNL     1       5.632  34.752  48.617  1.00  0.00    -0.247 OA
HETATM   28  C   UNL     1       4.420  30.267  52.046  1.00  0.00     0.032 A 
HETATM   29  H   UNL     1       6.631  32.278  48.197  1.00  0.00     0.170 HD
ENDBRANCH  15  18
ENDBRANCH  13  14
ENDBRANCH  12  13
ENDBRANCH   6  12
BRANCH   7  30
HETATM   30  C   UNL     1       7.201  24.185  54.483  1.00  0.00     0.046 A 
HETATM   31  C   UNL     1       7.100  23.079  55.341  1.00  0.00     0.055 A 
HETATM   32  C   UNL     1       7.658  21.843  54.990  1.00  0.00     0.058 A 
HETATM   33 CL   UNL     1       7.469  20.532  56.099  1.00  0.00    -0.082 Cl
HETATM   34  C   UNL     1       8.338  21.702  53.777  1.00  0.00     0.055 A 
HETATM   35 CL   UNL     1       9.060  20.214  53.281  1.00  0.00    -0.083 Cl
HETATM   36  C   UNL     1       8.460  22.800  52.923  1.00  0.00     0.028 A 
HETATM   37  C   UNL     1       7.898  24.033  53.275  1.00  0.00     0.032 A 
ENDBRANCH   7  30
TORSDOF 5
ENDMDL
