MODEL 1
REMARK VINA RESULT:      -8.0      0.000      0.000
REMARK  4 active torsions:
REMARK  status: ('A' for Active; 'I' for Inactive)
REMARK    1  A    between atoms: C_2  and  C_3 
REMARK    2  A    between atoms: C_4  and  N_5 
REMARK       I    between atoms: N_5  and  C_6 
REMARK       I    between atoms: C_6  and  N_7 
REMARK    3  A    between atoms: C_8  and  C_9 
REMARK    4  A    between atoms: C_21  and  C_22 
ROOT
HETATM    1  N   UNL     1       7.351  29.651  55.470  1.00  0.00    -0.209 NA
HETATM    2  C   UNL     1       7.403  28.385  54.953  1.00  0.00     0.301 C 
HETATM    3  N   UNL     1       6.577  27.403  55.438  1.00  0.00    -0.330 N 
HETATM    4  C   UNL     1       6.559  26.074  54.821  1.00  0.00     0.125 C 
HETATM    5  C   UNL     1       5.549  25.270  55.651  1.00  0.00     0.032 C 
HETATM    6  C   UNL     1       5.627  25.922  57.017  1.00  0.00     0.022 C 
HETATM    7  C   UNL     1       5.812  27.395  56.679  1.00  0.00     0.128 C 
HETATM    8  O   UNL     1       8.155  28.208  53.992  1.00  0.00    -0.254 OA
HETATM    9  H   UNL     1       8.027  30.174  54.921  1.00  0.00     0.138 HD
ENDROOT
BRANCH   1  10
HETATM   10  C   UNL     1       7.469  29.985  56.836  1.00  0.00     0.029 A 
HETATM   11  C   UNL     1       8.640  29.648  57.562  1.00  0.00    -0.036 A 
HETATM   12  C   UNL     1       8.719  29.988  58.924  1.00  0.00     0.009 A 
HETATM   13  C   UNL     1       7.693  30.684  59.546  1.00  0.00     0.001 A 
HETATM   14  C   UNL     1       6.582  31.077  58.807  1.00  0.00     0.009 A 
HETATM   15  C   UNL     1       6.445  30.750  57.441  1.00  0.00    -0.036 A 
BRANCH  11  16
HETATM   16  C   UNL     1       9.854  28.979  56.951  1.00  0.00     0.036 C 
HETATM   17  C   UNL     1      11.125  29.804  57.100  1.00  0.00     0.010 C 
ENDBRANCH  11  16
BRANCH  15  18
HETATM   18  C   UNL     1       5.236  31.360  56.752  1.00  0.00     0.036 C 
HETATM   19  C   UNL     1       3.962  30.555  56.554  1.00  0.00     0.010 C 
ENDBRANCH  15  18
ENDBRANCH   1  10
BRANCH   4  20
HETATM   20  C   UNL     1       6.187  26.066  53.367  1.00  0.00     0.014 A 
HETATM   21  C   UNL     1       5.115  26.721  52.689  1.00  0.00     0.061 A 
HETATM   22  C   UNL     1       4.086  27.637  53.238  1.00  0.00     0.073 C 
HETATM   23  N   UNL     1       5.098  26.434  51.382  1.00  0.00    -0.179 NA
HETATM   24  N   UNL     1       6.163  25.645  51.207  1.00  0.00    -0.282 N 
HETATM   25  H   UNL     1       6.370  25.326  50.267  1.00  0.00     0.189 HD
HETATM   26  C   UNL     1       6.833  25.362  52.361  1.00  0.00     0.034 A 
HETATM   27  C   UNL     1       8.022  24.480  52.386  1.00  0.00     0.070 C 
ENDBRANCH   4  20
TORSDOF 4
ENDMDL
MODEL 2
REMARK VINA RESULT:      -7.7      0.318      2.728
REMARK  4 active torsions:
REMARK  status: ('A' for Active; 'I' for Inactive)
REMARK    1  A    between atoms: C_2  and  C_3 
REMARK    2  A    between atoms: C_4  and  N_5 
REMARK       I    between atoms: N_5  and  C_6 
REMARK       I    between atoms: C_6  and  N_7 
REMARK    3  A    between atoms: C_8  and  C_9 
REMARK    4  A    between atoms: C_21  and  C_22 
ROOT
HETATM    1  N   UNL     1       7.272  29.709  55.450  1.00  0.00    -0.209 NA
HETATM    2  C   UNL     1       7.349  28.437  54.952  1.00  0.00     0.301 C 
HETATM    3  N   UNL     1       6.535  27.449  55.444  1.00  0.00    -0.330 N 
HETATM    4  C   UNL     1       6.543  26.111  54.846  1.00  0.00     0.125 C 
HETATM    5  C   UNL     1       5.540  25.302  55.679  1.00  0.00     0.032 C 
HETATM    6  C   UNL     1       5.596  25.976  57.036  1.00  0.00     0.022 C 
HETATM    7  C   UNL     1       5.759  27.446  56.678  1.00  0.00     0.128 C 
HETATM    8  O   UNL     1       8.113  28.258  54.000  1.00  0.00    -0.254 OA
HETATM    9  H   UNL     1       7.944  30.235  54.898  1.00  0.00     0.138 HD
ENDROOT
BRANCH   1  10
HETATM   10  C   UNL     1       7.373  30.065  56.811  1.00  0.00     0.029 A 
HETATM   11  C   UNL     1       6.272  30.646  57.490  1.00  0.00    -0.036 A 
HETATM   12  C   UNL     1       6.412  30.997  58.843  1.00  0.00     0.009 A 
HETATM   13  C   UNL     1       7.592  30.739  59.528  1.00  0.00     0.001 A 
HETATM   14  C   UNL     1       8.640  30.099  58.875  1.00  0.00     0.009 A 
HETATM   15  C   UNL     1       8.558  29.739  57.513  1.00  0.00    -0.036 A 
BRANCH  11  16
HETATM   16  C   UNL     1       4.913  30.875  56.860  1.00  0.00     0.036 C 
HETATM   17  C   UNL     1       3.778  30.858  57.873  1.00  0.00     0.010 C 
ENDBRANCH  11  16
BRANCH  15  18
HETATM   18  C   UNL     1       9.737  28.938  56.988  1.00  0.00     0.036 C 
HETATM   19  C   UNL     1      11.128  29.548  56.924  1.00  0.00     0.010 C 
ENDBRANCH  15  18
ENDBRANCH   1  10
BRANCH   4  20
HETATM   20  C   UNL     1       6.185  26.076  53.389  1.00  0.00     0.014 A 
HETATM   21  C   UNL     1       5.110  26.706  52.693  1.00  0.00     0.061 A 
HETATM   22  C   UNL     1       4.064  27.616  53.219  1.00  0.00     0.073 C 
HETATM   23  N   UNL     1       5.108  26.399  51.389  1.00  0.00    -0.179 NA
HETATM   24  N   UNL     1       6.185  25.622  51.236  1.00  0.00    -0.282 N 
HETATM   25  H   UNL     1       6.404  25.291  50.303  1.00  0.00     0.189 HD
HETATM   26  C   UNL     1       6.848  25.365  52.399  1.00  0.00     0.034 A 
HETATM   27  C   UNL     1       8.049  24.499  52.448  1.00  0.00     0.070 C 
ENDBRANCH   4  20
TORSDOF 4
ENDMDL
MODEL 3
REMARK VINA RESULT:      -7.2      2.631      4.723
REMARK  4 active torsions:
REMARK  status: ('A' for Active; 'I' for Inactive)
REMARK    1  A    between atoms: C_2  and  C_3 
REMARK    2  A    between atoms: C_4  and  N_5 
REMARK       I    between atoms: N_5  and  C_6 
REMARK       I    between atoms: C_6  and  N_7 
REMARK    3  A    between atoms: C_8  and  C_9 
REMARK    4  A    between atoms: C_21  and  C_22 
ROOT
HETATM    1  N   UNL     1       7.408  26.519  53.272  1.00  0.00    -0.209 NA
HETATM    2  C   UNL     1       6.340  26.576  52.417  1.00  0.00     0.301 C 
HETATM    3  N   UNL     1       5.328  27.476  52.631  1.00  0.00    -0.330 N 
HETATM    4  C   UNL     1       4.235  27.610  51.664  1.00  0.00     0.125 C 
HETATM    5  C   UNL     1       3.308  28.675  52.265  1.00  0.00     0.032 C 
HETATM    6  C   UNL     1       3.537  28.532  53.756  1.00  0.00     0.022 C 
HETATM    7  C   UNL     1       5.027  28.229  53.842  1.00  0.00     0.128 C 
HETATM    8  O   UNL     1       6.387  25.849  51.422  1.00  0.00    -0.254 OA
HETATM    9  H   UNL     1       8.011  25.807  52.872  1.00  0.00     0.138 HD
ENDROOT
BRANCH   1  10
HETATM   10  C   UNL     1       7.330  26.362  54.673  1.00  0.00     0.029 A 
HETATM   11  C   UNL     1       6.952  25.118  55.240  1.00  0.00    -0.036 A 
HETATM   12  C   UNL     1       6.875  25.001  56.637  1.00  0.00     0.009 A 
HETATM   13  C   UNL     1       7.208  26.067  57.462  1.00  0.00     0.001 A 
HETATM   14  C   UNL     1       7.650  27.259  56.899  1.00  0.00     0.009 A 
HETATM   15  C   UNL     1       7.732  27.436  55.501  1.00  0.00    -0.036 A 
BRANCH  11  16
HETATM   16  C   UNL     1       6.668  23.869  54.430  1.00  0.00     0.036 C 
HETATM   17  C   UNL     1       7.917  23.046  54.149  1.00  0.00     0.010 C 
ENDBRANCH  11  16
BRANCH  15  18
HETATM   18  C   UNL     1       8.351  28.749  55.054  1.00  0.00     0.036 C 
HETATM   19  C   UNL     1       9.484  29.385  55.842  1.00  0.00     0.010 C 
ENDBRANCH  15  18
ENDBRANCH   1  10
BRANCH   4  20
HETATM   20  C   UNL     1       4.669  27.993  50.280  1.00  0.00     0.014 A 
HETATM   21  C   UNL     1       5.303  29.183  49.812  1.00  0.00     0.061 A 
HETATM   22  C   UNL     1       5.751  30.366  50.586  1.00  0.00     0.073 C 
HETATM   23  N   UNL     1       5.497  29.161  48.487  1.00  0.00    -0.179 NA
HETATM   24  N   UNL     1       5.040  27.962  48.111  1.00  0.00    -0.282 N 
HETATM   25  H   UNL     1       5.118  27.709  47.132  1.00  0.00     0.189 HD
HETATM   26  C   UNL     1       4.502  27.234  49.130  1.00  0.00     0.034 A 
HETATM   27  C   UNL     1       3.912  25.892  48.915  1.00  0.00     0.070 C 
ENDBRANCH   4  20
TORSDOF 4
ENDMDL
MODEL 4
REMARK VINA RESULT:      -7.0      2.545      4.419
REMARK  4 active torsions:
REMARK  status: ('A' for Active; 'I' for Inactive)
REMARK    1  A    between atoms: C_2  and  C_3 
REMARK    2  A    between atoms: C_4  and  N_5 
REMARK       I    between atoms: N_5  and  C_6 
REMARK       I    between atoms: C_6  and  N_7 
REMARK    3  A    between atoms: C_8  and  C_9 
REMARK    4  A    between atoms: C_21  and  C_22 
ROOT
HETATM    1  N   UNL     1       7.669  26.598  53.573  1.00  0.00    -0.209 NA
HETATM    2  C   UNL     1       6.591  26.586  52.729  1.00  0.00     0.301 C 
HETATM    3  N   UNL     1       5.541  27.444  52.933  1.00  0.00    -0.330 N 
HETATM    4  C   UNL     1       4.433  27.505  51.976  1.00  0.00     0.125 C 
HETATM    5  C   UNL     1       3.465  28.541  52.562  1.00  0.00     0.032 C 
HETATM    6  C   UNL     1       3.715  28.443  54.054  1.00  0.00     0.022 C 
HETATM    7  C   UNL     1       5.218  28.211  54.130  1.00  0.00     0.128 C 
HETATM    8  O   UNL     1       6.661  25.839  51.750  1.00  0.00    -0.254 OA
HETATM    9  H   UNL     1       8.300  25.905  53.182  1.00  0.00     0.138 HD
ENDROOT
BRANCH   1  10
HETATM   10  C   UNL     1       7.612  26.470  54.977  1.00  0.00     0.029 A 
HETATM   11  C   UNL     1       7.970  27.556  55.816  1.00  0.00    -0.036 A 
HETATM   12  C   UNL     1       7.911  27.389  57.210  1.00  0.00     0.009 A 
HETATM   13  C   UNL     1       7.465  26.199  57.768  1.00  0.00     0.001 A 
HETATM   14  C   UNL     1       7.044  25.166  56.937  1.00  0.00     0.009 A 
HETATM   15  C   UNL     1       7.096  25.275  55.531  1.00  0.00    -0.036 A 
BRANCH  11  16
HETATM   16  C   UNL     1       8.372  28.925  55.305  1.00  0.00     0.036 C 
HETATM   17  C   UNL     1       9.685  29.418  55.897  1.00  0.00     0.010 C 
ENDBRANCH  11  16
BRANCH  15  18
HETATM   18  C   UNL     1       6.484  24.110  54.773  1.00  0.00     0.036 C 
HETATM   19  C   UNL     1       7.362  23.034  54.153  1.00  0.00     0.010 C 
ENDBRANCH  15  18
ENDBRANCH   1  10
BRANCH   4  20
HETATM   20  C   UNL     1       4.835  27.875  50.578  1.00  0.00     0.014 A 
HETATM   21  C   UNL     1       5.377  29.094  50.070  1.00  0.00     0.061 A 
HETATM   22  C   UNL     1       5.736  30.332  50.804  1.00  0.00     0.073 C 
HETATM   23  N   UNL     1       5.571  29.044  48.746  1.00  0.00    -0.179 NA
HETATM   24  N   UNL     1       5.205  27.803  48.409  1.00  0.00    -0.282 N 
HETATM   25  H   UNL     1       5.300  27.526  47.439  1.00  0.00     0.189 HD
HETATM   26  C   UNL     1       4.725  27.069  49.454  1.00  0.00     0.034 A 
HETATM   27  C   UNL     1       4.237  25.681  49.283  1.00  0.00     0.070 C 
ENDBRANCH   4  20
TORSDOF 4
ENDMDL
MODEL 5
REMARK VINA RESULT:      -6.4      8.216     10.380
REMARK  4 active torsions:
REMARK  status: ('A' for Active; 'I' for Inactive)
REMARK    1  A    between atoms: C_2  and  C_3 
REMARK    2  A    between atoms: C_4  and  N_5 
REMARK       I    between atoms: N_5  and  C_6 
REMARK       I    between atoms: C_6  and  N_7 
REMARK    3  A    between atoms: C_8  and  C_9 
REMARK    4  A    between atoms: C_21  and  C_22 
ROOT
HETATM    1  N   UNL     1       4.830  33.141  61.796  1.00  0.00    -0.209 NA
HETATM    2  C   UNL     1       3.757  33.960  61.568  1.00  0.00     0.301 C 
HETATM    3  N   UNL     1       3.926  35.319  61.497  1.00  0.00    -0.330 N 
HETATM    4  C   UNL     1       2.799  36.192  61.154  1.00  0.00     0.125 C 
HETATM    5  C   UNL     1       3.374  37.614  61.206  1.00  0.00     0.032 C 
HETATM    6  C   UNL     1       4.494  37.497  62.222  1.00  0.00     0.022 C 
HETATM    7  C   UNL     1       5.065  36.115  61.937  1.00  0.00     0.128 C 
HETATM    8  O   UNL     1       2.675  33.411  61.349  1.00  0.00    -0.254 OA
HETATM    9  H   UNL     1       4.439  32.204  61.767  1.00  0.00     0.138 HD
ENDROOT
BRANCH   1  10
HETATM   10  C   UNL     1       5.738  33.258  62.870  1.00  0.00     0.029 A 
HETATM   11  C   UNL     1       5.280  33.588  64.170  1.00  0.00    -0.036 A 
HETATM   12  C   UNL     1       6.213  33.706  65.213  1.00  0.00     0.009 A 
HETATM   13  C   UNL     1       7.562  33.460  64.995  1.00  0.00     0.001 A 
HETATM   14  C   UNL     1       7.992  33.062  63.734  1.00  0.00     0.009 A 
HETATM   15  C   UNL     1       7.099  32.942  62.647  1.00  0.00    -0.036 A 
BRANCH  11  16
HETATM   16  C   UNL     1       3.820  33.777  64.532  1.00  0.00     0.036 C 
HETATM   17  C   UNL     1       3.550  35.097  65.241  1.00  0.00     0.010 C 
ENDBRANCH  11  16
BRANCH  15  18
HETATM   18  C   UNL     1       7.707  32.379  61.374  1.00  0.00     0.036 C 
HETATM   19  C   UNL     1       9.170  31.968  61.324  1.00  0.00     0.010 C 
ENDBRANCH  15  18
ENDBRANCH   1  10
BRANCH   4  20
HETATM   20  C   UNL     1       2.178  35.912  59.816  1.00  0.00     0.014 A 
HETATM   21  C   UNL     1       0.892  35.384  59.494  1.00  0.00     0.061 A 
HETATM   22  C   UNL     1      -0.215  35.003  60.404  1.00  0.00     0.073 C 
HETATM   23  N   UNL     1       0.723  35.246  58.172  1.00  0.00    -0.179 NA
HETATM   24  N   UNL     1       1.859  35.718  57.648  1.00  0.00    -0.282 N 
HETATM   25  H   UNL     1       1.943  35.742  56.638  1.00  0.00     0.189 HD
HETATM   26  C   UNL     1       2.779  36.098  58.580  1.00  0.00     0.034 A 
HETATM   27  C   UNL     1       4.114  36.617  58.203  1.00  0.00     0.070 C 
ENDBRANCH   4  20
TORSDOF 4
ENDMDL
MODEL 6
REMARK VINA RESULT:      -6.3      6.881      9.979
REMARK  4 active torsions:
REMARK  status: ('A' for Active; 'I' for Inactive)
REMARK    1  A    between atoms: C_2  and  C_3 
REMARK    2  A    between atoms: C_4  and  N_5 
REMARK       I    between atoms: N_5  and  C_6 
REMARK       I    between atoms: C_6  and  N_7 
REMARK    3  A    between atoms: C_8  and  C_9 
REMARK    4  A    between atoms: C_21  and  C_22 
ROOT
HETATM    1  N   UNL     1       5.944  35.357  62.671  1.00  0.00    -0.209 NA
HETATM    2  C   UNL     1       5.354  34.557  61.730  1.00  0.00     0.301 C 
HETATM    3  N   UNL     1       4.019  34.687  61.447  1.00  0.00    -0.330 N 
HETATM    4  C   UNL     1       3.406  33.903  60.371  1.00  0.00     0.125 C 
HETATM    5  C   UNL     1       1.924  34.303  60.388  1.00  0.00     0.032 C 
HETATM    6  C   UNL     1       1.687  34.685  61.836  1.00  0.00     0.022 C 
HETATM    7  C   UNL     1       2.990  35.368  62.224  1.00  0.00     0.128 C 
HETATM    8  O   UNL     1       6.096  33.793  61.107  1.00  0.00    -0.254 OA
HETATM    9  H   UNL     1       6.921  35.080  62.658  1.00  0.00     0.138 HD
ENDROOT
BRANCH   1  10
HETATM   10  C   UNL     1       5.501  35.522  64.000  1.00  0.00     0.029 A 
HETATM   11  C   UNL     1       5.528  34.436  64.911  1.00  0.00    -0.036 A 
HETATM   12  C   UNL     1       5.070  34.634  66.224  1.00  0.00     0.009 A 
HETATM   13  C   UNL     1       4.639  35.883  66.648  1.00  0.00     0.001 A 
HETATM   14  C   UNL     1       4.687  36.961  65.771  1.00  0.00     0.009 A 
HETATM   15  C   UNL     1       5.124  36.814  64.436  1.00  0.00    -0.036 A 
BRANCH  11  16
HETATM   16  C   UNL     1       6.074  33.062  64.575  1.00  0.00     0.036 C 
HETATM   17  C   UNL     1       7.586  33.047  64.412  1.00  0.00     0.010 C 
ENDBRANCH  11  16
BRANCH  15  18
HETATM   18  C   UNL     1       5.234  38.109  63.650  1.00  0.00     0.036 C 
HETATM   19  C   UNL     1       6.267  39.162  64.020  1.00  0.00     0.010 C 
ENDBRANCH  15  18
ENDBRANCH   1  10
BRANCH   4  20
HETATM   20  C   UNL     1       4.007  34.128  59.014  1.00  0.00     0.014 A 
HETATM   21  C   UNL     1       4.633  33.205  58.123  1.00  0.00     0.061 A 
HETATM   22  C   UNL     1       4.825  31.743  58.277  1.00  0.00     0.073 C 
HETATM   23  N   UNL     1       5.080  33.805  57.012  1.00  0.00    -0.179 NA
HETATM   24  N   UNL     1       4.710  35.082  57.160  1.00  0.00    -0.282 N 
HETATM   25  H   UNL     1       4.920  35.728  56.408  1.00  0.00     0.189 HD
HETATM   26  C   UNL     1       4.097  35.342  58.350  1.00  0.00     0.034 A 
HETATM   27  C   UNL     1       3.641  36.702  58.720  1.00  0.00     0.070 C 
ENDBRANCH   4  20
TORSDOF 4
ENDMDL
MODEL 7
REMARK VINA RESULT:      -6.3      6.976     11.087
REMARK  4 active torsions:
REMARK  status: ('A' for Active; 'I' for Inactive)
REMARK    1  A    between atoms: C_2  and  C_3 
REMARK    2  A    between atoms: C_4  and  N_5 
REMARK       I    between atoms: N_5  and  C_6 
REMARK       I    between atoms: C_6  and  N_7 
REMARK    3  A    between atoms: C_8  and  C_9 
REMARK    4  A    between atoms: C_21  and  C_22 
ROOT
HETATM    1  N   UNL     1       3.393  33.579  60.957  1.00  0.00    -0.209 NA
HETATM    2  C   UNL     1       4.516  33.853  61.690  1.00  0.00     0.301 C 
HETATM    3  N   UNL     1       4.798  35.140  62.072  1.00  0.00    -0.330 N 
HETATM    4  C   UNL     1       5.944  35.424  62.940  1.00  0.00     0.125 C 
HETATM    5  C   UNL     1       5.937  36.949  63.111  1.00  0.00     0.032 C 
HETATM    6  C   UNL     1       5.294  37.438  61.828  1.00  0.00     0.022 C 
HETATM    7  C   UNL     1       4.232  36.381  61.558  1.00  0.00     0.128 C 
HETATM    8  O   UNL     1       5.194  32.888  62.049  1.00  0.00    -0.254 OA
HETATM    9  H   UNL     1       3.410  32.569  60.842  1.00  0.00     0.138 HD
ENDROOT
BRANCH   1  10
HETATM   10  C   UNL     1       3.033  34.202  59.744  1.00  0.00     0.029 A 
HETATM   11  C   UNL     1       3.826  34.031  58.581  1.00  0.00    -0.036 A 
HETATM   12  C   UNL     1       3.442  34.675  57.392  1.00  0.00     0.009 A 
HETATM   13  C   UNL     1       2.280  35.431  57.334  1.00  0.00     0.001 A 
HETATM   14  C   UNL     1       1.468  35.531  58.459  1.00  0.00     0.009 A 
HETATM   15  C   UNL     1       1.814  34.917  59.682  1.00  0.00    -0.036 A 
BRANCH  11  16
HETATM   16  C   UNL     1       5.055  33.146  58.515  1.00  0.00     0.036 C 
HETATM   17  C   UNL     1       4.725  31.695  58.193  1.00  0.00     0.010 C 
ENDBRANCH  11  16
BRANCH  15  18
HETATM   18  C   UNL     1       0.761  35.019  60.772  1.00  0.00     0.036 C 
HETATM   19  C   UNL     1      -0.677  34.599  60.510  1.00  0.00     0.010 C 
ENDBRANCH  15  18
ENDBRANCH   1  10
BRANCH   4  20
HETATM   20  C   UNL     1       5.904  34.734  64.272  1.00  0.00     0.014 A 
HETATM   21  C   UNL     1       5.016  34.914  65.374  1.00  0.00     0.061 A 
HETATM   22  C   UNL     1       3.844  35.816  65.490  1.00  0.00     0.073 C 
HETATM   23  N   UNL     1       5.334  34.126  66.410  1.00  0.00    -0.179 NA
HETATM   24  N   UNL     1       6.379  33.417  65.970  1.00  0.00    -0.282 N 
HETATM   25  H   UNL     1       6.774  32.719  66.590  1.00  0.00     0.189 HD
HETATM   26  C   UNL     1       6.787  33.759  64.715  1.00  0.00     0.034 A 
HETATM   27  C   UNL     1       7.949  33.114  64.060  1.00  0.00     0.070 C 
ENDBRANCH   4  20
TORSDOF 4
ENDMDL
MODEL 8
REMARK VINA RESULT:      -6.3      4.084      6.755
REMARK  4 active torsions:
REMARK  status: ('A' for Active; 'I' for Inactive)
REMARK    1  A    between atoms: C_2  and  C_3 
REMARK    2  A    between atoms: C_4  and  N_5 
REMARK       I    between atoms: N_5  and  C_6 
REMARK       I    between atoms: C_6  and  N_7 
REMARK    3  A    between atoms: C_8  and  C_9 
REMARK    4  A    between atoms: C_21  and  C_22 
ROOT
HETATM    1  N   UNL     1       3.061  27.940  52.502  1.00  0.00    -0.209 NA
HETATM    2  C   UNL     1       2.864  28.592  51.315  1.00  0.00     0.301 C 
HETATM    3  N   UNL     1       3.850  28.613  50.362  1.00  0.00    -0.330 N 
HETATM    4  C   UNL     1       3.608  29.222  49.052  1.00  0.00     0.125 C 
HETATM    5  C   UNL     1       4.935  29.073  48.297  1.00  0.00     0.032 C 
HETATM    6  C   UNL     1       5.966  29.065  49.409  1.00  0.00     0.022 C 
HETATM    7  C   UNL     1       5.264  28.291  50.515  1.00  0.00     0.128 C 
HETATM    8  O   UNL     1       1.744  29.072  51.124  1.00  0.00    -0.254 OA
HETATM    9  H   UNL     1       2.182  28.051  52.997  1.00  0.00     0.138 HD
ENDROOT
BRANCH   1  10
HETATM   10  C   UNL     1       4.146  28.147  53.381  1.00  0.00     0.029 A 
HETATM   11  C   UNL     1       4.313  29.391  54.041  1.00  0.00    -0.036 A 
HETATM   12  C   UNL     1       5.410  29.565  54.901  1.00  0.00     0.009 A 
HETATM   13  C   UNL     1       6.297  28.526  55.146  1.00  0.00     0.001 A 
HETATM   14  C   UNL     1       6.082  27.285  54.553  1.00  0.00     0.009 A 
HETATM   15  C   UNL     1       5.005  27.061  53.669  1.00  0.00    -0.036 A 
BRANCH  11  16
HETATM   16  C   UNL     1       3.346  30.552  53.920  1.00  0.00     0.036 C 
HETATM   17  C   UNL     1       3.037  31.210  55.256  1.00  0.00     0.010 C 
ENDBRANCH  11  16
BRANCH  15  18
HETATM   18  C   UNL     1       4.841  25.623  53.209  1.00  0.00     0.036 C 
HETATM   19  C   UNL     1       5.958  24.610  53.399  1.00  0.00     0.010 C 
ENDBRANCH  15  18
ENDBRANCH   1  10
BRANCH   4  20
HETATM   20  C   UNL     1       2.477  28.609  48.278  1.00  0.00     0.014 A 
HETATM   21  C   UNL     1       2.270  27.257  47.870  1.00  0.00     0.061 A 
HETATM   22  C   UNL     1       3.108  26.063  48.139  1.00  0.00     0.073 C 
HETATM   23  N   UNL     1       1.146  27.115  47.156  1.00  0.00    -0.179 NA
HETATM   24  N   UNL     1       0.612  28.341  47.141  1.00  0.00    -0.282 N 
HETATM   25  H   UNL     1      -0.279  28.466  46.674  1.00  0.00     0.189 HD
HETATM   26  C   UNL     1       1.377  29.281  47.765  1.00  0.00     0.034 A 
HETATM   27  C   UNL     1       0.977  30.706  47.830  1.00  0.00     0.070 C 
ENDBRANCH   4  20
TORSDOF 4
ENDMDL
MODEL 9
REMARK VINA RESULT:      -6.3      6.871      9.866
REMARK  4 active torsions:
REMARK  status: ('A' for Active; 'I' for Inactive)
REMARK    1  A    between atoms: C_2  and  C_3 
REMARK    2  A    between atoms: C_4  and  N_5 
REMARK       I    between atoms: N_5  and  C_6 
REMARK       I    between atoms: C_6  and  N_7 
REMARK    3  A    between atoms: C_8  and  C_9 
REMARK    4  A    between atoms: C_21  and  C_22 
ROOT
HETATM    1  N   UNL     1       5.859  35.305  62.620  1.00  0.00    -0.209 NA
HETATM    2  C   UNL     1       5.218  34.509  61.709  1.00  0.00     0.301 C 
HETATM    3  N   UNL     1       3.877  34.667  61.473  1.00  0.00    -0.330 N 
HETATM    4  C   UNL     1       3.207  33.887  60.428  1.00  0.00     0.125 C 
HETATM    5  C   UNL     1       1.737  34.322  60.495  1.00  0.00     0.032 C 
HETATM    6  C   UNL     1       1.561  34.723  61.947  1.00  0.00     0.022 C 
HETATM    7  C   UNL     1       2.893  35.380  62.280  1.00  0.00     0.128 C 
HETATM    8  O   UNL     1       5.919  33.722  61.068  1.00  0.00    -0.254 OA
HETATM    9  H   UNL     1       6.829  35.005  62.575  1.00  0.00     0.138 HD
ENDROOT
BRANCH   1  10
HETATM   10  C   UNL     1       5.469  35.493  63.963  1.00  0.00     0.029 A 
HETATM   11  C   UNL     1       5.534  34.423  64.891  1.00  0.00    -0.036 A 
HETATM   12  C   UNL     1       5.128  34.644  66.217  1.00  0.00     0.009 A 
HETATM   13  C   UNL     1       4.712  35.900  66.636  1.00  0.00     0.001 A 
HETATM   14  C   UNL     1       4.724  36.963  65.738  1.00  0.00     0.009 A 
HETATM   15  C   UNL     1       5.109  36.792  64.391  1.00  0.00    -0.036 A 
BRANCH  11  16
HETATM   16  C   UNL     1       6.067  33.043  64.558  1.00  0.00     0.036 C 
HETATM   17  C   UNL     1       7.579  33.017  64.384  1.00  0.00     0.010 C 
ENDBRANCH  11  16
BRANCH  15  18
HETATM   18  C   UNL     1       5.186  38.073  63.578  1.00  0.00     0.036 C 
HETATM   19  C   UNL     1       6.445  38.925  63.581  1.00  0.00     0.010 C 
ENDBRANCH  15  18
ENDBRANCH   1  10
BRANCH   4  20
HETATM   20  C   UNL     1       3.764  34.085  59.049  1.00  0.00     0.014 A 
HETATM   21  C   UNL     1       4.056  35.289  58.340  1.00  0.00     0.061 A 
HETATM   22  C   UNL     1       3.927  36.694  58.796  1.00  0.00     0.073 C 
HETATM   23  N   UNL     1       4.512  35.046  57.104  1.00  0.00    -0.179 NA
HETATM   24  N   UNL     1       4.557  33.711  57.030  1.00  0.00    -0.282 N 
HETATM   25  H   UNL     1       4.910  33.294  56.177  1.00  0.00     0.189 HD
HETATM   26  C   UNL     1       4.091  33.083  58.147  1.00  0.00     0.034 A 
HETATM   27  C   UNL     1       4.028  31.606  58.252  1.00  0.00     0.070 C 
ENDBRANCH   4  20
TORSDOF 4
ENDMDL
MODEL 10
REMARK VINA RESULT:      -6.2      4.334      7.349
REMARK  4 active torsions:
REMARK  status: ('A' for Active; 'I' for Inactive)
REMARK    1  A    between atoms: C_2  and  C_3 
REMARK    2  A    between atoms: C_4  and  N_5 
REMARK       I    between atoms: N_5  and  C_6 
REMARK       I    between atoms: C_6  and  N_7 
REMARK    3  A    between atoms: C_8  and  C_9 
REMARK    4  A    between atoms: C_21  and  C_22 
ROOT
HETATM    1  N   UNL     1       7.183  33.606  60.734  1.00  0.00    -0.209 NA
HETATM    2  C   UNL     1       6.649  32.669  59.889  1.00  0.00     0.301 C 
HETATM    3  N   UNL     1       5.312  32.372  59.940  1.00  0.00    -0.330 N 
HETATM    4  C   UNL     1       4.718  31.445  58.973  1.00  0.00     0.125 C 
HETATM    5  C   UNL     1       3.239  31.354  59.373  1.00  0.00     0.032 C 
HETATM    6  C   UNL     1       3.267  31.626  60.864  1.00  0.00     0.022 C 
HETATM    7  C   UNL     1       4.354  32.684  60.995  1.00  0.00     0.128 C 
HETATM    8  O   UNL     1       7.407  32.187  59.045  1.00  0.00    -0.254 OA
HETATM    9  H   UNL     1       8.162  33.653  60.467  1.00  0.00     0.138 HD
ENDROOT
BRANCH   1  10
HETATM   10  C   UNL     1       7.059  33.608  62.139  1.00  0.00     0.029 A 
HETATM   11  C   UNL     1       6.284  34.599  62.794  1.00  0.00    -0.036 A 
HETATM   12  C   UNL     1       6.192  34.576  64.196  1.00  0.00     0.009 A 
HETATM   13  C   UNL     1       6.807  33.575  64.935  1.00  0.00     0.001 A 
HETATM   14  C   UNL     1       7.501  32.564  64.280  1.00  0.00     0.009 A 
HETATM   15  C   UNL     1       7.638  32.548  62.875  1.00  0.00    -0.036 A 
BRANCH  11  16
HETATM   16  C   UNL     1       5.494  35.671  62.072  1.00  0.00     0.036 C 
HETATM   17  C   UNL     1       4.583  36.464  62.999  1.00  0.00     0.010 C 
ENDBRANCH  11  16
BRANCH  15  18
HETATM   18  C   UNL     1       8.317  31.311  62.310  1.00  0.00     0.036 C 
HETATM   19  C   UNL     1       9.693  31.400  61.671  1.00  0.00     0.010 C 
ENDBRANCH  15  18
ENDBRANCH   1  10
BRANCH   4  20
HETATM   20  C   UNL     1       4.862  31.864  57.538  1.00  0.00     0.014 A 
HETATM   21  C   UNL     1       4.649  33.136  56.927  1.00  0.00     0.061 A 
HETATM   22  C   UNL     1       4.263  34.421  57.558  1.00  0.00     0.073 C 
HETATM   23  N   UNL     1       4.849  33.096  55.603  1.00  0.00    -0.179 NA
HETATM   24  N   UNL     1       5.228  31.835  55.369  1.00  0.00    -0.282 N 
HETATM   25  H   UNL     1       5.468  31.580  54.418  1.00  0.00     0.189 HD
HETATM   26  C   UNL     1       5.221  31.043  56.479  1.00  0.00     0.034 A 
HETATM   27  C   UNL     1       5.578  29.607  56.425  1.00  0.00     0.070 C 
ENDBRANCH   4  20
TORSDOF 4
ENDMDL
