MODEL 1
REMARK VINA RESULT:      -9.8      0.000      0.000
REMARK  9 active torsions:
REMARK  status: ('A' for Active; 'I' for Inactive)
REMARK    1  A    between atoms: O_2  and  C_3 
REMARK    2  A    between atoms: C_4  and  O_5 
REMARK    3  A    between atoms: C_8  and  C_9 
REMARK    4  A    between atoms: C_9  and  N_10 
REMARK    5  A    between atoms: C_14  and  O_15 
REMARK    6  A    between atoms: C_14  and  C_16 
REMARK    7  A    between atoms: C_21  and  C_22 
REMARK       I    between atoms: C_22  and  N_23 
REMARK    8  A    between atoms: N_23  and  C_24 
REMARK    9  A    between atoms: C_24  and  C_25 
ROOT
HETATM    1  N   UNL     1       8.240  31.666  62.001  1.00  0.00    -0.067 N 
HETATM    2  H   UNL     1       8.870  32.279  62.536  1.00  0.00     0.280 HD
HETATM    3  C   UNL     1       9.068  30.490  61.534  1.00  0.00     0.238 C 
HETATM    4  C   UNL     1      10.069  30.918  60.475  1.00  0.00     0.071 C 
HETATM    5  C   UNL     1       9.370  31.554  59.259  1.00  0.00     0.088 C 
HETATM    6  C   UNL     1       8.676  32.813  59.813  1.00  0.00     0.071 C 
HETATM    7  C   UNL     1       7.642  32.479  60.876  1.00  0.00     0.238 C 
ENDROOT
BRANCH   5   8
HETATM    8  O   UNL     1      10.396  32.005  58.376  1.00  0.00    -0.385 OA
HETATM    9  H   UNL     1      10.200  32.912  58.078  1.00  0.00     0.211 HD
ENDBRANCH   5   8
BRANCH   5  10
HETATM   10  C   UNL     1       8.458  30.584  58.491  1.00  0.00    -0.023 A 
HETATM   11  C   UNL     1       8.972  29.363  57.991  1.00  0.00     0.024 A 
HETATM   12  C   UNL     1       8.108  28.413  57.413  1.00  0.00     0.001 A 
HETATM   13  C   UNL     1       6.765  28.728  57.296  1.00  0.00     0.086 A 
HETATM   14  C   UNL     1       8.245  27.108  56.877  1.00  0.00     0.057 A 
HETATM   15  O   UNL     1       6.072  27.682  56.773  1.00  0.00    -0.304 OA
HETATM   16  C   UNL     1       6.223  29.951  57.669  1.00  0.00     0.039 A 
HETATM   17  C   UNL     1       6.978  26.683  56.521  1.00  0.00     0.144 A 
HETATM   18  C   UNL     1       7.100  30.875  58.253  1.00  0.00     0.013 A 
BRANCH  17  19
HETATM   19  C   UNL     1       6.523  25.423  55.972  1.00  0.00     0.275 C 
HETATM   20  N   UNL     1       7.258  24.978  54.897  1.00  0.00    -0.353 N 
HETATM   21  H   UNL     1       7.939  25.616  54.503  1.00  0.00     0.162 HD
HETATM   22  O   UNL     1       5.543  24.819  56.401  1.00  0.00    -0.265 OA
BRANCH  20  23
HETATM   23  C   UNL     1       6.862  23.824  54.111  1.00  0.00     0.155 C 
BRANCH  23  24
HETATM   24  C   UNL     1       7.882  22.683  54.175  1.00  0.00     0.139 C 
HETATM   25  O   UNL     1       7.606  21.811  55.293  1.00  0.00    -0.384 OA
HETATM   26  C   UNL     1       7.927  20.466  54.898  1.00  0.00     0.168 C 
HETATM   27  C   UNL     1       8.471  20.524  53.484  1.00  0.00     0.029 C 
HETATM   28  C   UNL     1       7.841  21.786  52.949  1.00  0.00     0.035 C 
ENDBRANCH  23  24
ENDBRANCH  20  23
ENDBRANCH  17  19
ENDBRANCH   5  10
BRANCH   1  29
HETATM   29  C   UNL     1       7.133  31.250  62.963  1.00  0.00     0.273 C 
BRANCH  29  30
HETATM   30  C   UNL     1       6.604  32.358  63.827  1.00  0.00    -0.030 A 
HETATM   31  C   UNL     1       5.227  32.625  63.864  1.00  0.00     0.048 A 
HETATM   32  C   UNL     1       4.723  33.635  64.686  1.00  0.00     0.102 A 
HETATM   33  C   UNL     1       5.587  34.440  65.436  1.00  0.00     0.101 A 
HETATM   34  C   UNL     1       6.958  34.173  65.409  1.00  0.00     0.040 A 
HETATM   35  C   UNL     1       7.463  33.135  64.616  1.00  0.00     0.012 A 
BRANCH  32  36
HETATM   36  O   UNL     1       3.380  33.907  64.681  1.00  0.00    -0.353 OA
HETATM   37  C   UNL     1       2.918  34.259  63.379  1.00  0.00     0.210 C 
ENDBRANCH  32  36
BRANCH  33  38
HETATM   38  O   UNL     1       5.012  35.416  66.203  1.00  0.00    -0.353 OA
HETATM   39  C   UNL     1       5.253  35.323  67.604  1.00  0.00     0.210 C 
ENDBRANCH  33  38
ENDBRANCH  29  30
ENDBRANCH   1  29
TORSDOF 9
ENDMDL
MODEL 2
REMARK VINA RESULT:      -9.6      2.596     11.330
REMARK  9 active torsions:
REMARK  status: ('A' for Active; 'I' for Inactive)
REMARK    1  A    between atoms: O_2  and  C_3 
REMARK    2  A    between atoms: C_4  and  O_5 
REMARK    3  A    between atoms: C_8  and  C_9 
REMARK    4  A    between atoms: C_9  and  N_10 
REMARK    5  A    between atoms: C_14  and  O_15 
REMARK    6  A    between atoms: C_14  and  C_16 
REMARK    7  A    between atoms: C_21  and  C_22 
REMARK       I    between atoms: C_22  and  N_23 
REMARK    8  A    between atoms: N_23  and  C_24 
REMARK    9  A    between atoms: C_24  and  C_25 
ROOT
HETATM    1  N   UNL     1       6.339  25.201  51.942  1.00  0.00    -0.067 N 
HETATM    2  H   UNL     1       5.834  24.909  51.094  1.00  0.00     0.280 HD
HETATM    3  C   UNL     1       5.482  24.797  53.121  1.00  0.00     0.238 C 
HETATM    4  C   UNL     1       4.224  25.646  53.194  1.00  0.00     0.071 C 
HETATM    5  C   UNL     1       4.560  27.146  53.305  1.00  0.00     0.088 C 
HETATM    6  C   UNL     1       5.304  27.486  52.001  1.00  0.00     0.071 C 
HETATM    7  C   UNL     1       6.589  26.688  51.848  1.00  0.00     0.238 C 
ENDROOT
BRANCH   5   8
HETATM    8  O   UNL     1       3.321  27.854  53.269  1.00  0.00    -0.385 OA
HETATM    9  H   UNL     1       3.167  28.292  54.126  1.00  0.00     0.211 HD
ENDBRANCH   5   8
BRANCH   5  10
HETATM   10  C   UNL     1       5.296  27.520  54.601  1.00  0.00    -0.023 A 
HETATM   11  C   UNL     1       6.568  28.142  54.548  1.00  0.00     0.024 A 
HETATM   12  C   UNL     1       7.178  28.612  55.727  1.00  0.00     0.001 A 
HETATM   13  C   UNL     1       6.533  28.400  56.934  1.00  0.00     0.086 A 
HETATM   14  C   UNL     1       8.371  29.308  56.046  1.00  0.00     0.057 A 
HETATM   15  O   UNL     1       7.229  28.966  57.955  1.00  0.00    -0.304 OA
HETATM   16  C   UNL     1       5.339  27.702  57.059  1.00  0.00     0.039 A 
HETATM   17  C   UNL     1       8.355  29.530  57.411  1.00  0.00     0.144 A 
HETATM   18  C   UNL     1       4.744  27.255  55.870  1.00  0.00     0.013 A 
BRANCH  17  19
HETATM   19  C   UNL     1       9.291  30.231  58.265  1.00  0.00     0.275 C 
HETATM   20  N   UNL     1       8.779  30.583  59.493  1.00  0.00    -0.353 N 
HETATM   21  H   UNL     1       7.784  30.457  59.636  1.00  0.00     0.162 HD
HETATM   22  O   UNL     1      10.431  30.523  57.914  1.00  0.00    -0.265 OA
BRANCH  20  23
HETATM   23  C   UNL     1       9.505  31.429  60.422  1.00  0.00     0.155 C 
BRANCH  23  24
HETATM   24  C   UNL     1       8.589  32.381  61.199  1.00  0.00     0.139 C 
HETATM   25  O   UNL     1       7.265  32.402  60.622  1.00  0.00    -0.384 OA
HETATM   26  C   UNL     1       6.316  32.545  61.693  1.00  0.00     0.168 C 
HETATM   27  C   UNL     1       7.101  32.664  62.985  1.00  0.00     0.029 C 
HETATM   28  C   UNL     1       8.389  31.957  62.644  1.00  0.00     0.035 C 
ENDBRANCH  23  24
ENDBRANCH  20  23
ENDBRANCH  17  19
ENDBRANCH   5  10
BRANCH   1  29
HETATM   29  C   UNL     1       7.673  24.465  51.916  1.00  0.00     0.273 C 
BRANCH  29  30
HETATM   30  C   UNL     1       7.933  23.595  53.113  1.00  0.00    -0.030 A 
HETATM   31  C   UNL     1       8.283  24.177  54.341  1.00  0.00     0.048 A 
HETATM   32  C   UNL     1       8.499  23.378  55.466  1.00  0.00     0.102 A 
HETATM   33  C   UNL     1       8.434  21.983  55.373  1.00  0.00     0.101 A 
HETATM   34  C   UNL     1       8.076  21.401  54.154  1.00  0.00     0.040 A 
HETATM   35  C   UNL     1       7.821  22.201  53.033  1.00  0.00     0.012 A 
BRANCH  32  36
HETATM   36  O   UNL     1       8.877  23.958  56.648  1.00  0.00    -0.353 OA
HETATM   37  C   UNL     1       7.917  24.911  57.099  1.00  0.00     0.210 C 
ENDBRANCH  32  36
BRANCH  33  38
HETATM   38  O   UNL     1       8.672  21.275  56.519  1.00  0.00    -0.353 OA
HETATM   39  C   UNL     1       9.465  20.102  56.368  1.00  0.00     0.210 C 
ENDBRANCH  33  38
ENDBRANCH  29  30
ENDBRANCH   1  29
TORSDOF 9
ENDMDL
MODEL 3
REMARK VINA RESULT:      -9.5      4.709     12.404
REMARK  9 active torsions:
REMARK  status: ('A' for Active; 'I' for Inactive)
REMARK    1  A    between atoms: O_2  and  C_3 
REMARK    2  A    between atoms: C_4  and  O_5 
REMARK    3  A    between atoms: C_8  and  C_9 
REMARK    4  A    between atoms: C_9  and  N_10 
REMARK    5  A    between atoms: C_14  and  O_15 
REMARK    6  A    between atoms: C_14  and  C_16 
REMARK    7  A    between atoms: C_21  and  C_22 
REMARK       I    between atoms: C_22  and  N_23 
REMARK    8  A    between atoms: N_23  and  C_24 
REMARK    9  A    between atoms: C_24  and  C_25 
ROOT
HETATM    1  N   UNL     1       5.820  26.710  52.016  1.00  0.00    -0.067 N 
HETATM    2  H   UNL     1       5.781  25.994  51.278  1.00  0.00     0.280 HD
HETATM    3  C   UNL     1       7.215  26.662  52.598  1.00  0.00     0.238 C 
HETATM    4  C   UNL     1       7.429  25.383  53.387  1.00  0.00     0.071 C 
HETATM    5  C   UNL     1       6.403  25.242  54.527  1.00  0.00     0.088 C 
HETATM    6  C   UNL     1       5.035  25.159  53.824  1.00  0.00     0.071 C 
HETATM    7  C   UNL     1       4.728  26.409  53.016  1.00  0.00     0.238 C 
ENDROOT
BRANCH   5   8
HETATM    8  O   UNL     1       6.630  23.972  55.138  1.00  0.00    -0.385 OA
HETATM    9  H   UNL     1       7.530  23.662  54.931  1.00  0.00     0.211 HD
ENDBRANCH   5   8
BRANCH   5  10
HETATM   10  C   UNL     1       6.523  26.329  55.606  1.00  0.00    -0.023 A 
HETATM   11  C   UNL     1       7.796  26.812  55.998  1.00  0.00     0.024 A 
HETATM   12  C   UNL     1       7.900  27.903  56.881  1.00  0.00     0.001 A 
HETATM   13  C   UNL     1       6.736  28.449  57.396  1.00  0.00     0.086 A 
HETATM   14  C   UNL     1       8.959  28.669  57.431  1.00  0.00     0.057 A 
HETATM   15  O   UNL     1       7.017  29.524  58.180  1.00  0.00    -0.304 OA
HETATM   16  C   UNL     1       5.467  27.949  57.135  1.00  0.00     0.039 A 
HETATM   17  C   UNL     1       8.381  29.665  58.197  1.00  0.00     0.144 A 
HETATM   18  C   UNL     1       5.388  26.870  56.243  1.00  0.00     0.013 A 
BRANCH  17  19
HETATM   19  C   UNL     1       8.981  30.751  58.944  1.00  0.00     0.275 C 
HETATM   20  N   UNL     1       8.836  30.645  60.308  1.00  0.00    -0.353 N 
HETATM   21  H   UNL     1       8.219  29.920  60.656  1.00  0.00     0.162 HD
HETATM   22  O   UNL     1       9.538  31.706  58.409  1.00  0.00    -0.265 OA
BRANCH  20  23
HETATM   23  C   UNL     1       9.223  31.710  61.214  1.00  0.00     0.155 C 
BRANCH  23  24
HETATM   24  C   UNL     1       8.021  32.438  61.824  1.00  0.00     0.139 C 
HETATM   25  O   UNL     1       6.802  31.698  61.592  1.00  0.00    -0.384 OA
HETATM   26  C   UNL     1       5.957  31.862  62.744  1.00  0.00     0.168 C 
HETATM   27  C   UNL     1       6.675  32.786  63.708  1.00  0.00     0.029 C 
HETATM   28  C   UNL     1       8.121  32.581  63.333  1.00  0.00     0.035 C 
ENDBRANCH  23  24
ENDBRANCH  20  23
ENDBRANCH  17  19
ENDBRANCH   5  10
BRANCH   1  29
HETATM   29  C   UNL     1       5.521  28.040  51.333  1.00  0.00     0.273 C 
BRANCH  29  30
HETATM   30  C   UNL     1       4.577  27.950  50.169  1.00  0.00    -0.030 A 
HETATM   31  C   UNL     1       4.607  26.828  49.326  1.00  0.00     0.048 A 
HETATM   32  C   UNL     1       3.714  26.722  48.258  1.00  0.00     0.102 A 
HETATM   33  C   UNL     1       2.820  27.759  47.971  1.00  0.00     0.101 A 
HETATM   34  C   UNL     1       2.781  28.873  48.813  1.00  0.00     0.040 A 
HETATM   35  C   UNL     1       3.648  28.966  49.908  1.00  0.00     0.012 A 
BRANCH  32  36
HETATM   36  O   UNL     1       3.782  25.639  47.421  1.00  0.00    -0.353 OA
HETATM   37  C   UNL     1       3.043  24.532  47.932  1.00  0.00     0.210 C 
ENDBRANCH  32  36
BRANCH  33  38
HETATM   38  O   UNL     1       1.990  27.581  46.898  1.00  0.00    -0.353 OA
HETATM   39  C   UNL     1       0.606  27.435  47.204  1.00  0.00     0.210 C 
ENDBRANCH  33  38
ENDBRANCH  29  30
ENDBRANCH   1  29
TORSDOF 9
ENDMDL
MODEL 4
REMARK VINA RESULT:      -9.2      3.201      7.297
REMARK  9 active torsions:
REMARK  status: ('A' for Active; 'I' for Inactive)
REMARK    1  A    between atoms: O_2  and  C_3 
REMARK    2  A    between atoms: C_4  and  O_5 
REMARK    3  A    between atoms: C_8  and  C_9 
REMARK    4  A    between atoms: C_9  and  N_10 
REMARK    5  A    between atoms: C_14  and  O_15 
REMARK    6  A    between atoms: C_14  and  C_16 
REMARK    7  A    between atoms: C_21  and  C_22 
REMARK       I    between atoms: C_22  and  N_23 
REMARK    8  A    between atoms: N_23  and  C_24 
REMARK    9  A    between atoms: C_24  and  C_25 
ROOT
HETATM    1  N   UNL     1       2.580  35.217  62.939  1.00  0.00    -0.067 N 
HETATM    2  H   UNL     1       1.915  35.817  63.445  1.00  0.00     0.280 HD
HETATM    3  C   UNL     1       2.906  34.058  63.854  1.00  0.00     0.238 C 
HETATM    4  C   UNL     1       3.735  34.519  65.040  1.00  0.00     0.071 C 
HETATM    5  C   UNL     1       5.047  35.187  64.588  1.00  0.00     0.088 C 
HETATM    6  C   UNL     1       4.608  36.428  63.787  1.00  0.00     0.071 C 
HETATM    7  C   UNL     1       3.779  36.059  62.567  1.00  0.00     0.238 C 
ENDROOT
BRANCH   5   8
HETATM    8  O   UNL     1       5.698  35.667  65.764  1.00  0.00    -0.385 OA
HETATM    9  H   UNL     1       5.389  35.164  66.540  1.00  0.00     0.211 HD
ENDBRANCH   5   8
BRANCH   5  10
HETATM   10  C   UNL     1       6.006  34.236  63.855  1.00  0.00    -0.023 A 
HETATM   11  C   UNL     1       5.935  34.092  62.448  1.00  0.00     0.024 A 
HETATM   12  C   UNL     1       6.902  33.331  61.763  1.00  0.00     0.001 A 
HETATM   13  C   UNL     1       7.880  32.687  62.502  1.00  0.00     0.086 A 
HETATM   14  C   UNL     1       7.178  33.021  60.407  1.00  0.00     0.057 A 
HETATM   15  O   UNL     1       8.758  32.051  61.682  1.00  0.00    -0.304 OA
HETATM   16  C   UNL     1       7.936  32.703  63.889  1.00  0.00     0.039 A 
HETATM   17  C   UNL     1       8.333  32.260  60.395  1.00  0.00     0.144 A 
HETATM   18  C   UNL     1       6.970  33.477  64.548  1.00  0.00     0.013 A 
BRANCH  17  19
HETATM   19  C   UNL     1       9.091  31.712  59.290  1.00  0.00     0.275 C 
HETATM   20  N   UNL     1       8.632  30.495  58.840  1.00  0.00    -0.353 N 
HETATM   21  H   UNL     1       7.919  30.034  59.392  1.00  0.00     0.162 HD
HETATM   22  O   UNL     1      10.083  32.262  58.818  1.00  0.00    -0.265 OA
BRANCH  20  23
HETATM   23  C   UNL     1       9.352  29.711  57.854  1.00  0.00     0.155 C 
BRANCH  23  24
HETATM   24  C   UNL     1       8.448  28.732  57.098  1.00  0.00     0.139 C 
HETATM   25  O   UNL     1       8.758  27.368  57.456  1.00  0.00    -0.384 OA
HETATM   26  C   UNL     1       7.529  26.620  57.462  1.00  0.00     0.168 C 
HETATM   27  C   UNL     1       6.419  27.564  57.041  1.00  0.00     0.029 C 
HETATM   28  C   UNL     1       6.976  28.910  57.432  1.00  0.00     0.035 C 
ENDBRANCH  23  24
ENDBRANCH  20  23
ENDBRANCH  17  19
ENDBRANCH   5  10
BRANCH   1  29
HETATM   29  C   UNL     1       1.867  34.770  61.668  1.00  0.00     0.273 C 
BRANCH  29  30
HETATM   30  C   UNL     1       2.775  34.500  60.502  1.00  0.00    -0.030 A 
HETATM   31  C   UNL     1       3.194  33.189  60.228  1.00  0.00     0.048 A 
HETATM   32  C   UNL     1       4.015  32.924  59.129  1.00  0.00     0.102 A 
HETATM   33  C   UNL     1       4.486  33.967  58.324  1.00  0.00     0.101 A 
HETATM   34  C   UNL     1       4.064  35.272  58.589  1.00  0.00     0.040 A 
HETATM   35  C   UNL     1       3.209  35.537  59.666  1.00  0.00     0.012 A 
BRANCH  32  36
HETATM   36  O   UNL     1       4.446  31.644  58.897  1.00  0.00    -0.353 OA
HETATM   37  C   UNL     1       3.484  30.889  58.164  1.00  0.00     0.210 C 
ENDBRANCH  32  36
BRANCH  33  38
HETATM   38  O   UNL     1       5.296  33.622  57.277  1.00  0.00    -0.353 OA
HETATM   39  C   UNL     1       4.696  33.674  55.987  1.00  0.00     0.210 C 
ENDBRANCH  33  38
ENDBRANCH  29  30
ENDBRANCH   1  29
TORSDOF 9
ENDMDL
MODEL 5
REMARK VINA RESULT:      -9.1      2.898      9.612
REMARK  9 active torsions:
REMARK  status: ('A' for Active; 'I' for Inactive)
REMARK    1  A    between atoms: O_2  and  C_3 
REMARK    2  A    between atoms: C_4  and  O_5 
REMARK    3  A    between atoms: C_8  and  C_9 
REMARK    4  A    between atoms: C_9  and  N_10 
REMARK    5  A    between atoms: C_14  and  O_15 
REMARK    6  A    between atoms: C_14  and  C_16 
REMARK    7  A    between atoms: C_21  and  C_22 
REMARK       I    between atoms: C_22  and  N_23 
REMARK    8  A    between atoms: N_23  and  C_24 
REMARK    9  A    between atoms: C_24  and  C_25 
ROOT
HETATM    1  N   UNL     1       4.755  26.701  52.559  1.00  0.00    -0.067 N 
HETATM    2  H   UNL     1       4.545  26.272  51.648  1.00  0.00     0.280 HD
HETATM    3  C   UNL     1       6.153  27.271  52.460  1.00  0.00     0.238 C 
HETATM    4  C   UNL     1       7.187  26.161  52.386  1.00  0.00     0.071 C 
HETATM    5  C   UNL     1       7.108  25.231  53.611  1.00  0.00     0.088 C 
HETATM    6  C   UNL     1       5.706  24.597  53.542  1.00  0.00     0.071 C 
HETATM    7  C   UNL     1       4.601  25.638  53.622  1.00  0.00     0.238 C 
ENDROOT
BRANCH   5   8
HETATM    8  O   UNL     1       8.047  24.178  53.397  1.00  0.00    -0.385 OA
HETATM    9  H   UNL     1       8.848  24.336  53.929  1.00  0.00     0.211 HD
ENDBRANCH   5   8
BRANCH   5  10
HETATM   10  C   UNL     1       7.452  25.925  54.938  1.00  0.00    -0.023 A 
HETATM   11  C   UNL     1       7.758  27.308  54.966  1.00  0.00     0.024 A 
HETATM   12  C   UNL     1       7.934  27.971  56.195  1.00  0.00     0.001 A 
HETATM   13  C   UNL     1       7.856  27.231  57.362  1.00  0.00     0.086 A 
HETATM   14  C   UNL     1       8.183  29.306  56.602  1.00  0.00     0.057 A 
HETATM   15  O   UNL     1       7.991  28.035  58.450  1.00  0.00    -0.304 OA
HETATM   16  C   UNL     1       7.667  25.856  57.393  1.00  0.00     0.039 A 
HETATM   17  C   UNL     1       8.185  29.311  57.986  1.00  0.00     0.144 A 
HETATM   18  C   UNL     1       7.483  25.219  56.157  1.00  0.00     0.013 A 
BRANCH  17  19
HETATM   19  C   UNL     1       8.342  30.401  58.926  1.00  0.00     0.275 C 
HETATM   20  N   UNL     1       7.160  30.998  59.301  1.00  0.00    -0.353 N 
HETATM   21  H   UNL     1       6.324  30.731  58.796  1.00  0.00     0.162 HD
HETATM   22  O   UNL     1       9.436  30.788  59.327  1.00  0.00    -0.265 OA
BRANCH  20  23
HETATM   23  C   UNL     1       7.122  32.206  60.104  1.00  0.00     0.155 C 
BRANCH  23  24
HETATM   24  C   UNL     1       6.994  31.918  61.604  1.00  0.00     0.139 C 
HETATM   25  O   UNL     1       8.263  32.095  62.270  1.00  0.00    -0.384 OA
HETATM   26  C   UNL     1       8.007  32.637  63.578  1.00  0.00     0.168 C 
HETATM   27  C   UNL     1       6.504  32.753  63.736  1.00  0.00     0.029 C 
HETATM   28  C   UNL     1       6.037  32.867  62.306  1.00  0.00     0.035 C 
ENDBRANCH  23  24
ENDBRANCH  20  23
ENDBRANCH  17  19
ENDBRANCH   5  10
BRANCH   1  29
HETATM   29  C   UNL     1       3.702  27.782  52.774  1.00  0.00     0.273 C 
BRANCH  29  30
HETATM   30  C   UNL     1       3.977  28.704  53.926  1.00  0.00    -0.030 A 
HETATM   31  C   UNL     1       4.061  30.089  53.713  1.00  0.00     0.048 A 
HETATM   32  C   UNL     1       4.288  30.957  54.783  1.00  0.00     0.102 A 
HETATM   33  C   UNL     1       4.500  30.458  56.073  1.00  0.00     0.101 A 
HETATM   34  C   UNL     1       4.408  29.081  56.291  1.00  0.00     0.040 A 
HETATM   35  C   UNL     1       4.142  28.210  55.227  1.00  0.00     0.012 A 
BRANCH  32  36
HETATM   36  O   UNL     1       4.405  32.303  54.553  1.00  0.00    -0.353 OA
HETATM   37  C   UNL     1       4.181  32.624  53.181  1.00  0.00     0.210 C 
ENDBRANCH  32  36
BRANCH  33  38
HETATM   38  O   UNL     1       4.729  31.376  57.061  1.00  0.00    -0.353 OA
HETATM   39  C   UNL     1       3.835  31.329  58.168  1.00  0.00     0.210 C 
ENDBRANCH  33  38
ENDBRANCH  29  30
ENDBRANCH   1  29
TORSDOF 9
ENDMDL
MODEL 6
REMARK VINA RESULT:      -9.0      4.903      7.453
REMARK  9 active torsions:
REMARK  status: ('A' for Active; 'I' for Inactive)
REMARK    1  A    between atoms: O_2  and  C_3 
REMARK    2  A    between atoms: C_4  and  O_5 
REMARK    3  A    between atoms: C_8  and  C_9 
REMARK    4  A    between atoms: C_9  and  N_10 
REMARK    5  A    between atoms: C_14  and  O_15 
REMARK    6  A    between atoms: C_14  and  C_16 
REMARK    7  A    between atoms: C_21  and  C_22 
REMARK       I    between atoms: C_22  and  N_23 
REMARK    8  A    between atoms: N_23  and  C_24 
REMARK    9  A    between atoms: C_24  and  C_25 
ROOT
HETATM    1  N   UNL     1       7.177  27.769  57.552  1.00  0.00    -0.067 N 
HETATM    2  H   UNL     1       7.249  27.733  58.578  1.00  0.00     0.280 HD
HETATM    3  C   UNL     1       5.890  27.067  57.180  1.00  0.00     0.238 C 
HETATM    4  C   UNL     1       5.992  25.574  57.438  1.00  0.00     0.071 C 
HETATM    5  C   UNL     1       7.156  24.941  56.652  1.00  0.00     0.088 C 
HETATM    6  C   UNL     1       8.425  25.620  57.202  1.00  0.00     0.071 C 
HETATM    7  C   UNL     1       8.416  27.123  56.975  1.00  0.00     0.238 C 
ENDROOT
BRANCH   5   8
HETATM    8  O   UNL     1       7.223  23.569  57.038  1.00  0.00    -0.385 OA
HETATM    9  H   UNL     1       7.711  23.486  57.878  1.00  0.00     0.211 HD
ENDBRANCH   5   8
BRANCH   5  10
HETATM   10  C   UNL     1       6.982  25.009  55.127  1.00  0.00    -0.023 A 
HETATM   11  C   UNL     1       5.824  25.601  54.564  1.00  0.00     0.024 A 
HETATM   12  C   UNL     1       5.730  25.790  53.171  1.00  0.00     0.001 A 
HETATM   13  C   UNL     1       6.764  25.333  52.371  1.00  0.00     0.086 A 
HETATM   14  C   UNL     1       4.789  26.375  52.287  1.00  0.00     0.057 A 
HETATM   15  O   UNL     1       6.536  25.648  51.069  1.00  0.00    -0.304 OA
HETATM   16  C   UNL     1       7.871  24.650  52.856  1.00  0.00     0.039 A 
HETATM   17  C   UNL     1       5.328  26.294  51.015  1.00  0.00     0.144 A 
HETATM   18  C   UNL     1       7.949  24.485  54.247  1.00  0.00     0.013 A 
BRANCH  17  19
HETATM   19  C   UNL     1       4.825  26.772  49.744  1.00  0.00     0.275 C 
HETATM   20  N   UNL     1       3.786  26.028  49.233  1.00  0.00    -0.353 N 
HETATM   21  H   UNL     1       3.566  25.156  49.698  1.00  0.00     0.162 HD
HETATM   22  O   UNL     1       5.306  27.734  49.151  1.00  0.00    -0.265 OA
BRANCH  20  23
HETATM   23  C   UNL     1       3.258  26.248  47.899  1.00  0.00     0.155 C 
BRANCH  23  24
HETATM   24  C   UNL     1       2.117  27.270  47.873  1.00  0.00     0.139 C 
HETATM   25  O   UNL     1       2.613  28.583  47.532  1.00  0.00    -0.384 OA
HETATM   26  C   UNL     1       1.612  29.244  46.738  1.00  0.00     0.168 C 
HETATM   27  C   UNL     1       0.426  28.306  46.628  1.00  0.00     0.029 C 
HETATM   28  C   UNL     1       1.066  26.954  46.823  1.00  0.00     0.035 C 
ENDBRANCH  23  24
ENDBRANCH  20  23
ENDBRANCH  17  19
ENDBRANCH   5  10
BRANCH   1  29
HETATM   29  C   UNL     1       7.161  29.247  57.178  1.00  0.00     0.273 C 
BRANCH  29  30
HETATM   30  C   UNL     1       7.311  30.189  58.338  1.00  0.00    -0.030 A 
HETATM   31  C   UNL     1       6.384  31.225  58.526  1.00  0.00     0.048 A 
HETATM   32  C   UNL     1       6.499  32.088  59.618  1.00  0.00     0.102 A 
HETATM   33  C   UNL     1       7.576  31.976  60.504  1.00  0.00     0.101 A 
HETATM   34  C   UNL     1       8.496  30.941  60.325  1.00  0.00     0.040 A 
HETATM   35  C   UNL     1       8.362  30.049  59.254  1.00  0.00     0.012 A 
BRANCH  32  36
HETATM   36  O   UNL     1       5.607  33.118  59.766  1.00  0.00    -0.353 OA
HETATM   37  C   UNL     1       4.364  32.666  60.299  1.00  0.00     0.210 C 
ENDBRANCH  32  36
BRANCH  33  38
HETATM   38  O   UNL     1       7.621  32.871  61.538  1.00  0.00    -0.353 OA
HETATM   39  C   UNL     1       8.041  32.345  62.793  1.00  0.00     0.210 C 
ENDBRANCH  33  38
ENDBRANCH  29  30
ENDBRANCH   1  29
TORSDOF 9
ENDMDL
MODEL 7
REMARK VINA RESULT:      -8.9      3.051      6.492
REMARK  9 active torsions:
REMARK  status: ('A' for Active; 'I' for Inactive)
REMARK    1  A    between atoms: O_2  and  C_3 
REMARK    2  A    between atoms: C_4  and  O_5 
REMARK    3  A    between atoms: C_8  and  C_9 
REMARK    4  A    between atoms: C_9  and  N_10 
REMARK    5  A    between atoms: C_14  and  O_15 
REMARK    6  A    between atoms: C_14  and  C_16 
REMARK    7  A    between atoms: C_21  and  C_22 
REMARK       I    between atoms: C_22  and  N_23 
REMARK    8  A    between atoms: N_23  and  C_24 
REMARK    9  A    between atoms: C_24  and  C_25 
ROOT
HETATM    1  N   UNL     1       3.761  34.831  62.543  1.00  0.00    -0.067 N 
HETATM    2  H   UNL     1       3.281  35.507  63.153  1.00  0.00     0.280 HD
HETATM    3  C   UNL     1       3.956  33.571  63.356  1.00  0.00     0.238 C 
HETATM    4  C   UNL     1       4.981  33.788  64.455  1.00  0.00     0.071 C 
HETATM    5  C   UNL     1       6.340  34.232  63.883  1.00  0.00     0.088 C 
HETATM    6  C   UNL     1       6.062  35.585  63.200  1.00  0.00     0.071 C 
HETATM    7  C   UNL     1       5.051  35.461  62.071  1.00  0.00     0.238 C 
ENDROOT
BRANCH   5   8
HETATM    8  O   UNL     1       7.194  34.500  64.994  1.00  0.00    -0.385 OA
HETATM    9  H   UNL     1       7.555  33.664  65.342  1.00  0.00     0.211 HD
ENDBRANCH   5   8
BRANCH   5  10
HETATM   10  C   UNL     1       7.014  33.174  62.996  1.00  0.00    -0.023 A 
HETATM   11  C   UNL     1       6.928  33.261  61.585  1.00  0.00     0.024 A 
HETATM   12  C   UNL     1       7.662  32.374  60.773  1.00  0.00     0.001 A 
HETATM   13  C   UNL     1       8.416  31.388  61.387  1.00  0.00     0.086 A 
HETATM   14  C   UNL     1       7.863  32.202  59.381  1.00  0.00     0.057 A 
HETATM   15  O   UNL     1       9.099  30.663  60.462  1.00  0.00    -0.304 OA
HETATM   16  C   UNL     1       8.452  31.185  62.760  1.00  0.00     0.039 A 
HETATM   17  C   UNL     1       8.767  31.166  59.230  1.00  0.00     0.144 A 
HETATM   18  C   UNL     1       7.724  32.088  63.548  1.00  0.00     0.013 A 
BRANCH  17  19
HETATM   19  C   UNL     1       9.364  30.599  58.039  1.00  0.00     0.275 C 
HETATM   20  N   UNL     1       8.488  29.884  57.254  1.00  0.00    -0.353 N 
HETATM   21  H   UNL     1       7.568  29.698  57.635  1.00  0.00     0.162 HD
HETATM   22  O   UNL     1      10.557  30.710  57.768  1.00  0.00    -0.265 OA
BRANCH  20  23
HETATM   23  C   UNL     1       8.928  29.107  56.110  1.00  0.00     0.155 C 
BRANCH  23  24
HETATM   24  C   UNL     1       7.772  28.410  55.385  1.00  0.00     0.139 C 
HETATM   25  O   UNL     1       8.097  28.191  53.995  1.00  0.00    -0.384 OA
HETATM   26  C   UNL     1       7.513  26.939  53.594  1.00  0.00     0.168 C 
HETATM   27  C   UNL     1       6.754  26.389  54.786  1.00  0.00     0.029 C 
HETATM   28  C   UNL     1       7.468  27.032  55.948  1.00  0.00     0.035 C 
ENDBRANCH  23  24
ENDBRANCH  20  23
ENDBRANCH  17  19
ENDBRANCH   5  10
BRANCH   1  29
HETATM   29  C   UNL     1       2.842  34.612  61.346  1.00  0.00     0.273 C 
BRANCH  29  30
HETATM   30  C   UNL     1       3.418  33.744  60.264  1.00  0.00    -0.030 A 
HETATM   31  C   UNL     1       4.134  34.323  59.205  1.00  0.00     0.048 A 
HETATM   32  C   UNL     1       4.697  33.522  58.210  1.00  0.00     0.102 A 
HETATM   33  C   UNL     1       4.503  32.136  58.216  1.00  0.00     0.101 A 
HETATM   34  C   UNL     1       3.799  31.555  59.273  1.00  0.00     0.040 A 
HETATM   35  C   UNL     1       3.265  32.352  60.294  1.00  0.00     0.012 A 
BRANCH  32  36
HETATM   36  O   UNL     1       5.360  34.106  57.162  1.00  0.00    -0.353 OA
HETATM   37  C   UNL     1       4.465  34.787  56.286  1.00  0.00     0.210 C 
ENDBRANCH  32  36
BRANCH  33  38
HETATM   38  O   UNL     1       5.076  31.427  57.196  1.00  0.00    -0.353 OA
HETATM   39  C   UNL     1       4.931  30.012  57.269  1.00  0.00     0.210 C 
ENDBRANCH  33  38
ENDBRANCH  29  30
ENDBRANCH   1  29
TORSDOF 9
ENDMDL
MODEL 8
REMARK VINA RESULT:      -8.8      3.489      7.232
REMARK  9 active torsions:
REMARK  status: ('A' for Active; 'I' for Inactive)
REMARK    1  A    between atoms: O_2  and  C_3 
REMARK    2  A    between atoms: C_4  and  O_5 
REMARK    3  A    between atoms: C_8  and  C_9 
REMARK    4  A    between atoms: C_9  and  N_10 
REMARK    5  A    between atoms: C_14  and  O_15 
REMARK    6  A    between atoms: C_14  and  C_16 
REMARK    7  A    between atoms: C_21  and  C_22 
REMARK       I    between atoms: C_22  and  N_23 
REMARK    8  A    between atoms: N_23  and  C_24 
REMARK    9  A    between atoms: C_24  and  C_25 
ROOT
HETATM    1  N   UNL     1       3.574  36.468  64.108  1.00  0.00    -0.067 N 
HETATM    2  H   UNL     1       2.960  36.927  64.794  1.00  0.00     0.280 HD
HETATM    3  C   UNL     1       3.149  35.018  64.044  1.00  0.00     0.238 C 
HETATM    4  C   UNL     1       3.509  34.290  65.328  1.00  0.00     0.071 C 
HETATM    5  C   UNL     1       5.021  34.359  65.613  1.00  0.00     0.088 C 
HETATM    6  C   UNL     1       5.324  35.858  65.800  1.00  0.00     0.071 C 
HETATM    7  C   UNL     1       5.005  36.668  64.553  1.00  0.00     0.238 C 
ENDROOT
BRANCH   5   8
HETATM    8  O   UNL     1       5.236  33.735  66.878  1.00  0.00    -0.385 OA
HETATM    9  H   UNL     1       4.445  33.841  67.437  1.00  0.00     0.211 HD
ENDBRANCH   5   8
BRANCH   5  10
HETATM   10  C   UNL     1       5.883  33.639  64.563  1.00  0.00    -0.023 A 
HETATM   11  C   UNL     1       5.334  33.286  63.307  1.00  0.00     0.024 A 
HETATM   12  C   UNL     1       6.158  32.755  62.296  1.00  0.00     0.001 A 
HETATM   13  C   UNL     1       7.496  32.537  62.582  1.00  0.00     0.086 A 
HETATM   14  C   UNL     1       5.983  32.354  60.948  1.00  0.00     0.057 A 
HETATM   15  O   UNL     1       8.152  32.079  61.482  1.00  0.00    -0.304 OA
HETATM   16  C   UNL     1       8.066  32.762  63.828  1.00  0.00     0.039 A 
HETATM   17  C   UNL     1       7.226  31.973  60.476  1.00  0.00     0.144 A 
HETATM   18  C   UNL     1       7.228  33.302  64.814  1.00  0.00     0.013 A 
BRANCH  17  19
HETATM   19  C   UNL     1       7.642  31.523  59.164  1.00  0.00     0.275 C 
HETATM   20  N   UNL     1       8.822  30.815  59.157  1.00  0.00    -0.353 N 
HETATM   21  H   UNL     1       9.356  30.794  60.018  1.00  0.00     0.162 HD
HETATM   22  O   UNL     1       7.019  31.782  58.137  1.00  0.00    -0.265 OA
BRANCH  20  23
HETATM   23  C   UNL     1       9.484  30.422  57.928  1.00  0.00     0.155 C 
BRANCH  23  24
HETATM   24  C   UNL     1       9.048  29.040  57.433  1.00  0.00     0.139 C 
HETATM   25  O   UNL     1       8.083  28.454  58.334  1.00  0.00    -0.384 OA
HETATM   26  C   UNL     1       7.140  27.703  57.548  1.00  0.00     0.168 C 
HETATM   27  C   UNL     1       7.578  27.796  56.100  1.00  0.00     0.029 C 
HETATM   28  C   UNL     1       8.355  29.088  56.081  1.00  0.00     0.035 C 
ENDBRANCH  23  24
ENDBRANCH  20  23
ENDBRANCH  17  19
ENDBRANCH   5  10
BRANCH   1  29
HETATM   29  C   UNL     1       3.354  37.195  62.787  1.00  0.00     0.273 C 
BRANCH  29  30
HETATM   30  C   UNL     1       3.205  36.296  61.593  1.00  0.00    -0.030 A 
HETATM   31  C   UNL     1       2.002  35.605  61.381  1.00  0.00     0.048 A 
HETATM   32  C   UNL     1       1.844  34.788  60.259  1.00  0.00     0.102 A 
HETATM   33  C   UNL     1       2.902  34.594  59.364  1.00  0.00     0.101 A 
HETATM   34  C   UNL     1       4.098  35.287  59.567  1.00  0.00     0.040 A 
HETATM   35  C   UNL     1       4.247  36.137  60.670  1.00  0.00     0.012 A 
BRANCH  32  36
HETATM   36  O   UNL     1       0.677  34.091  60.086  1.00  0.00    -0.353 OA
HETATM   37  C   UNL     1      -0.422  34.737  60.724  1.00  0.00     0.210 C 
ENDBRANCH  32  36
BRANCH  33  38
HETATM   38  O   UNL     1       2.667  33.768  58.299  1.00  0.00    -0.353 OA
HETATM   39  C   UNL     1       3.824  33.304  57.610  1.00  0.00     0.210 C 
ENDBRANCH  33  38
ENDBRANCH  29  30
ENDBRANCH   1  29
TORSDOF 9
ENDMDL
MODEL 9
REMARK VINA RESULT:      -8.7      1.293      2.324
REMARK  9 active torsions:
REMARK  status: ('A' for Active; 'I' for Inactive)
REMARK    1  A    between atoms: O_2  and  C_3 
REMARK    2  A    between atoms: C_4  and  O_5 
REMARK    3  A    between atoms: C_8  and  C_9 
REMARK    4  A    between atoms: C_9  and  N_10 
REMARK    5  A    between atoms: C_14  and  O_15 
REMARK    6  A    between atoms: C_14  and  C_16 
REMARK    7  A    between atoms: C_21  and  C_22 
REMARK       I    between atoms: C_22  and  N_23 
REMARK    8  A    between atoms: N_23  and  C_24 
REMARK    9  A    between atoms: C_24  and  C_25 
ROOT
HETATM    1  N   UNL     1       7.599  31.753  62.268  1.00  0.00    -0.067 N 
HETATM    2  H   UNL     1       8.169  32.314  62.914  1.00  0.00     0.280 HD
HETATM    3  C   UNL     1       8.431  30.549  61.885  1.00  0.00     0.238 C 
HETATM    4  C   UNL     1       9.600  30.956  61.005  1.00  0.00     0.071 C 
HETATM    5  C   UNL     1       9.124  31.667  59.724  1.00  0.00     0.088 C 
HETATM    6  C   UNL     1       8.416  32.943  60.215  1.00  0.00     0.071 C 
HETATM    7  C   UNL     1       7.218  32.631  61.098  1.00  0.00     0.238 C 
ENDROOT
BRANCH   5   8
HETATM    8  O   UNL     1      10.293  32.089  59.022  1.00  0.00    -0.385 OA
HETATM    9  H   UNL     1      10.825  31.312  58.769  1.00  0.00     0.211 HD
ENDBRANCH   5   8
BRANCH   5  10
HETATM   10  C   UNL     1       8.294  30.771  58.791  1.00  0.00    -0.023 A 
HETATM   11  C   UNL     1       8.861  29.599  58.232  1.00  0.00     0.024 A 
HETATM   12  C   UNL     1       8.060  28.706  57.494  1.00  0.00     0.001 A 
HETATM   13  C   UNL     1       6.731  29.032  57.282  1.00  0.00     0.086 A 
HETATM   14  C   UNL     1       8.255  27.454  56.858  1.00  0.00     0.057 A 
HETATM   15  O   UNL     1       6.096  28.038  56.605  1.00  0.00    -0.304 OA
HETATM   16  C   UNL     1       6.148  30.217  57.712  1.00  0.00     0.039 A 
HETATM   17  C   UNL     1       7.029  27.065  56.350  1.00  0.00     0.144 A 
HETATM   18  C   UNL     1       6.962  31.084  58.455  1.00  0.00     0.013 A 
BRANCH  17  19
HETATM   19  C   UNL     1       6.635  25.860  55.650  1.00  0.00     0.275 C 
HETATM   20  N   UNL     1       7.593  24.872  55.646  1.00  0.00    -0.353 N 
HETATM   21  H   UNL     1       8.514  25.116  55.993  1.00  0.00     0.162 HD
HETATM   22  O   UNL     1       5.556  25.740  55.076  1.00  0.00    -0.265 OA
BRANCH  20  23
HETATM   23  C   UNL     1       7.453  23.659  54.862  1.00  0.00     0.155 C 
BRANCH  23  24
HETATM   24  C   UNL     1       8.317  22.509  55.388  1.00  0.00     0.139 C 
HETATM   25  O   UNL     1       8.358  22.517  56.832  1.00  0.00    -0.384 OA
HETATM   26  C   UNL     1       8.393  21.152  57.283  1.00  0.00     0.168 C 
HETATM   27  C   UNL     1       8.421  20.266  56.053  1.00  0.00     0.029 C 
HETATM   28  C   UNL     1       7.772  21.141  55.011  1.00  0.00     0.035 C 
ENDBRANCH  23  24
ENDBRANCH  20  23
ENDBRANCH  17  19
ENDBRANCH   5  10
BRANCH   1  29
HETATM   29  C   UNL     1       6.340  31.367  63.036  1.00  0.00     0.273 C 
BRANCH  29  30
HETATM   30  C   UNL     1       5.174  32.290  62.832  1.00  0.00    -0.030 A 
HETATM   31  C   UNL     1       5.009  33.408  63.663  1.00  0.00     0.048 A 
HETATM   32  C   UNL     1       3.943  34.288  63.463  1.00  0.00     0.102 A 
HETATM   33  C   UNL     1       2.986  34.034  62.475  1.00  0.00     0.101 A 
HETATM   34  C   UNL     1       3.150  32.926  61.640  1.00  0.00     0.040 A 
HETATM   35  C   UNL     1       4.240  32.063  61.812  1.00  0.00     0.012 A 
BRANCH  32  36
HETATM   36  O   UNL     1       3.776  35.354  64.307  1.00  0.00    -0.353 OA
HETATM   37  C   UNL     1       3.524  34.933  65.646  1.00  0.00     0.210 C 
ENDBRANCH  32  36
BRANCH  33  38
HETATM   38  O   UNL     1       1.966  34.938  62.355  1.00  0.00    -0.353 OA
HETATM   39  C   UNL     1       1.174  34.825  61.177  1.00  0.00     0.210 C 
ENDBRANCH  33  38
ENDBRANCH  29  30
ENDBRANCH   1  29
TORSDOF 9
ENDMDL
MODEL 10
REMARK VINA RESULT:      -8.7      4.465      7.350
REMARK  9 active torsions:
REMARK  status: ('A' for Active; 'I' for Inactive)
REMARK    1  A    between atoms: O_2  and  C_3 
REMARK    2  A    between atoms: C_4  and  O_5 
REMARK    3  A    between atoms: C_8  and  C_9 
REMARK    4  A    between atoms: C_9  and  N_10 
REMARK    5  A    between atoms: C_14  and  O_15 
REMARK    6  A    between atoms: C_14  and  C_16 
REMARK    7  A    between atoms: C_21  and  C_22 
REMARK       I    between atoms: C_22  and  N_23 
REMARK    8  A    between atoms: N_23  and  C_24 
REMARK    9  A    between atoms: C_24  and  C_25 
ROOT
HETATM    1  N   UNL     1       7.130  27.700  57.537  1.00  0.00    -0.067 N 
HETATM    2  H   UNL     1       7.179  27.671  58.564  1.00  0.00     0.280 HD
HETATM    3  C   UNL     1       5.853  26.994  57.141  1.00  0.00     0.238 C 
HETATM    4  C   UNL     1       5.951  25.503  57.411  1.00  0.00     0.071 C 
HETATM    5  C   UNL     1       7.133  24.867  56.654  1.00  0.00     0.088 C 
HETATM    6  C   UNL     1       8.388  25.552  57.228  1.00  0.00     0.071 C 
HETATM    7  C   UNL     1       8.382  27.053  56.991  1.00  0.00     0.238 C 
ENDROOT
BRANCH   5   8
HETATM    8  O   UNL     1       7.194  23.497  57.050  1.00  0.00    -0.385 OA
HETATM    9  H   UNL     1       6.840  23.399  57.953  1.00  0.00     0.211 HD
ENDBRANCH   5   8
BRANCH   5  10
HETATM   10  C   UNL     1       6.993  24.925  55.125  1.00  0.00    -0.023 A 
HETATM   11  C   UNL     1       5.814  25.442  54.533  1.00  0.00     0.024 A 
HETATM   12  C   UNL     1       5.742  25.626  53.139  1.00  0.00     0.001 A 
HETATM   13  C   UNL     1       6.823  25.238  52.365  1.00  0.00     0.086 A 
HETATM   14  C   UNL     1       4.788  26.150  52.231  1.00  0.00     0.057 A 
HETATM   15  O   UNL     1       6.607  25.538  51.057  1.00  0.00    -0.304 OA
HETATM   16  C   UNL     1       7.959  24.626  52.877  1.00  0.00     0.039 A 
HETATM   17  C   UNL     1       5.361  26.105  50.973  1.00  0.00     0.144 A 
HETATM   18  C   UNL     1       8.013  24.465  54.269  1.00  0.00     0.013 A 
BRANCH  17  19
HETATM   19  C   UNL     1       4.861  26.551  49.690  1.00  0.00     0.275 C 
HETATM   20  N   UNL     1       5.542  27.623  49.160  1.00  0.00    -0.353 N 
HETATM   21  H   UNL     1       6.218  28.085  49.756  1.00  0.00     0.162 HD
HETATM   22  O   UNL     1       3.888  26.045  49.137  1.00  0.00    -0.265 OA
BRANCH  20  23
HETATM   23  C   UNL     1       5.092  28.315  47.966  1.00  0.00     0.155 C 
BRANCH  23  24
HETATM   24  C   UNL     1       4.529  29.708  48.264  1.00  0.00     0.139 C 
HETATM   25  O   UNL     1       3.290  29.614  48.999  1.00  0.00    -0.384 OA
HETATM   26  C   UNL     1       3.237  30.714  49.925  1.00  0.00     0.168 C 
HETATM   27  C   UNL     1       4.485  31.548  49.712  1.00  0.00     0.029 C 
HETATM   28  C   UNL     1       5.451  30.542  49.139  1.00  0.00     0.035 C 
ENDBRANCH  23  24
ENDBRANCH  20  23
ENDBRANCH  17  19
ENDBRANCH   5  10
BRANCH   1  29
HETATM   29  C   UNL     1       7.120  29.176  57.153  1.00  0.00     0.273 C 
BRANCH  29  30
HETATM   30  C   UNL     1       7.323  30.123  58.301  1.00  0.00    -0.030 A 
HETATM   31  C   UNL     1       6.419  31.175  58.512  1.00  0.00     0.048 A 
HETATM   32  C   UNL     1       6.584  32.044  59.593  1.00  0.00     0.102 A 
HETATM   33  C   UNL     1       7.688  31.921  60.443  1.00  0.00     0.101 A 
HETATM   34  C   UNL     1       8.586  30.870  60.242  1.00  0.00     0.040 A 
HETATM   35  C   UNL     1       8.402  29.973  59.182  1.00  0.00     0.012 A 
BRANCH  32  36
HETATM   36  O   UNL     1       5.714  33.088  59.763  1.00  0.00    -0.353 OA
HETATM   37  C   UNL     1       4.463  32.652  60.291  1.00  0.00     0.210 C 
ENDBRANCH  32  36
BRANCH  33  38
HETATM   38  O   UNL     1       7.782  32.822  61.469  1.00  0.00    -0.353 OA
HETATM   39  C   UNL     1       8.047  32.270  62.755  1.00  0.00     0.210 C 
ENDBRANCH  33  38
ENDBRANCH  29  30
ENDBRANCH   1  29
TORSDOF 9
ENDMDL
