MODEL 1
REMARK VINA RESULT:     -10.1      0.000      0.000
REMARK  6 active torsions:
REMARK  status: ('A' for Active; 'I' for Inactive)
REMARK    1  A    between atoms: O_2  and  C_3 
REMARK    2  A    between atoms: C_6  and  C_7 
REMARK    3  A    between atoms: C_13  and  C_14 
REMARK       I    between atoms: C_14  and  N_15 
REMARK    4  A    between atoms: N_15  and  C_16 
REMARK    5  A    between atoms: C_16  and  C_17 
REMARK    6  A    between atoms: C_24  and  C_25 
ROOT
HETATM    1  C   UNL     1       7.610  27.350  53.634  1.00  0.00     0.118 C 
HETATM    2  N   UNL     1       7.895  27.988  54.925  1.00  0.00    -0.365 N 
HETATM    3  C   UNL     1       6.897  28.301  55.792  1.00  0.00     0.138 A 
HETATM    4  N   UNL     1       5.580  28.212  55.397  1.00  0.00    -0.240 N 
HETATM    5  N   UNL     1       4.703  28.516  56.363  1.00  0.00    -0.181 NA
HETATM    6  C   UNL     1       5.483  28.904  57.374  1.00  0.00     0.160 A 
HETATM    7  C   UNL     1       6.866  28.781  57.090  1.00  0.00     0.096 A 
HETATM    8  C   UNL     1       5.152  27.822  54.066  1.00  0.00     0.221 C 
HETATM    9  C   UNL     1       6.323  27.982  53.076  1.00  0.00     0.066 C 
HETATM   10  H   UNL     1       8.848  28.326  55.046  1.00  0.00     0.161 HD
ENDROOT
BRANCH   7  11
HETATM   11  C   UNL     1       7.942  29.104  58.005  1.00  0.00     0.257 C 
HETATM   12  N   UNL     1       7.602  29.954  59.029  1.00  0.00    -0.352 N 
HETATM   13  H   UNL     1       6.688  30.383  59.011  1.00  0.00     0.163 HD
HETATM   14  O   UNL     1       9.076  28.668  57.843  1.00  0.00    -0.267 OA
BRANCH  12  15
HETATM   15  C   UNL     1       8.562  30.395  60.013  1.00  0.00     0.161 C 
BRANCH  15  16
HETATM   16  C   UNL     1       7.981  31.375  61.002  1.00  0.00    -0.041 A 
HETATM   17  C   UNL     1       8.544  31.484  62.283  1.00  0.00     0.009 A 
HETATM   18  C   UNL     1       8.066  32.426  63.196  1.00  0.00     0.001 A 
HETATM   19  C   UNL     1       7.021  33.275  62.838  1.00  0.00     0.000 A 
HETATM   20  C   UNL     1       6.462  33.189  61.566  1.00  0.00     0.001 A 
HETATM   21  C   UNL     1       6.944  32.251  60.649  1.00  0.00     0.009 A 
ENDBRANCH  15  16
ENDBRANCH  12  15
ENDBRANCH   7  11
BRANCH   1  22
HETATM   22  C   UNL     1       7.593  25.826  53.747  1.00  0.00    -0.035 A 
HETATM   23  C   UNL     1       7.677  25.004  52.609  1.00  0.00     0.012 A 
HETATM   24  C   UNL     1       7.675  23.606  52.711  1.00  0.00     0.037 A 
HETATM   25  C   UNL     1       7.616  22.993  53.960  1.00  0.00     0.068 A 
HETATM   26  C   UNL     1       7.575  23.791  55.100  1.00  0.00     0.037 A 
HETATM   27  C   UNL     1       7.569  25.186  54.997  1.00  0.00     0.012 A 
BRANCH  25  28
HETATM   28  O   UNL     1       7.609  21.647  54.198  1.00  0.00    -0.356 OA
HETATM   29  C   UNL     1       7.991  20.801  53.120  1.00  0.00     0.210 C 
ENDBRANCH  25  28
ENDBRANCH   1  22
BRANCH   8  30
HETATM   30  C   UNL     1       3.973  28.637  53.575  1.00  0.00     0.409 C 
HETATM   31  F   UNL     1       3.627  29.623  54.434  1.00  0.00    -0.169 F 
HETATM   32  F   UNL     1       4.309  29.252  52.405  1.00  0.00    -0.169 F 
HETATM   33  F   UNL     1       2.877  27.900  53.302  1.00  0.00    -0.169 F 
ENDBRANCH   8  30
TORSDOF 6
ENDMDL
MODEL 2
REMARK VINA RESULT:      -9.7      3.389      4.437
REMARK  6 active torsions:
REMARK  status: ('A' for Active; 'I' for Inactive)
REMARK    1  A    between atoms: O_2  and  C_3 
REMARK    2  A    between atoms: C_6  and  C_7 
REMARK    3  A    between atoms: C_13  and  C_14 
REMARK       I    between atoms: C_14  and  N_15 
REMARK    4  A    between atoms: N_15  and  C_16 
REMARK    5  A    between atoms: C_16  and  C_17 
REMARK    6  A    between atoms: C_24  and  C_25 
ROOT
HETATM    1  C   UNL     1       5.177  25.958  56.038  1.00  0.00     0.118 C 
HETATM    2  N   UNL     1       5.392  27.253  56.696  1.00  0.00    -0.365 N 
HETATM    3  C   UNL     1       6.642  27.688  57.004  1.00  0.00     0.138 A 
HETATM    4  N   UNL     1       7.721  26.839  56.889  1.00  0.00    -0.240 N 
HETATM    5  N   UNL     1       8.895  27.410  57.191  1.00  0.00    -0.181 NA
HETATM    6  C   UNL     1       8.544  28.631  57.603  1.00  0.00     0.160 A 
HETATM    7  C   UNL     1       7.152  28.876  57.498  1.00  0.00     0.096 A 
HETATM    8  C   UNL     1       7.626  25.450  56.477  1.00  0.00     0.221 C 
HETATM    9  C   UNL     1       6.175  24.957  56.644  1.00  0.00     0.066 C 
HETATM   10  H   UNL     1       4.554  27.709  57.050  1.00  0.00     0.161 HD
ENDROOT
BRANCH   7  11
HETATM   11  C   UNL     1       6.490  30.116  57.849  1.00  0.00     0.257 C 
HETATM   12  N   UNL     1       6.981  30.744  58.969  1.00  0.00    -0.352 N 
HETATM   13  H   UNL     1       7.666  30.256  59.528  1.00  0.00     0.163 HD
HETATM   14  O   UNL     1       5.541  30.543  57.202  1.00  0.00    -0.267 OA
BRANCH  12  15
HETATM   15  C   UNL     1       6.418  31.975  59.468  1.00  0.00     0.161 C 
BRANCH  15  16
HETATM   16  C   UNL     1       6.912  32.329  60.850  1.00  0.00    -0.041 A 
HETATM   17  C   UNL     1       6.162  33.202  61.652  1.00  0.00     0.009 A 
HETATM   18  C   UNL     1       6.564  33.496  62.956  1.00  0.00     0.001 A 
HETATM   19  C   UNL     1       7.719  32.917  63.477  1.00  0.00     0.000 A 
HETATM   20  C   UNL     1       8.466  32.036  62.698  1.00  0.00     0.001 A 
HETATM   21  C   UNL     1       8.061  31.736  61.395  1.00  0.00     0.009 A 
ENDBRANCH  15  16
ENDBRANCH  12  15
ENDBRANCH   7  11
BRANCH   1  22
HETATM   22  C   UNL     1       5.218  26.083  54.516  1.00  0.00    -0.035 A 
HETATM   23  C   UNL     1       5.285  24.949  53.687  1.00  0.00     0.012 A 
HETATM   24  C   UNL     1       5.309  25.060  52.290  1.00  0.00     0.037 A 
HETATM   25  C   UNL     1       5.241  26.312  51.683  1.00  0.00     0.068 A 
HETATM   26  C   UNL     1       5.132  27.443  52.487  1.00  0.00     0.037 A 
HETATM   27  C   UNL     1       5.115  27.333  53.882  1.00  0.00     0.012 A 
BRANCH  25  28
HETATM   28  O   UNL     1       5.254  26.558  50.340  1.00  0.00    -0.356 OA
HETATM   29  C   UNL     1       4.300  27.490  49.847  1.00  0.00     0.210 C 
ENDBRANCH  25  28
ENDBRANCH   1  22
BRANCH   8  30
HETATM   30  C   UNL     1       8.551  24.547  57.267  1.00  0.00     0.409 C 
HETATM   31  F   UNL     1       8.619  24.888  58.575  1.00  0.00    -0.169 F 
HETATM   32  F   UNL     1       8.071  23.272  57.230  1.00  0.00    -0.169 F 
HETATM   33  F   UNL     1       9.804  24.485  56.774  1.00  0.00    -0.169 F 
ENDBRANCH   8  30
TORSDOF 6
ENDMDL
MODEL 3
REMARK VINA RESULT:      -9.6      2.721      7.662
REMARK  6 active torsions:
REMARK  status: ('A' for Active; 'I' for Inactive)
REMARK    1  A    between atoms: O_2  and  C_3 
REMARK    2  A    between atoms: C_6  and  C_7 
REMARK    3  A    between atoms: C_13  and  C_14 
REMARK       I    between atoms: C_14  and  N_15 
REMARK    4  A    between atoms: N_15  and  C_16 
REMARK    5  A    between atoms: C_16  and  C_17 
REMARK    6  A    between atoms: C_24  and  C_25 
ROOT
HETATM    1  C   UNL     1       4.887  27.962  56.259  1.00  0.00     0.118 C 
HETATM    2  N   UNL     1       5.142  26.916  55.261  1.00  0.00    -0.365 N 
HETATM    3  C   UNL     1       5.340  27.224  53.952  1.00  0.00     0.138 A 
HETATM    4  N   UNL     1       5.106  28.503  53.497  1.00  0.00    -0.240 N 
HETATM    5  N   UNL     1       5.376  28.672  52.195  1.00  0.00    -0.181 NA
HETATM    6  C   UNL     1       5.698  27.443  51.787  1.00  0.00     0.160 A 
HETATM    7  C   UNL     1       5.709  26.492  52.838  1.00  0.00     0.096 A 
HETATM    8  C   UNL     1       4.618  29.589  54.328  1.00  0.00     0.221 C 
HETATM    9  C   UNL     1       3.976  29.015  55.607  1.00  0.00     0.066 C 
HETATM   10  H   UNL     1       4.994  25.961  55.580  1.00  0.00     0.161 HD
ENDROOT
BRANCH   7  11
HETATM   11  C   UNL     1       6.045  25.089  52.695  1.00  0.00     0.257 C 
HETATM   12  N   UNL     1       7.379  24.791  52.830  1.00  0.00    -0.352 N 
HETATM   13  H   UNL     1       8.035  25.556  52.894  1.00  0.00     0.163 HD
HETATM   14  O   UNL     1       5.191  24.247  52.441  1.00  0.00    -0.267 OA
BRANCH  12  15
HETATM   15  C   UNL     1       7.884  23.446  52.692  1.00  0.00     0.161 C 
BRANCH  15  16
HETATM   16  C   UNL     1       7.960  22.710  54.007  1.00  0.00    -0.041 A 
HETATM   17  C   UNL     1       7.843  21.311  54.027  1.00  0.00     0.009 A 
HETATM   18  C   UNL     1       7.972  20.601  55.222  1.00  0.00     0.001 A 
HETATM   19  C   UNL     1       8.226  21.279  56.412  1.00  0.00     0.000 A 
HETATM   20  C   UNL     1       8.360  22.665  56.406  1.00  0.00     0.001 A 
HETATM   21  C   UNL     1       8.237  23.377  55.210  1.00  0.00     0.009 A 
ENDBRANCH  15  16
ENDBRANCH  12  15
ENDBRANCH   7  11
BRANCH   1  22
HETATM   22  C   UNL     1       6.185  28.501  56.859  1.00  0.00    -0.035 A 
HETATM   23  C   UNL     1       7.409  27.830  56.688  1.00  0.00     0.012 A 
HETATM   24  C   UNL     1       8.603  28.330  57.226  1.00  0.00     0.037 A 
HETATM   25  C   UNL     1       8.607  29.532  57.930  1.00  0.00     0.068 A 
HETATM   26  C   UNL     1       7.412  30.231  58.073  1.00  0.00     0.037 A 
HETATM   27  C   UNL     1       6.219  29.728  57.543  1.00  0.00     0.012 A 
BRANCH  25  28
HETATM   28  O   UNL     1       9.696  30.127  58.501  1.00  0.00    -0.356 OA
HETATM   29  C   UNL     1      10.678  30.656  57.617  1.00  0.00     0.210 C 
ENDBRANCH  25  28
ENDBRANCH   1  22
BRANCH   8  30
HETATM   30  C   UNL     1       3.605  30.457  53.610  1.00  0.00     0.409 C 
HETATM   31  F   UNL     1       2.810  29.748  52.777  1.00  0.00    -0.169 F 
HETATM   32  F   UNL     1       2.778  31.033  54.529  1.00  0.00    -0.169 F 
HETATM   33  F   UNL     1       4.153  31.476  52.918  1.00  0.00    -0.169 F 
ENDBRANCH   8  30
TORSDOF 6
ENDMDL
MODEL 4
REMARK VINA RESULT:      -9.3      5.164      8.203
REMARK  6 active torsions:
REMARK  status: ('A' for Active; 'I' for Inactive)
REMARK    1  A    between atoms: O_2  and  C_3 
REMARK    2  A    between atoms: C_6  and  C_7 
REMARK    3  A    between atoms: C_13  and  C_14 
REMARK       I    between atoms: C_14  and  N_15 
REMARK    4  A    between atoms: N_15  and  C_16 
REMARK    5  A    between atoms: C_16  and  C_17 
REMARK    6  A    between atoms: C_24  and  C_25 
ROOT
HETATM    1  C   UNL     1       5.265  28.621  50.125  1.00  0.00     0.118 C 
HETATM    2  N   UNL     1       5.991  27.511  50.754  1.00  0.00    -0.365 N 
HETATM    3  C   UNL     1       5.716  27.119  52.026  1.00  0.00     0.138 A 
HETATM    4  N   UNL     1       4.892  27.881  52.824  1.00  0.00    -0.240 N 
HETATM    5  N   UNL     1       4.680  27.358  54.040  1.00  0.00    -0.181 NA
HETATM    6  C   UNL     1       5.468  26.281  54.051  1.00  0.00     0.160 A 
HETATM    7  C   UNL     1       6.134  26.065  52.818  1.00  0.00     0.096 A 
HETATM    8  C   UNL     1       4.290  29.137  52.413  1.00  0.00     0.221 C 
HETATM    9  C   UNL     1       5.050  29.703  51.197  1.00  0.00     0.066 C 
HETATM   10  H   UNL     1       6.809  27.179  50.246  1.00  0.00     0.161 HD
ENDROOT
BRANCH   7  11
HETATM   11  C   UNL     1       7.032  24.964  52.533  1.00  0.00     0.257 C 
HETATM   12  N   UNL     1       6.724  23.781  53.161  1.00  0.00    -0.352 N 
HETATM   13  H   UNL     1       5.990  23.785  53.854  1.00  0.00     0.163 HD
HETATM   14  O   UNL     1       8.010  25.104  51.807  1.00  0.00    -0.267 OA
BRANCH  12  15
HETATM   15  C   UNL     1       7.531  22.595  53.003  1.00  0.00     0.161 C 
BRANCH  15  16
HETATM   16  C   UNL     1       7.869  21.936  54.318  1.00  0.00    -0.041 A 
HETATM   17  C   UNL     1       8.237  20.582  54.341  1.00  0.00     0.009 A 
HETATM   18  C   UNL     1       8.614  19.965  55.535  1.00  0.00     0.001 A 
HETATM   19  C   UNL     1       8.635  20.694  56.721  1.00  0.00     0.000 A 
HETATM   20  C   UNL     1       8.287  22.043  56.712  1.00  0.00     0.001 A 
HETATM   21  C   UNL     1       7.916  22.664  55.517  1.00  0.00     0.009 A 
ENDBRANCH  15  16
ENDBRANCH  12  15
ENDBRANCH   7  11
BRANCH   1  22
HETATM   22  C   UNL     1       3.999  28.141  49.418  1.00  0.00    -0.035 A 
HETATM   23  C   UNL     1       3.948  26.896  48.766  1.00  0.00     0.012 A 
HETATM   24  C   UNL     1       2.782  26.448  48.128  1.00  0.00     0.037 A 
HETATM   25  C   UNL     1       1.627  27.225  48.148  1.00  0.00     0.068 A 
HETATM   26  C   UNL     1       1.647  28.442  48.824  1.00  0.00     0.037 A 
HETATM   27  C   UNL     1       2.812  28.893  49.454  1.00  0.00     0.012 A 
BRANCH  25  28
HETATM   28  O   UNL     1       0.431  26.907  47.570  1.00  0.00    -0.356 OA
HETATM   29  C   UNL     1       0.070  27.629  46.399  1.00  0.00     0.210 C 
ENDBRANCH  25  28
ENDBRANCH   1  22
BRANCH   8  30
HETATM   30  C   UNL     1       4.288  30.169  53.522  1.00  0.00     0.409 C 
HETATM   31  F   UNL     1       4.330  31.437  53.052  1.00  0.00    -0.169 F 
HETATM   32  F   UNL     1       3.127  30.063  54.230  1.00  0.00    -0.169 F 
HETATM   33  F   UNL     1       5.282  30.008  54.418  1.00  0.00    -0.169 F 
ENDBRANCH   8  30
TORSDOF 6
ENDMDL
MODEL 5
REMARK VINA RESULT:      -9.2      3.676      5.748
REMARK  6 active torsions:
REMARK  status: ('A' for Active; 'I' for Inactive)
REMARK    1  A    between atoms: O_2  and  C_3 
REMARK    2  A    between atoms: C_6  and  C_7 
REMARK    3  A    between atoms: C_13  and  C_14 
REMARK       I    between atoms: C_14  and  N_15 
REMARK    4  A    between atoms: N_15  and  C_16 
REMARK    5  A    between atoms: C_16  and  C_17 
REMARK    6  A    between atoms: C_24  and  C_25 
ROOT
HETATM    1  C   UNL     1       5.092  29.611  57.525  1.00  0.00     0.118 C 
HETATM    2  N   UNL     1       6.231  30.157  58.273  1.00  0.00    -0.365 N 
HETATM    3  C   UNL     1       7.510  29.857  57.929  1.00  0.00     0.138 A 
HETATM    4  N   UNL     1       7.766  28.875  56.997  1.00  0.00    -0.240 N 
HETATM    5  N   UNL     1       9.069  28.709  56.728  1.00  0.00    -0.181 NA
HETATM    6  C   UNL     1       9.666  29.542  57.584  1.00  0.00     0.160 A 
HETATM    7  C   UNL     1       8.750  30.301  58.355  1.00  0.00     0.096 A 
HETATM    8  C   UNL     1       6.741  28.081  56.345  1.00  0.00     0.221 C 
HETATM    9  C   UNL     1       5.432  28.157  57.157  1.00  0.00     0.066 C 
HETATM   10  H   UNL     1       5.997  30.624  59.147  1.00  0.00     0.161 HD
ENDROOT
BRANCH   7  11
HETATM   11  C   UNL     1       9.110  31.297  59.344  1.00  0.00     0.257 C 
HETATM   12  N   UNL     1       8.921  30.917  60.651  1.00  0.00    -0.352 N 
HETATM   13  H   UNL     1       8.444  30.045  60.831  1.00  0.00     0.163 HD
HETATM   14  O   UNL     1       9.520  32.405  59.019  1.00  0.00    -0.267 OA
BRANCH  12  15
HETATM   15  C   UNL     1       9.206  31.800  61.756  1.00  0.00     0.161 C 
BRANCH  15  16
HETATM   16  C   UNL     1       7.967  32.211  62.514  1.00  0.00    -0.041 A 
HETATM   17  C   UNL     1       6.703  31.854  62.021  1.00  0.00     0.009 A 
HETATM   18  C   UNL     1       5.544  32.168  62.733  1.00  0.00     0.001 A 
HETATM   19  C   UNL     1       5.634  32.838  63.951  1.00  0.00     0.000 A 
HETATM   20  C   UNL     1       6.883  33.186  64.461  1.00  0.00     0.001 A 
HETATM   21  C   UNL     1       8.044  32.867  63.752  1.00  0.00     0.009 A 
ENDBRANCH  15  16
ENDBRANCH  12  15
ENDBRANCH   7  11
BRANCH   1  22
HETATM   22  C   UNL     1       4.703  30.508  56.351  1.00  0.00    -0.035 A 
HETATM   23  C   UNL     1       5.064  31.867  56.312  1.00  0.00     0.012 A 
HETATM   24  C   UNL     1       4.720  32.688  55.230  1.00  0.00     0.037 A 
HETATM   25  C   UNL     1       4.026  32.164  54.143  1.00  0.00     0.068 A 
HETATM   26  C   UNL     1       3.696  30.811  54.144  1.00  0.00     0.037 A 
HETATM   27  C   UNL     1       4.033  29.993  55.228  1.00  0.00     0.012 A 
BRANCH  25  28
HETATM   28  O   UNL     1       3.632  32.852  53.030  1.00  0.00    -0.356 OA
HETATM   29  C   UNL     1       2.528  32.326  52.305  1.00  0.00     0.210 C 
ENDBRANCH  25  28
ENDBRANCH   1  22
BRANCH   8  30
HETATM   30  C   UNL     1       7.145  26.629  56.190  1.00  0.00     0.409 C 
HETATM   31  F   UNL     1       7.895  26.183  57.224  1.00  0.00    -0.169 F 
HETATM   32  F   UNL     1       6.024  25.852  56.169  1.00  0.00    -0.169 F 
HETATM   33  F   UNL     1       7.797  26.365  55.040  1.00  0.00    -0.169 F 
ENDBRANCH   8  30
TORSDOF 6
ENDMDL
MODEL 6
REMARK VINA RESULT:      -9.2      3.423      4.688
REMARK  6 active torsions:
REMARK  status: ('A' for Active; 'I' for Inactive)
REMARK    1  A    between atoms: O_2  and  C_3 
REMARK    2  A    between atoms: C_6  and  C_7 
REMARK    3  A    between atoms: C_13  and  C_14 
REMARK       I    between atoms: C_14  and  N_15 
REMARK    4  A    between atoms: N_15  and  C_16 
REMARK    5  A    between atoms: C_16  and  C_17 
REMARK    6  A    between atoms: C_24  and  C_25 
ROOT
HETATM    1  C   UNL     1       4.510  26.217  53.632  1.00  0.00     0.118 C 
HETATM    2  N   UNL     1       4.763  27.128  54.755  1.00  0.00    -0.365 N 
HETATM    3  C   UNL     1       5.978  27.182  55.360  1.00  0.00     0.138 A 
HETATM    4  N   UNL     1       6.941  26.240  55.068  1.00  0.00    -0.240 N 
HETATM    5  N   UNL     1       8.101  26.435  55.710  1.00  0.00    -0.181 NA
HETATM    6  C   UNL     1       7.839  27.473  56.507  1.00  0.00     0.160 A 
HETATM    7  C   UNL     1       6.535  27.998  56.329  1.00  0.00     0.096 A 
HETATM    8  C   UNL     1       6.748  25.133  54.150  1.00  0.00     0.221 C 
HETATM    9  C   UNL     1       5.240  24.896  53.932  1.00  0.00     0.066 C 
HETATM   10  H   UNL     1       3.939  27.579  55.147  1.00  0.00     0.161 HD
ENDROOT
BRANCH   7  11
HETATM   11  C   UNL     1       5.984  29.135  57.039  1.00  0.00     0.257 C 
HETATM   12  N   UNL     1       6.912  29.967  57.618  1.00  0.00    -0.352 N 
HETATM   13  H   UNL     1       7.879  29.677  57.617  1.00  0.00     0.163 HD
HETATM   14  O   UNL     1       4.775  29.308  57.134  1.00  0.00    -0.267 OA
BRANCH  12  15
HETATM   15  C   UNL     1       6.529  31.130  58.382  1.00  0.00     0.161 C 
BRANCH  15  16
HETATM   16  C   UNL     1       7.409  31.355  59.588  1.00  0.00    -0.041 A 
HETATM   17  C   UNL     1       7.089  32.373  60.499  1.00  0.00     0.009 A 
HETATM   18  C   UNL     1       7.849  32.562  61.654  1.00  0.00     0.001 A 
HETATM   19  C   UNL     1       8.936  31.732  61.917  1.00  0.00     0.000 A 
HETATM   20  C   UNL     1       9.257  30.707  61.030  1.00  0.00     0.001 A 
HETATM   21  C   UNL     1       8.493  30.513  59.876  1.00  0.00     0.009 A 
ENDBRANCH  15  16
ENDBRANCH  12  15
ENDBRANCH   7  11
BRANCH   1  22
HETATM   22  C   UNL     1       4.851  26.862  52.290  1.00  0.00    -0.035 A 
HETATM   23  C   UNL     1       4.897  26.110  51.103  1.00  0.00     0.012 A 
HETATM   24  C   UNL     1       5.196  26.702  49.868  1.00  0.00     0.037 A 
HETATM   25  C   UNL     1       5.434  28.072  49.785  1.00  0.00     0.068 A 
HETATM   26  C   UNL     1       5.352  28.840  50.944  1.00  0.00     0.037 A 
HETATM   27  C   UNL     1       5.060  28.247  52.177  1.00  0.00     0.012 A 
BRANCH  25  28
HETATM   28  O   UNL     1       5.734  28.771  48.651  1.00  0.00    -0.356 OA
HETATM   29  C   UNL     1       5.426  28.147  47.410  1.00  0.00     0.210 C 
ENDBRANCH  25  28
ENDBRANCH   1  22
BRANCH   8  30
HETATM   30  C   UNL     1       7.384  23.851  54.647  1.00  0.00     0.409 C 
HETATM   31  F   UNL     1       6.987  23.524  55.898  1.00  0.00    -0.169 F 
HETATM   32  F   UNL     1       6.999  22.819  53.843  1.00  0.00    -0.169 F 
HETATM   33  F   UNL     1       8.732  23.862  54.612  1.00  0.00    -0.169 F 
ENDBRANCH   8  30
TORSDOF 6
ENDMDL
MODEL 7
REMARK VINA RESULT:      -9.1      3.549      4.704
REMARK  6 active torsions:
REMARK  status: ('A' for Active; 'I' for Inactive)
REMARK    1  A    between atoms: O_2  and  C_3 
REMARK    2  A    between atoms: C_6  and  C_7 
REMARK    3  A    between atoms: C_13  and  C_14 
REMARK       I    between atoms: C_14  and  N_15 
REMARK    4  A    between atoms: N_15  and  C_16 
REMARK    5  A    between atoms: C_16  and  C_17 
REMARK    6  A    between atoms: C_24  and  C_25 
ROOT
HETATM    1  C   UNL     1       4.641  27.629  56.256  1.00  0.00     0.118 C 
HETATM    2  N   UNL     1       5.001  28.818  57.039  1.00  0.00    -0.365 N 
HETATM    3  C   UNL     1       6.280  29.036  57.443  1.00  0.00     0.138 A 
HETATM    4  N   UNL     1       7.231  28.049  57.300  1.00  0.00    -0.240 N 
HETATM    5  N   UNL     1       8.455  28.413  57.706  1.00  0.00    -0.181 NA
HETATM    6  C   UNL     1       8.259  29.632  58.212  1.00  0.00     0.160 A 
HETATM    7  C   UNL     1       6.925  30.089  58.067  1.00  0.00     0.096 A 
HETATM    8  C   UNL     1       6.963  26.729  56.758  1.00  0.00     0.221 C 
HETATM    9  C   UNL     1       5.449  26.444  56.812  1.00  0.00     0.066 C 
HETATM   10  H   UNL     1       4.217  29.362  57.395  1.00  0.00     0.161 HD
ENDROOT
BRANCH   7  11
HETATM   11  C   UNL     1       6.429  31.380  58.499  1.00  0.00     0.257 C 
HETATM   12  N   UNL     1       6.425  31.578  59.859  1.00  0.00    -0.352 N 
HETATM   13  H   UNL     1       6.645  30.794  60.457  1.00  0.00     0.163 HD
HETATM   14  O   UNL     1       6.015  32.210  57.699  1.00  0.00    -0.267 OA
BRANCH  12  15
HETATM   15  C   UNL     1       5.939  32.799  60.456  1.00  0.00     0.161 C 
BRANCH  15  16
HETATM   16  C   UNL     1       6.454  33.012  61.859  1.00  0.00    -0.041 A 
HETATM   17  C   UNL     1       7.569  32.285  62.306  1.00  0.00     0.009 A 
HETATM   18  C   UNL     1       8.103  32.508  63.576  1.00  0.00     0.001 A 
HETATM   19  C   UNL     1       7.533  33.463  64.415  1.00  0.00     0.000 A 
HETATM   20  C   UNL     1       6.436  34.203  63.979  1.00  0.00     0.001 A 
HETATM   21  C   UNL     1       5.904  33.986  62.706  1.00  0.00     0.009 A 
ENDBRANCH  15  16
ENDBRANCH  12  15
ENDBRANCH   7  11
BRANCH   1  22
HETATM   22  C   UNL     1       4.789  27.874  54.755  1.00  0.00    -0.035 A 
HETATM   23  C   UNL     1       4.716  29.168  54.211  1.00  0.00     0.012 A 
HETATM   24  C   UNL     1       4.865  29.396  52.835  1.00  0.00     0.037 A 
HETATM   25  C   UNL     1       5.117  28.335  51.970  1.00  0.00     0.068 A 
HETATM   26  C   UNL     1       5.234  27.051  52.497  1.00  0.00     0.037 A 
HETATM   27  C   UNL     1       5.078  26.823  53.868  1.00  0.00     0.012 A 
BRANCH  25  28
HETATM   28  O   UNL     1       5.282  28.420  50.617  1.00  0.00    -0.356 OA
HETATM   29  C   UNL     1       4.561  29.444  49.943  1.00  0.00     0.210 C 
ENDBRANCH  25  28
ENDBRANCH   1  22
BRANCH   8  30
HETATM   30  C   UNL     1       7.700  25.636  57.503  1.00  0.00     0.409 C 
HETATM   31  F   UNL     1       7.195  24.406  57.257  1.00  0.00    -0.169 F 
HETATM   32  F   UNL     1       8.998  25.606  57.085  1.00  0.00    -0.169 F 
HETATM   33  F   UNL     1       7.748  25.822  58.838  1.00  0.00    -0.169 F 
ENDBRANCH   8  30
TORSDOF 6
ENDMDL
MODEL 8
REMARK VINA RESULT:      -8.9      4.579      9.578
REMARK  6 active torsions:
REMARK  status: ('A' for Active; 'I' for Inactive)
REMARK    1  A    between atoms: O_2  and  C_3 
REMARK    2  A    between atoms: C_6  and  C_7 
REMARK    3  A    between atoms: C_13  and  C_14 
REMARK       I    between atoms: C_14  and  N_15 
REMARK    4  A    between atoms: N_15  and  C_16 
REMARK    5  A    between atoms: C_16  and  C_17 
REMARK    6  A    between atoms: C_24  and  C_25 
ROOT
HETATM    1  C   UNL     1       7.182  28.524  54.570  1.00  0.00     0.118 C 
HETATM    2  N   UNL     1       6.755  28.322  53.180  1.00  0.00    -0.365 N 
HETATM    3  C   UNL     1       6.154  27.168  52.788  1.00  0.00     0.138 A 
HETATM    4  N   UNL     1       6.113  26.083  53.637  1.00  0.00    -0.240 N 
HETATM    5  N   UNL     1       5.460  25.026  53.134  1.00  0.00    -0.181 NA
HETATM    6  C   UNL     1       5.160  25.414  51.893  1.00  0.00     0.160 A 
HETATM    7  C   UNL     1       5.552  26.748  51.615  1.00  0.00     0.096 A 
HETATM    8  C   UNL     1       6.708  26.059  54.960  1.00  0.00     0.221 C 
HETATM    9  C   UNL     1       7.750  27.189  55.081  1.00  0.00     0.066 C 
HETATM   10  H   UNL     1       7.086  29.017  52.514  1.00  0.00     0.161 HD
ENDROOT
BRANCH   7  11
HETATM   11  C   UNL     1       5.335  27.442  50.362  1.00  0.00     0.257 C 
HETATM   12  N   UNL     1       5.061  26.632  49.286  1.00  0.00    -0.352 N 
HETATM   13  H   UNL     1       5.147  25.633  49.405  1.00  0.00     0.163 HD
HETATM   14  O   UNL     1       5.425  28.661  50.278  1.00  0.00    -0.267 OA
BRANCH  12  15
HETATM   15  C   UNL     1       4.845  27.162  47.961  1.00  0.00     0.161 C 
BRANCH  15  16
HETATM   16  C   UNL     1       3.413  27.574  47.720  1.00  0.00    -0.041 A 
HETATM   17  C   UNL     1       3.138  28.835  47.168  1.00  0.00     0.009 A 
HETATM   18  C   UNL     1       1.826  29.216  46.878  1.00  0.00     0.001 A 
HETATM   19  C   UNL     1       0.774  28.340  47.131  1.00  0.00     0.000 A 
HETATM   20  C   UNL     1       1.032  27.080  47.665  1.00  0.00     0.001 A 
HETATM   21  C   UNL     1       2.344  26.695  47.950  1.00  0.00     0.009 A 
ENDBRANCH  15  16
ENDBRANCH  12  15
ENDBRANCH   7  11
BRANCH   1  22
HETATM   22  C   UNL     1       6.067  29.129  55.423  1.00  0.00    -0.035 A 
HETATM   23  C   UNL     1       4.849  29.540  54.855  1.00  0.00     0.012 A 
HETATM   24  C   UNL     1       3.820  30.083  55.638  1.00  0.00     0.037 A 
HETATM   25  C   UNL     1       3.975  30.205  57.017  1.00  0.00     0.068 A 
HETATM   26  C   UNL     1       5.159  29.764  57.601  1.00  0.00     0.037 A 
HETATM   27  C   UNL     1       6.188  29.229  56.819  1.00  0.00     0.012 A 
BRANCH  25  28
HETATM   28  O   UNL     1       3.055  30.712  57.890  1.00  0.00    -0.356 OA
HETATM   29  C   UNL     1       3.555  31.491  58.970  1.00  0.00     0.210 C 
ENDBRANCH  25  28
ENDBRANCH   1  22
BRANCH   8  30
HETATM   30  C   UNL     1       7.374  24.735  55.272  1.00  0.00     0.409 C 
HETATM   31  F   UNL     1       8.135  24.282  54.250  1.00  0.00    -0.169 F 
HETATM   32  F   UNL     1       8.216  24.896  56.333  1.00  0.00    -0.169 F 
HETATM   33  F   UNL     1       6.512  23.762  55.631  1.00  0.00    -0.169 F 
ENDBRANCH   8  30
TORSDOF 6
ENDMDL
MODEL 9
REMARK VINA RESULT:      -8.8      6.114      9.304
REMARK  6 active torsions:
REMARK  status: ('A' for Active; 'I' for Inactive)
REMARK    1  A    between atoms: O_2  and  C_3 
REMARK    2  A    between atoms: C_6  and  C_7 
REMARK    3  A    between atoms: C_13  and  C_14 
REMARK       I    between atoms: C_14  and  N_15 
REMARK    4  A    between atoms: N_15  and  C_16 
REMARK    5  A    between atoms: C_16  and  C_17 
REMARK    6  A    between atoms: C_24  and  C_25 
ROOT
HETATM    1  C   UNL     1       3.091  30.191  49.966  1.00  0.00     0.118 C 
HETATM    2  N   UNL     1       3.705  29.224  50.884  1.00  0.00    -0.365 N 
HETATM    3  C   UNL     1       4.125  28.007  50.449  1.00  0.00     0.138 A 
HETATM    4  N   UNL     1       3.802  27.573  49.181  1.00  0.00    -0.240 N 
HETATM    5  N   UNL     1       4.311  26.372  48.873  1.00  0.00    -0.181 NA
HETATM    6  C   UNL     1       4.893  25.986  50.011  1.00  0.00     0.160 A 
HETATM    7  C   UNL     1       4.826  26.967  51.032  1.00  0.00     0.096 A 
HETATM    8  C   UNL     1       2.993  28.328  48.242  1.00  0.00     0.221 C 
HETATM    9  C   UNL     1       2.190  29.405  48.997  1.00  0.00     0.066 C 
HETATM   10  H   UNL     1       3.638  29.455  51.873  1.00  0.00     0.161 HD
ENDROOT
BRANCH   7  11
HETATM   11  C   UNL     1       5.391  26.834  52.360  1.00  0.00     0.257 C 
HETATM   12  N   UNL     1       6.492  26.017  52.447  1.00  0.00    -0.352 N 
HETATM   13  H   UNL     1       6.755  25.481  51.633  1.00  0.00     0.163 HD
HETATM   14  O   UNL     1       4.891  27.391  53.330  1.00  0.00    -0.267 OA
BRANCH  12  15
HETATM   15  C   UNL     1       7.160  25.758  53.701  1.00  0.00     0.161 C 
BRANCH  15  16
HETATM   16  C   UNL     1       7.474  24.296  53.907  1.00  0.00    -0.041 A 
HETATM   17  C   UNL     1       7.435  23.755  55.201  1.00  0.00     0.009 A 
HETATM   18  C   UNL     1       7.661  22.393  55.412  1.00  0.00     0.001 A 
HETATM   19  C   UNL     1       7.923  21.554  54.332  1.00  0.00     0.000 A 
HETATM   20  C   UNL     1       7.950  22.074  53.040  1.00  0.00     0.001 A 
HETATM   21  C   UNL     1       7.718  23.435  52.827  1.00  0.00     0.009 A 
ENDBRANCH  15  16
ENDBRANCH  12  15
ENDBRANCH   7  11
BRANCH   1  22
HETATM   22  C   UNL     1       4.137  31.086  49.303  1.00  0.00    -0.035 A 
HETATM   23  C   UNL     1       3.866  31.772  48.106  1.00  0.00     0.012 A 
HETATM   24  C   UNL     1       4.819  32.605  47.504  1.00  0.00     0.037 A 
HETATM   25  C   UNL     1       6.063  32.794  48.100  1.00  0.00     0.068 A 
HETATM   26  C   UNL     1       6.334  32.157  49.308  1.00  0.00     0.037 A 
HETATM   27  C   UNL     1       5.385  31.319  49.905  1.00  0.00     0.012 A 
BRANCH  25  28
HETATM   28  O   UNL     1       7.076  33.576  47.622  1.00  0.00    -0.356 OA
HETATM   29  C   UNL     1       6.915  34.107  46.312  1.00  0.00     0.210 C 
ENDBRANCH  25  28
ENDBRANCH   1  22
BRANCH   8  30
HETATM   30  C   UNL     1       2.034  27.448  47.466  1.00  0.00     0.409 C 
HETATM   31  F   UNL     1       1.197  26.754  48.271  1.00  0.00    -0.169 F 
HETATM   32  F   UNL     1       1.244  28.232  46.678  1.00  0.00    -0.169 F 
HETATM   33  F   UNL     1       2.644  26.582  46.631  1.00  0.00    -0.169 F 
ENDBRANCH   8  30
TORSDOF 6
ENDMDL
MODEL 10
REMARK VINA RESULT:      -8.8      5.697      8.764
REMARK  6 active torsions:
REMARK  status: ('A' for Active; 'I' for Inactive)
REMARK    1  A    between atoms: O_2  and  C_3 
REMARK    2  A    between atoms: C_6  and  C_7 
REMARK    3  A    between atoms: C_13  and  C_14 
REMARK       I    between atoms: C_14  and  N_15 
REMARK    4  A    between atoms: N_15  and  C_16 
REMARK    5  A    between atoms: C_16  and  C_17 
REMARK    6  A    between atoms: C_24  and  C_25 
ROOT
HETATM    1  C   UNL     1       4.755  28.331  47.769  1.00  0.00     0.118 C 
HETATM    2  N   UNL     1       5.205  27.456  48.859  1.00  0.00    -0.365 N 
HETATM    3  C   UNL     1       5.067  27.823  50.161  1.00  0.00     0.138 A 
HETATM    4  N   UNL     1       4.687  29.108  50.483  1.00  0.00    -0.240 N 
HETATM    5  N   UNL     1       4.556  29.320  51.800  1.00  0.00    -0.181 NA
HETATM    6  C   UNL     1       4.958  28.165  52.336  1.00  0.00     0.160 A 
HETATM    7  C   UNL     1       5.278  27.181  51.368  1.00  0.00     0.096 A 
HETATM    8  C   UNL     1       4.439  30.155  49.509  1.00  0.00     0.221 C 
HETATM    9  C   UNL     1       5.094  29.778  48.165  1.00  0.00     0.066 C 
HETATM   10  H   UNL     1       5.767  26.656  48.576  1.00  0.00     0.161 HD
ENDROOT
BRANCH   7  11
HETATM   11  C   UNL     1       5.718  25.831  51.658  1.00  0.00     0.257 C 
HETATM   12  N   UNL     1       7.078  25.673  51.774  1.00  0.00    -0.352 N 
HETATM   13  H   UNL     1       7.672  26.454  51.537  1.00  0.00     0.163 HD
HETATM   14  O   UNL     1       4.923  24.904  51.755  1.00  0.00    -0.267 OA
BRANCH  12  15
HETATM   15  C   UNL     1       7.682  24.389  52.036  1.00  0.00     0.161 C 
BRANCH  15  16
HETATM   16  C   UNL     1       7.660  24.017  53.499  1.00  0.00    -0.041 A 
HETATM   17  C   UNL     1       7.812  22.674  53.875  1.00  0.00     0.009 A 
HETATM   18  C   UNL     1       7.858  22.311  55.222  1.00  0.00     0.001 A 
HETATM   19  C   UNL     1       7.758  23.286  56.211  1.00  0.00     0.000 A 
HETATM   20  C   UNL     1       7.622  24.626  55.853  1.00  0.00     0.001 A 
HETATM   21  C   UNL     1       7.582  24.991  54.505  1.00  0.00     0.009 A 
ENDBRANCH  15  16
ENDBRANCH  12  15
ENDBRANCH   7  11
BRANCH   1  22
HETATM   22  C   UNL     1       3.293  28.078  47.407  1.00  0.00    -0.035 A 
HETATM   23  C   UNL     1       2.693  26.822  47.606  1.00  0.00     0.012 A 
HETATM   24  C   UNL     1       1.347  26.591  47.286  1.00  0.00     0.037 A 
HETATM   25  C   UNL     1       0.558  27.622  46.782  1.00  0.00     0.068 A 
HETATM   26  C   UNL     1       1.124  28.883  46.618  1.00  0.00     0.037 A 
HETATM   27  C   UNL     1       2.469  29.111  46.929  1.00  0.00     0.012 A 
BRANCH  25  28
HETATM   28  O   UNL     1      -0.760  27.531  46.433  1.00  0.00    -0.356 OA
HETATM   29  C   UNL     1      -1.390  28.725  45.986  1.00  0.00     0.210 C 
ENDBRANCH  25  28
ENDBRANCH   1  22
BRANCH   8  30
HETATM   30  C   UNL     1       4.968  31.501  49.958  1.00  0.00     0.409 C 
HETATM   31  F   UNL     1       4.221  32.051  50.943  1.00  0.00    -0.169 F 
HETATM   32  F   UNL     1       6.220  31.342  50.473  1.00  0.00    -0.169 F 
HETATM   33  F   UNL     1       5.091  32.399  48.960  1.00  0.00    -0.169 F 
ENDBRANCH   8  30
TORSDOF 6
ENDMDL
