MODEL 1
REMARK VINA RESULT:      -8.2      0.000      0.000
REMARK  6 active torsions:
REMARK  status: ('A' for Active; 'I' for Inactive)
REMARK    1  A    between atoms: O_2  and  C_3 
REMARK    2  A    between atoms: C_3  and  C_4 
REMARK    3  A    between atoms: C_4  and  N_5 
REMARK       I    between atoms: N_5  and  C_6 
REMARK    4  A    between atoms: C_6  and  C_7 
REMARK    5  A    between atoms: C_12  and  C_13 
REMARK    6  A    between atoms: C_20  and  C_21 
ROOT
HETATM    1  C   UNL     1       5.437  27.391  51.634  1.00  0.00     0.165 A 
HETATM    2  N   UNL     1       6.376  26.509  52.060  1.00  0.00    -0.163 NA
HETATM    3  N   UNL     1       6.028  26.248  53.332  1.00  0.00    -0.238 N 
HETATM    4  C   UNL     1       4.978  27.003  53.781  1.00  0.00     0.141 A 
HETATM    5  N   UNL     1       4.604  26.981  55.088  1.00  0.00    -0.365 N 
HETATM    6  C   UNL     1       5.513  26.438  56.098  1.00  0.00     0.118 C 
HETATM    7  C   UNL     1       6.130  25.148  55.534  1.00  0.00     0.066 C 
HETATM    8  C   UNL     1       6.842  25.400  54.188  1.00  0.00     0.221 C 
HETATM    9  C   UNL     1       4.540  27.704  52.686  1.00  0.00     0.092 A 
HETATM   10 BR   UNL     1       3.111  28.915  52.643  1.00  0.00    -0.044 Br
HETATM   11  H   UNL     1       3.960  27.694  55.432  1.00  0.00     0.162 HD
ENDROOT
BRANCH   1  12
HETATM   12  C   UNL     1       5.473  27.915  50.257  1.00  0.00     0.273 C 
HETATM   13  N   UNL     1       5.237  26.946  49.307  1.00  0.00    -0.353 N 
HETATM   14  H   UNL     1       4.913  26.047  49.662  1.00  0.00     0.162 HD
HETATM   15  O   UNL     1       5.700  29.086  49.976  1.00  0.00    -0.266 OA
BRANCH  13  16
HETATM   16  C   UNL     1       5.069  27.239  47.900  1.00  0.00     0.149 C 
BRANCH  16  17
HETATM   17  C   UNL     1       3.594  27.219  47.502  1.00  0.00     0.186 C 
BRANCH  17  18
HETATM   18  O   UNL     1       3.330  26.036  46.738  1.00  0.00    -0.394 OA
HETATM   19  C   UNL     1       2.928  24.957  47.569  1.00  0.00     0.201 C 
ENDBRANCH  17  18
ENDBRANCH  16  17
ENDBRANCH  13  16
ENDBRANCH   1  12
BRANCH   8  20
HETATM   20  C   UNL     1       7.152  24.073  53.528  1.00  0.00     0.409 C 
HETATM   21  F   UNL     1       6.167  23.670  52.695  1.00  0.00    -0.169 F 
HETATM   22  F   UNL     1       8.313  24.074  52.841  1.00  0.00    -0.169 F 
HETATM   23  F   UNL     1       7.275  23.108  54.479  1.00  0.00    -0.169 F 
ENDBRANCH   8  20
BRANCH   6  24
HETATM   24  C   UNL     1       6.554  27.440  56.587  1.00  0.00    -0.035 A 
HETATM   25  C   UNL     1       7.922  27.136  56.705  1.00  0.00     0.009 A 
HETATM   26  C   UNL     1       8.836  28.084  57.173  1.00  0.00     0.001 A 
HETATM   27  C   UNL     1       8.402  29.359  57.523  1.00  0.00     0.000 A 
HETATM   28  C   UNL     1       7.058  29.690  57.398  1.00  0.00     0.001 A 
HETATM   29  C   UNL     1       6.144  28.742  56.928  1.00  0.00     0.009 A 
ENDBRANCH   6  24
TORSDOF 6
ENDMDL
MODEL 2
REMARK VINA RESULT:      -7.8      1.587      2.265
REMARK  6 active torsions:
REMARK  status: ('A' for Active; 'I' for Inactive)
REMARK    1  A    between atoms: O_2  and  C_3 
REMARK    2  A    between atoms: C_3  and  C_4 
REMARK    3  A    between atoms: C_4  and  N_5 
REMARK       I    between atoms: N_5  and  C_6 
REMARK    4  A    between atoms: C_6  and  C_7 
REMARK    5  A    between atoms: C_12  and  C_13 
REMARK    6  A    between atoms: C_20  and  C_21 
ROOT
HETATM    1  C   UNL     1       5.780  28.232  53.083  1.00  0.00     0.165 A 
HETATM    2  N   UNL     1       6.682  27.280  53.434  1.00  0.00    -0.163 NA
HETATM    3  N   UNL     1       6.633  27.261  54.777  1.00  0.00    -0.238 N 
HETATM    4  C   UNL     1       5.826  28.230  55.312  1.00  0.00     0.141 A 
HETATM    5  N   UNL     1       5.788  28.452  56.653  1.00  0.00    -0.365 N 
HETATM    6  C   UNL     1       6.848  27.920  57.511  1.00  0.00     0.118 C 
HETATM    7  C   UNL     1       7.145  26.481  57.057  1.00  0.00     0.066 C 
HETATM    8  C   UNL     1       7.524  26.423  55.563  1.00  0.00     0.221 C 
HETATM    9  C   UNL     1       5.218  28.830  54.239  1.00  0.00     0.092 A 
HETATM   10 BR   UNL     1       3.980  30.234  54.307  1.00  0.00    -0.044 Br
HETATM   11  H   UNL     1       5.342  29.300  57.003  1.00  0.00     0.162 HD
ENDROOT
BRANCH   1  12
HETATM   12  C   UNL     1       5.536  28.543  51.663  1.00  0.00     0.273 C 
HETATM   13  N   UNL     1       4.835  27.554  51.009  1.00  0.00    -0.353 N 
HETATM   14  H   UNL     1       4.440  26.826  51.602  1.00  0.00     0.162 HD
HETATM   15  O   UNL     1       5.921  29.567  51.111  1.00  0.00    -0.266 OA
BRANCH  13  16
HETATM   16  C   UNL     1       4.342  27.694  49.656  1.00  0.00     0.149 C 
BRANCH  16  17
HETATM   17  C   UNL     1       4.485  26.387  48.876  1.00  0.00     0.186 C 
BRANCH  17  18
HETATM   18  O   UNL     1       4.728  26.688  47.497  1.00  0.00    -0.394 OA
HETATM   19  C   UNL     1       5.380  27.941  47.344  1.00  0.00     0.201 C 
ENDBRANCH  17  18
ENDBRANCH  16  17
ENDBRANCH  13  16
ENDBRANCH   1  12
BRANCH   8  20
HETATM   20  C   UNL     1       7.499  24.985  55.093  1.00  0.00     0.409 C 
HETATM   21  F   UNL     1       8.034  24.137  55.999  1.00  0.00    -0.169 F 
HETATM   22  F   UNL     1       6.263  24.544  54.779  1.00  0.00    -0.169 F 
HETATM   23  F   UNL     1       8.244  24.861  53.961  1.00  0.00    -0.169 F 
ENDBRANCH   8  20
BRANCH   6  24
HETATM   24  C   UNL     1       8.091  28.802  57.568  1.00  0.00    -0.035 A 
HETATM   25  C   UNL     1       9.280  28.505  56.879  1.00  0.00     0.009 A 
HETATM   26  C   UNL     1      10.399  29.337  56.976  1.00  0.00     0.001 A 
HETATM   27  C   UNL     1      10.349  30.488  57.755  1.00  0.00     0.000 A 
HETATM   28  C   UNL     1       9.178  30.814  58.431  1.00  0.00     0.001 A 
HETATM   29  C   UNL     1       8.059  29.982  58.333  1.00  0.00     0.009 A 
ENDBRANCH   6  24
TORSDOF 6
ENDMDL
MODEL 3
REMARK VINA RESULT:      -7.7      5.936      9.213
REMARK  6 active torsions:
REMARK  status: ('A' for Active; 'I' for Inactive)
REMARK    1  A    between atoms: O_2  and  C_3 
REMARK    2  A    between atoms: C_3  and  C_4 
REMARK    3  A    between atoms: C_4  and  N_5 
REMARK       I    between atoms: N_5  and  C_6 
REMARK    4  A    between atoms: C_6  and  C_7 
REMARK    5  A    between atoms: C_12  and  C_13 
REMARK    6  A    between atoms: C_20  and  C_21 
ROOT
HETATM    1  C   UNL     1       6.444  31.472  58.635  1.00  0.00     0.165 A 
HETATM    2  N   UNL     1       7.615  30.787  58.662  1.00  0.00    -0.163 NA
HETATM    3  N   UNL     1       7.682  30.204  57.453  1.00  0.00    -0.238 N 
HETATM    4  C   UNL     1       6.560  30.390  56.690  1.00  0.00     0.141 A 
HETATM    5  N   UNL     1       6.397  29.737  55.509  1.00  0.00    -0.365 N 
HETATM    6  C   UNL     1       7.229  28.574  55.197  1.00  0.00     0.118 C 
HETATM    7  C   UNL     1       8.672  28.901  55.613  1.00  0.00     0.066 C 
HETATM    8  C   UNL     1       8.760  29.294  57.101  1.00  0.00     0.221 C 
HETATM    9  C   UNL     1       5.772  31.255  57.406  1.00  0.00     0.092 A 
HETATM   10 BR   UNL     1       4.095  31.913  56.893  1.00  0.00    -0.044 Br
HETATM   11  H   UNL     1       5.478  29.736  55.065  1.00  0.00     0.162 HD
ENDROOT
BRANCH   1  12
HETATM   12  C   UNL     1       6.015  32.265  59.802  1.00  0.00     0.273 C 
HETATM   13  N   UNL     1       6.438  31.731  60.999  1.00  0.00    -0.353 N 
HETATM   14  H   UNL     1       7.111  30.970  60.931  1.00  0.00     0.162 HD
HETATM   15  O   UNL     1       5.345  33.289  59.725  1.00  0.00    -0.266 OA
BRANCH  13  16
HETATM   16  C   UNL     1       6.275  32.405  62.269  1.00  0.00     0.149 C 
BRANCH  16  17
HETATM   17  C   UNL     1       5.265  31.680  63.156  1.00  0.00     0.186 C 
BRANCH  17  18
HETATM   18  O   UNL     1       4.814  32.573  64.181  1.00  0.00    -0.394 OA
HETATM   19  C   UNL     1       5.867  33.403  64.650  1.00  0.00     0.201 C 
ENDBRANCH  17  18
ENDBRANCH  16  17
ENDBRANCH  13  16
ENDBRANCH   1  12
BRANCH   8  20
HETATM   20  C   UNL     1      10.118  29.902  57.382  1.00  0.00     0.409 C 
HETATM   21  F   UNL     1      10.280  31.100  56.777  1.00  0.00    -0.169 F 
HETATM   22  F   UNL     1      10.378  30.052  58.697  1.00  0.00    -0.169 F 
HETATM   23  F   UNL     1      11.092  29.087  56.894  1.00  0.00    -0.169 F 
ENDBRANCH   8  20
BRANCH   6  24
HETATM   24  C   UNL     1       6.709  27.271  55.797  1.00  0.00    -0.035 A 
HETATM   25  C   UNL     1       5.447  27.151  56.405  1.00  0.00     0.009 A 
HETATM   26  C   UNL     1       5.023  25.938  56.955  1.00  0.00     0.001 A 
HETATM   27  C   UNL     1       5.847  24.819  56.900  1.00  0.00     0.000 A 
HETATM   28  C   UNL     1       7.092  24.908  56.288  1.00  0.00     0.001 A 
HETATM   29  C   UNL     1       7.517  26.120  55.737  1.00  0.00     0.009 A 
ENDBRANCH   6  24
TORSDOF 6
ENDMDL
MODEL 4
REMARK VINA RESULT:      -7.6      9.964     12.986
REMARK  6 active torsions:
REMARK  status: ('A' for Active; 'I' for Inactive)
REMARK    1  A    between atoms: O_2  and  C_3 
REMARK    2  A    between atoms: C_3  and  C_4 
REMARK    3  A    between atoms: C_4  and  N_5 
REMARK       I    between atoms: N_5  and  C_6 
REMARK    4  A    between atoms: C_6  and  C_7 
REMARK    5  A    between atoms: C_12  and  C_13 
REMARK    6  A    between atoms: C_20  and  C_21 
ROOT
HETATM    1  C   UNL     1       5.666  33.557  61.120  1.00  0.00     0.165 A 
HETATM    2  N   UNL     1       6.252  33.671  62.339  1.00  0.00    -0.163 NA
HETATM    3  N   UNL     1       5.553  34.643  62.950  1.00  0.00    -0.238 N 
HETATM    4  C   UNL     1       4.618  35.237  62.145  1.00  0.00     0.141 A 
HETATM    5  N   UNL     1       3.937  36.340  62.554  1.00  0.00    -0.365 N 
HETATM    6  C   UNL     1       4.426  37.119  63.693  1.00  0.00     0.118 C 
HETATM    7  C   UNL     1       4.863  36.131  64.787  1.00  0.00     0.066 C 
HETATM    8  C   UNL     1       5.921  35.137  64.267  1.00  0.00     0.221 C 
HETATM    9  C   UNL     1       4.629  34.514  60.980  1.00  0.00     0.092 A 
HETATM   10 BR   UNL     1       3.559  34.821  59.473  1.00  0.00    -0.044 Br
HETATM   11  H   UNL     1       3.402  36.876  61.870  1.00  0.00     0.162 HD
ENDROOT
BRANCH   1  12
HETATM   12  C   UNL     1       6.156  32.567  60.145  1.00  0.00     0.273 C 
HETATM   13  N   UNL     1       7.528  32.447  60.144  1.00  0.00    -0.353 N 
HETATM   14  H   UNL     1       8.014  32.919  60.904  1.00  0.00     0.162 HD
HETATM   15  O   UNL     1       5.426  31.920  59.401  1.00  0.00    -0.266 OA
BRANCH  13  16
HETATM   16  C   UNL     1       8.234  31.436  59.388  1.00  0.00     0.149 C 
BRANCH  16  17
HETATM   17  C   UNL     1       9.748  31.612  59.506  1.00  0.00     0.186 C 
BRANCH  17  18
HETATM   18  O   UNL     1      10.277  31.986  58.229  1.00  0.00    -0.394 OA
HETATM   19  C   UNL     1      10.671  30.849  57.473  1.00  0.00     0.201 C 
ENDBRANCH  17  18
ENDBRANCH  16  17
ENDBRANCH  13  16
ENDBRANCH   1  12
BRANCH   8  20
HETATM   20  C   UNL     1       6.085  34.009  65.262  1.00  0.00     0.409 C 
HETATM   21  F   UNL     1       5.085  33.102  65.181  1.00  0.00    -0.169 F 
HETATM   22  F   UNL     1       7.259  33.356  65.147  1.00  0.00    -0.169 F 
HETATM   23  F   UNL     1       6.052  34.508  66.528  1.00  0.00    -0.169 F 
ENDBRANCH   8  20
BRANCH   6  24
HETATM   24  C   UNL     1       5.510  38.128  63.326  1.00  0.00    -0.035 A 
HETATM   25  C   UNL     1       6.074  39.025  64.250  1.00  0.00     0.009 A 
HETATM   26  C   UNL     1       7.054  39.942  63.861  1.00  0.00     0.001 A 
HETATM   27  C   UNL     1       7.496  39.976  62.542  1.00  0.00     0.000 A 
HETATM   28  C   UNL     1       6.967  39.086  61.614  1.00  0.00     0.001 A 
HETATM   29  C   UNL     1       5.987  38.168  62.003  1.00  0.00     0.009 A 
ENDBRANCH   6  24
TORSDOF 6
ENDMDL
MODEL 5
REMARK VINA RESULT:      -7.3     10.128     13.084
REMARK  6 active torsions:
REMARK  status: ('A' for Active; 'I' for Inactive)
REMARK    1  A    between atoms: O_2  and  C_3 
REMARK    2  A    between atoms: C_3  and  C_4 
REMARK    3  A    between atoms: C_4  and  N_5 
REMARK       I    between atoms: N_5  and  C_6 
REMARK    4  A    between atoms: C_6  and  C_7 
REMARK    5  A    between atoms: C_12  and  C_13 
REMARK    6  A    between atoms: C_20  and  C_21 
ROOT
HETATM    1  C   UNL     1       6.702  32.995  62.096  1.00  0.00     0.165 A 
HETATM    2  N   UNL     1       6.886  33.459  63.358  1.00  0.00    -0.163 NA
HETATM    3  N   UNL     1       5.928  34.389  63.509  1.00  0.00    -0.238 N 
HETATM    4  C   UNL     1       5.206  34.626  62.369  1.00  0.00     0.141 A 
HETATM    5  N   UNL     1       4.309  35.644  62.303  1.00  0.00    -0.365 N 
HETATM    6  C   UNL     1       4.346  36.714  63.302  1.00  0.00     0.118 C 
HETATM    7  C   UNL     1       4.557  36.066  64.680  1.00  0.00     0.066 C 
HETATM    8  C   UNL     1       5.832  35.200  64.712  1.00  0.00     0.221 C 
HETATM    9  C   UNL     1       5.646  33.696  61.461  1.00  0.00     0.092 A 
HETATM   10 BR   UNL     1       5.037  33.488  59.702  1.00  0.00    -0.044 Br
HETATM   11  H   UNL     1       3.939  35.922  61.394  1.00  0.00     0.162 HD
ENDROOT
BRANCH   1  12
HETATM   12  C   UNL     1       7.571  31.934  61.555  1.00  0.00     0.273 C 
HETATM   13  N   UNL     1       8.237  32.316  60.411  1.00  0.00    -0.353 N 
HETATM   14  H   UNL     1       8.179  33.305  60.175  1.00  0.00     0.162 HD
HETATM   15  O   UNL     1       7.689  30.822  62.058  1.00  0.00    -0.266 OA
BRANCH  13  16
HETATM   16  C   UNL     1       9.260  31.509  59.783  1.00  0.00     0.149 C 
BRANCH  16  17
HETATM   17  C   UNL     1       8.703  30.743  58.584  1.00  0.00     0.186 C 
BRANCH  17  18
HETATM   18  O   UNL     1       8.323  29.428  59.003  1.00  0.00    -0.394 OA
HETATM   19  C   UNL     1       7.791  28.669  57.925  1.00  0.00     0.201 C 
ENDBRANCH  17  18
ENDBRANCH  16  17
ENDBRANCH  13  16
ENDBRANCH   1  12
BRANCH   8  20
HETATM   20  C   UNL     1       5.829  34.346  65.962  1.00  0.00     0.409 C 
HETATM   21  F   UNL     1       7.048  33.826  66.233  1.00  0.00    -0.169 F 
HETATM   22  F   UNL     1       5.395  35.000  67.059  1.00  0.00    -0.169 F 
HETATM   23  F   UNL     1       4.987  33.291  65.792  1.00  0.00    -0.169 F 
ENDBRANCH   8  20
BRANCH   6  24
HETATM   24  C   UNL     1       5.361  37.809  62.990  1.00  0.00    -0.035 A 
HETATM   25  C   UNL     1       5.872  38.042  61.701  1.00  0.00     0.009 A 
HETATM   26  C   UNL     1       6.813  39.049  61.468  1.00  0.00     0.001 A 
HETATM   27  C   UNL     1       7.255  39.849  62.516  1.00  0.00     0.000 A 
HETATM   28  C   UNL     1       6.751  39.650  63.797  1.00  0.00     0.001 A 
HETATM   29  C   UNL     1       5.809  38.644  64.030  1.00  0.00     0.009 A 
ENDBRANCH   6  24
TORSDOF 6
ENDMDL
MODEL 6
REMARK VINA RESULT:      -7.2      8.724     11.503
REMARK  6 active torsions:
REMARK  status: ('A' for Active; 'I' for Inactive)
REMARK    1  A    between atoms: O_2  and  C_3 
REMARK    2  A    between atoms: C_3  and  C_4 
REMARK    3  A    between atoms: C_4  and  N_5 
REMARK       I    between atoms: N_5  and  C_6 
REMARK    4  A    between atoms: C_6  and  C_7 
REMARK    5  A    between atoms: C_12  and  C_13 
REMARK    6  A    between atoms: C_20  and  C_21 
ROOT
HETATM    1  C   UNL     1       7.030  32.518  60.307  1.00  0.00     0.165 A 
HETATM    2  N   UNL     1       7.413  33.009  61.513  1.00  0.00    -0.163 NA
HETATM    3  N   UNL     1       6.309  33.607  61.991  1.00  0.00    -0.238 N 
HETATM    4  C   UNL     1       5.265  33.624  61.104  1.00  0.00     0.141 A 
HETATM    5  N   UNL     1       4.131  34.327  61.365  1.00  0.00    -0.365 N 
HETATM    6  C   UNL     1       4.134  35.352  62.410  1.00  0.00     0.118 C 
HETATM    7  C   UNL     1       4.892  34.789  63.623  1.00  0.00     0.066 C 
HETATM    8  C   UNL     1       6.320  34.344  63.244  1.00  0.00     0.221 C 
HETATM    9  C   UNL     1       5.685  32.874  60.034  1.00  0.00     0.092 A 
HETATM   10 BR   UNL     1       4.701  32.505  58.484  1.00  0.00    -0.044 Br
HETATM   11  H   UNL     1       3.462  34.487  60.612  1.00  0.00     0.162 HD
ENDROOT
BRANCH   1  12
HETATM   12  C   UNL     1       7.982  31.771  59.467  1.00  0.00     0.273 C 
HETATM   13  N   UNL     1       7.630  30.450  59.298  1.00  0.00    -0.353 N 
HETATM   14  H   UNL     1       6.699  30.195  59.627  1.00  0.00     0.162 HD
HETATM   15  O   UNL     1       8.991  32.263  58.972  1.00  0.00    -0.266 OA
BRANCH  13  16
HETATM   16  C   UNL     1       8.318  29.554  58.395  1.00  0.00     0.149 C 
BRANCH  16  17
HETATM   17  C   UNL     1       7.369  28.497  57.833  1.00  0.00     0.186 C 
BRANCH  17  18
HETATM   18  O   UNL     1       7.881  27.195  58.142  1.00  0.00    -0.394 OA
HETATM   19  C   UNL     1       7.322  26.200  57.296  1.00  0.00     0.201 C 
ENDBRANCH  17  18
ENDBRANCH  16  17
ENDBRANCH  13  16
ENDBRANCH   1  12
BRANCH   8  20
HETATM   20  C   UNL     1       6.906  33.521  64.371  1.00  0.00     0.409 C 
HETATM   21  F   UNL     1       6.595  32.210  64.267  1.00  0.00    -0.169 F 
HETATM   22  F   UNL     1       8.247  33.631  64.475  1.00  0.00    -0.169 F 
HETATM   23  F   UNL     1       6.398  33.947  65.559  1.00  0.00    -0.169 F 
ENDBRANCH   8  20
BRANCH   6  24
HETATM   24  C   UNL     1       4.665  36.703  61.942  1.00  0.00    -0.035 A 
HETATM   25  C   UNL     1       4.564  37.154  60.614  1.00  0.00     0.009 A 
HETATM   26  C   UNL     1       5.081  38.394  60.230  1.00  0.00     0.001 A 
HETATM   27  C   UNL     1       5.700  39.214  61.168  1.00  0.00     0.000 A 
HETATM   28  C   UNL     1       5.796  38.799  62.491  1.00  0.00     0.001 A 
HETATM   29  C   UNL     1       5.278  37.559  62.876  1.00  0.00     0.009 A 
ENDBRANCH   6  24
TORSDOF 6
ENDMDL
MODEL 7
REMARK VINA RESULT:      -7.1      3.559      4.698
REMARK  6 active torsions:
REMARK  status: ('A' for Active; 'I' for Inactive)
REMARK    1  A    between atoms: O_2  and  C_3 
REMARK    2  A    between atoms: C_3  and  C_4 
REMARK    3  A    between atoms: C_4  and  N_5 
REMARK       I    between atoms: N_5  and  C_6 
REMARK    4  A    between atoms: C_6  and  C_7 
REMARK    5  A    between atoms: C_12  and  C_13 
REMARK    6  A    between atoms: C_20  and  C_21 
ROOT
HETATM    1  C   UNL     1       4.804  29.418  54.351  1.00  0.00     0.165 A 
HETATM    2  N   UNL     1       5.830  28.583  54.049  1.00  0.00    -0.163 NA
HETATM    3  N   UNL     1       6.263  28.148  55.244  1.00  0.00    -0.238 N 
HETATM    4  C   UNL     1       5.639  28.746  56.307  1.00  0.00     0.141 A 
HETATM    5  N   UNL     1       6.066  28.539  57.580  1.00  0.00    -0.365 N 
HETATM    6  C   UNL     1       7.393  27.971  57.822  1.00  0.00     0.118 C 
HETATM    7  C   UNL     1       7.601  26.818  56.828  1.00  0.00     0.066 C 
HETATM    8  C   UNL     1       7.428  27.286  55.369  1.00  0.00     0.221 C 
HETATM    9  C   UNL     1       4.652  29.524  55.757  1.00  0.00     0.092 A 
HETATM   10 BR   UNL     1       3.432  30.594  56.693  1.00  0.00    -0.044 Br
HETATM   11  H   UNL     1       5.719  29.145  58.324  1.00  0.00     0.162 HD
ENDROOT
BRANCH   1  12
HETATM   12  C   UNL     1       4.052  30.096  53.281  1.00  0.00     0.273 C 
HETATM   13  N   UNL     1       4.466  31.393  53.071  1.00  0.00    -0.353 N 
HETATM   14  H   UNL     1       5.322  31.667  53.551  1.00  0.00     0.162 HD
HETATM   15  O   UNL     1       3.144  29.573  52.644  1.00  0.00    -0.266 OA
BRANCH  13  16
HETATM   16  C   UNL     1       3.990  32.211  51.978  1.00  0.00     0.149 C 
BRANCH  16  17
HETATM   17  C   UNL     1       4.024  33.695  52.340  1.00  0.00     0.186 C 
BRANCH  17  18
HETATM   18  O   UNL     1       5.147  33.945  53.192  1.00  0.00    -0.394 OA
HETATM   19  C   UNL     1       6.191  34.613  52.498  1.00  0.00     0.201 C 
ENDBRANCH  17  18
ENDBRANCH  16  17
ENDBRANCH  13  16
ENDBRANCH   1  12
BRANCH   8  20
HETATM   20  C   UNL     1       7.329  26.079  54.460  1.00  0.00     0.409 C 
HETATM   21  F   UNL     1       6.059  25.633  54.333  1.00  0.00    -0.169 F 
HETATM   22  F   UNL     1       7.828  26.292  53.226  1.00  0.00    -0.169 F 
HETATM   23  F   UNL     1       8.048  25.051  54.988  1.00  0.00    -0.169 F 
ENDBRANCH   8  20
BRANCH   6  24
HETATM   24  C   UNL     1       8.516  29.003  57.790  1.00  0.00    -0.035 A 
HETATM   25  C   UNL     1       8.496  30.189  58.546  1.00  0.00     0.009 A 
HETATM   26  C   UNL     1       9.542  31.112  58.471  1.00  0.00     0.001 A 
HETATM   27  C   UNL     1      10.635  30.864  57.646  1.00  0.00     0.000 A 
HETATM   28  C   UNL     1      10.687  29.690  56.903  1.00  0.00     0.001 A 
HETATM   29  C   UNL     1       9.641  28.766  56.979  1.00  0.00     0.009 A 
ENDBRANCH   6  24
TORSDOF 6
ENDMDL
MODEL 8
REMARK VINA RESULT:      -7.0      9.481     12.104
REMARK  6 active torsions:
REMARK  status: ('A' for Active; 'I' for Inactive)
REMARK    1  A    between atoms: O_2  and  C_3 
REMARK    2  A    between atoms: C_3  and  C_4 
REMARK    3  A    between atoms: C_4  and  N_5 
REMARK       I    between atoms: N_5  and  C_6 
REMARK    4  A    between atoms: C_6  and  C_7 
REMARK    5  A    between atoms: C_12  and  C_13 
REMARK    6  A    between atoms: C_20  and  C_21 
ROOT
HETATM    1  C   UNL     1       5.749  33.348  60.665  1.00  0.00     0.165 A 
HETATM    2  N   UNL     1       6.491  33.449  61.796  1.00  0.00    -0.163 NA
HETATM    3  N   UNL     1       5.823  34.340  62.549  1.00  0.00    -0.238 N 
HETATM    4  C   UNL     1       4.748  34.900  61.913  1.00  0.00     0.141 A 
HETATM    5  N   UNL     1       4.061  35.932  62.470  1.00  0.00    -0.365 N 
HETATM    6  C   UNL     1       4.653  36.693  63.572  1.00  0.00     0.118 C 
HETATM    7  C   UNL     1       5.302  35.692  64.541  1.00  0.00     0.066 C 
HETATM    8  C   UNL     1       6.340  34.801  63.827  1.00  0.00     0.221 C 
HETATM    9  C   UNL     1       4.643  34.232  60.719  1.00  0.00     0.092 A 
HETATM   10 BR   UNL     1       3.354  34.528  59.392  1.00  0.00    -0.044 Br
HETATM   11  H   UNL     1       3.401  36.458  61.895  1.00  0.00     0.162 HD
ENDROOT
BRANCH   1  12
HETATM   12  C   UNL     1       6.161  32.440  59.579  1.00  0.00     0.273 C 
HETATM   13  N   UNL     1       5.135  31.635  59.133  1.00  0.00    -0.353 N 
HETATM   14  H   UNL     1       4.207  31.869  59.481  1.00  0.00     0.162 HD
HETATM   15  O   UNL     1       7.297  32.391  59.121  1.00  0.00    -0.266 OA
BRANCH  13  16
HETATM   16  C   UNL     1       5.250  30.773  57.978  1.00  0.00     0.149 C 
BRANCH  16  17
HETATM   17  C   UNL     1       4.964  31.537  56.686  1.00  0.00     0.186 C 
BRANCH  17  18
HETATM   18  O   UNL     1       3.619  32.029  56.719  1.00  0.00    -0.394 OA
HETATM   19  C   UNL     1       2.765  31.270  55.874  1.00  0.00     0.201 C 
ENDBRANCH  17  18
ENDBRANCH  16  17
ENDBRANCH  13  16
ENDBRANCH   1  12
BRANCH   8  20
HETATM   20  C   UNL     1       6.715  33.644  64.729  1.00  0.00     0.409 C 
HETATM   21  F   UNL     1       5.773  32.674  64.740  1.00  0.00    -0.169 F 
HETATM   22  F   UNL     1       7.899  33.080  64.415  1.00  0.00    -0.169 F 
HETATM   23  F   UNL     1       6.833  34.084  66.011  1.00  0.00    -0.169 F 
ENDBRANCH   8  20
BRANCH   6  24
HETATM   24  C   UNL     1       5.606  37.793  63.114  1.00  0.00    -0.035 A 
HETATM   25  C   UNL     1       6.049  37.926  61.787  1.00  0.00     0.009 A 
HETATM   26  C   UNL     1       6.936  38.942  61.419  1.00  0.00     0.001 A 
HETATM   27  C   UNL     1       7.389  39.852  62.370  1.00  0.00     0.000 A 
HETATM   28  C   UNL     1       6.951  39.752  63.685  1.00  0.00     0.001 A 
HETATM   29  C   UNL     1       6.063  38.736  64.052  1.00  0.00     0.009 A 
ENDBRANCH   6  24
TORSDOF 6
ENDMDL
MODEL 9
REMARK VINA RESULT:      -6.7      2.274      2.985
REMARK  6 active torsions:
REMARK  status: ('A' for Active; 'I' for Inactive)
REMARK    1  A    between atoms: O_2  and  C_3 
REMARK    2  A    between atoms: C_3  and  C_4 
REMARK    3  A    between atoms: C_4  and  N_5 
REMARK       I    between atoms: N_5  and  C_6 
REMARK    4  A    between atoms: C_6  and  C_7 
REMARK    5  A    between atoms: C_12  and  C_13 
REMARK    6  A    between atoms: C_20  and  C_21 
ROOT
HETATM    1  C   UNL     1       5.143  28.858  51.509  1.00  0.00     0.165 A 
HETATM    2  N   UNL     1       5.885  27.730  51.641  1.00  0.00    -0.163 NA
HETATM    3  N   UNL     1       5.546  27.252  52.850  1.00  0.00    -0.238 N 
HETATM    4  C   UNL     1       4.706  28.076  53.551  1.00  0.00     0.141 A 
HETATM    5  N   UNL     1       4.394  27.823  54.849  1.00  0.00    -0.365 N 
HETATM    6  C   UNL     1       5.208  26.885  55.625  1.00  0.00     0.118 C 
HETATM    7  C   UNL     1       5.504  25.668  54.735  1.00  0.00     0.066 C 
HETATM    8  C   UNL     1       6.193  26.080  53.418  1.00  0.00     0.221 C 
HETATM    9  C   UNL     1       4.383  29.089  52.683  1.00  0.00     0.092 A 
HETATM   10 BR   UNL     1       3.252  30.538  53.041  1.00  0.00    -0.044 Br
HETATM   11  H   UNL     1       3.937  28.549  55.401  1.00  0.00     0.162 HD
ENDROOT
BRANCH   1  12
HETATM   12  C   UNL     1       5.232  29.673  50.284  1.00  0.00     0.273 C 
HETATM   13  N   UNL     1       5.828  30.897  50.494  1.00  0.00    -0.353 N 
HETATM   14  H   UNL     1       6.270  31.023  51.403  1.00  0.00     0.162 HD
HETATM   15  O   UNL     1       4.813  29.312  49.190  1.00  0.00    -0.266 OA
BRANCH  13  16
HETATM   16  C   UNL     1       6.168  31.808  49.423  1.00  0.00     0.149 C 
BRANCH  16  17
HETATM   17  C   UNL     1       5.151  32.944  49.318  1.00  0.00     0.186 C 
BRANCH  17  18
HETATM   18  O   UNL     1       4.206  32.635  48.288  1.00  0.00    -0.394 OA
HETATM   19  C   UNL     1       2.918  32.368  48.824  1.00  0.00     0.201 C 
ENDBRANCH  17  18
ENDBRANCH  16  17
ENDBRANCH  13  16
ENDBRANCH   1  12
BRANCH   8  20
HETATM   20  C   UNL     1       6.178  24.912  52.455  1.00  0.00     0.409 C 
HETATM   21  F   UNL     1       4.975  24.753  51.858  1.00  0.00    -0.169 F 
HETATM   22  F   UNL     1       7.120  24.997  51.494  1.00  0.00    -0.169 F 
HETATM   23  F   UNL     1       6.430  23.760  53.132  1.00  0.00    -0.169 F 
ENDBRANCH   8  20
BRANCH   6  24
HETATM   24  C   UNL     1       6.462  27.513  56.224  1.00  0.00    -0.035 A 
HETATM   25  C   UNL     1       6.655  28.902  56.329  1.00  0.00     0.009 A 
HETATM   26  C   UNL     1       7.830  29.430  56.871  1.00  0.00     0.001 A 
HETATM   27  C   UNL     1       8.832  28.580  57.328  1.00  0.00     0.000 A 
HETATM   28  C   UNL     1       8.658  27.203  57.252  1.00  0.00     0.001 A 
HETATM   29  C   UNL     1       7.482  26.675  56.711  1.00  0.00     0.009 A 
ENDBRANCH   6  24
TORSDOF 6
ENDMDL
MODEL 10
REMARK VINA RESULT:      -6.6      2.419      3.159
REMARK  6 active torsions:
REMARK  status: ('A' for Active; 'I' for Inactive)
REMARK    1  A    between atoms: O_2  and  C_3 
REMARK    2  A    between atoms: C_3  and  C_4 
REMARK    3  A    between atoms: C_4  and  N_5 
REMARK       I    between atoms: N_5  and  C_6 
REMARK    4  A    between atoms: C_6  and  C_7 
REMARK    5  A    between atoms: C_12  and  C_13 
REMARK    6  A    between atoms: C_20  and  C_21 
ROOT
HETATM    1  C   UNL     1       4.165  29.847  53.255  1.00  0.00     0.165 A 
HETATM    2  N   UNL     1       4.940  28.740  53.130  1.00  0.00    -0.163 NA
HETATM    3  N   UNL     1       4.982  28.226  54.371  1.00  0.00    -0.238 N 
HETATM    4  C   UNL     1       4.364  29.008  55.311  1.00  0.00     0.141 A 
HETATM    5  N   UNL     1       4.451  28.716  56.635  1.00  0.00    -0.365 N 
HETATM    6  C   UNL     1       5.479  27.789  57.112  1.00  0.00     0.118 C 
HETATM    7  C   UNL     1       5.531  26.601  56.138  1.00  0.00     0.066 C 
HETATM    8  C   UNL     1       5.794  27.063  54.690  1.00  0.00     0.221 C 
HETATM    9  C   UNL     1       3.777  30.028  54.606  1.00  0.00     0.092 A 
HETATM   10 BR   UNL     1       2.765  31.433  55.322  1.00  0.00    -0.044 Br
HETATM   11  H   UNL     1       4.158  29.416  57.318  1.00  0.00     0.162 HD
ENDROOT
BRANCH   1  12
HETATM   12  C   UNL     1       3.872  30.690  52.082  1.00  0.00     0.273 C 
HETATM   13  N   UNL     1       5.002  31.239  51.517  1.00  0.00    -0.353 N 
HETATM   14  H   UNL     1       5.889  30.878  51.865  1.00  0.00     0.162 HD
HETATM   15  O   UNL     1       2.742  30.896  51.652  1.00  0.00    -0.266 OA
BRANCH  13  16
HETATM   16  C   UNL     1       4.990  31.974  50.272  1.00  0.00     0.149 C 
BRANCH  16  17
HETATM   17  C   UNL     1       5.637  31.169  49.146  1.00  0.00     0.186 C 
BRANCH  17  18
HETATM   18  O   UNL     1       4.848  30.002  48.889  1.00  0.00    -0.394 OA
HETATM   19  C   UNL     1       5.638  28.822  48.917  1.00  0.00     0.201 C 
ENDBRANCH  17  18
ENDBRANCH  16  17
ENDBRANCH  13  16
ENDBRANCH   1  12
BRANCH   8  20
HETATM   20  C   UNL     1       5.526  25.917  53.739  1.00  0.00     0.409 C 
HETATM   21  F   UNL     1       5.757  24.712  54.308  1.00  0.00    -0.169 F 
HETATM   22  F   UNL     1       4.275  25.916  53.237  1.00  0.00    -0.169 F 
HETATM   23  F   UNL     1       6.363  26.006  52.670  1.00  0.00    -0.169 F 
ENDBRANCH   8  20
BRANCH   6  24
HETATM   24  C   UNL     1       6.838  28.444  57.337  1.00  0.00    -0.035 A 
HETATM   25  C   UNL     1       8.055  27.838  56.978  1.00  0.00     0.009 A 
HETATM   26  C   UNL     1       9.277  28.471  57.219  1.00  0.00     0.001 A 
HETATM   27  C   UNL     1       9.307  29.728  57.815  1.00  0.00     0.000 A 
HETATM   28  C   UNL     1       8.116  30.357  58.161  1.00  0.00     0.001 A 
HETATM   29  C   UNL     1       6.894  29.723  57.919  1.00  0.00     0.009 A 
ENDBRANCH   6  24
TORSDOF 6
ENDMDL
