MODEL 1
REMARK VINA RESULT:      -7.9      0.000      0.000
REMARK  3 active torsions:
REMARK  status: ('A' for Active; 'I' for Inactive)
REMARK    1  A    between atoms: O_2  and  C_3 
REMARK    2  A    between atoms: C_4  and  C_5 
REMARK    3  A    between atoms: C_16  and  N_17 
ROOT
HETATM    1  C   UNL     1       6.075  27.792  55.474  1.00  0.00     0.246 A 
HETATM    2  N   UNL     1       6.762  26.688  54.841  1.00  0.00    -0.151 N 
HETATM    3  C   UNL     1       6.914  26.642  53.478  1.00  0.00     0.734 A 
HETATM    4  N   UNL     1       7.547  25.538  53.145  1.00  0.00    -0.060 NA
HETATM    5  C   UNL     1       7.769  24.849  54.311  1.00  0.00     0.103 A 
HETATM    6  C   UNL     1       7.268  25.548  55.404  1.00  0.00     0.083 A 
HETATM    7  C   UNL     1       8.392  23.609  54.513  1.00  0.00     0.034 A 
HETATM    8  C   UNL     1       8.489  23.111  55.817  1.00  0.00     0.002 A 
HETATM    9  C   UNL     1       7.975  23.831  56.898  1.00  0.00     0.002 A 
HETATM   10  C   UNL     1       7.350  25.071  56.718  1.00  0.00     0.033 A 
HETATM   11  N   UNL     1       6.452  27.610  52.656  1.00  0.00    -0.033 NA
HETATM   12  C   UNL     1       5.764  28.573  53.156  1.00  0.00     0.193 A 
HETATM   13  N   UNL     1       5.483  28.723  54.516  1.00  0.00    -0.338 N 
HETATM   14  H   UNL     1       4.995  29.529  54.875  1.00  0.00     0.164 HD
ENDROOT
BRANCH   1  15
HETATM   15  C   UNL     1       6.954  28.615  56.405  1.00  0.00     0.020 A 
HETATM   16  C   UNL     1       6.345  29.349  57.447  1.00  0.00     0.078 A 
HETATM   17  C   UNL     1       7.122  30.144  58.296  1.00  0.00     0.039 A 
HETATM   18  C   UNL     1       8.506  30.211  58.127  1.00  0.00     0.022 A 
HETATM   19  C   UNL     1       9.113  29.499  57.100  1.00  0.00     0.011 A 
HETATM   20  C   UNL     1       8.349  28.719  56.233  1.00  0.00     0.033 A 
HETATM   21 BR   UNL     1      10.986  29.597  56.869  1.00  0.00    -0.051 Br
BRANCH  16  22
HETATM   22  O   UNL     1       4.978  29.256  57.515  1.00  0.00    -0.355 OA
HETATM   23  C   UNL     1       4.263  30.469  57.743  1.00  0.00     0.210 C 
ENDBRANCH  16  22
ENDBRANCH   1  15
BRANCH  12  24
HETATM   24  N   UNL     1       5.240  29.565  52.406  1.00  0.00    -0.272 NA
HETATM   25  H   UNL     1       5.469  29.437  51.423  1.00  0.00     0.127 HD
HETATM   26  H   UNL     1       4.253  29.748  52.530  1.00  0.00     0.127 HD
ENDBRANCH  12  24
TORSDOF 3
ENDMDL
MODEL 2
REMARK VINA RESULT:      -7.8      3.101      5.706
REMARK  3 active torsions:
REMARK  status: ('A' for Active; 'I' for Inactive)
REMARK    1  A    between atoms: O_2  and  C_3 
REMARK    2  A    between atoms: C_4  and  C_5 
REMARK    3  A    between atoms: C_16  and  N_17 
ROOT
HETATM    1  C   UNL     1       6.259  26.673  55.080  1.00  0.00     0.246 A 
HETATM    2  N   UNL     1       7.151  27.262  56.054  1.00  0.00    -0.151 N 
HETATM    3  C   UNL     1       6.958  27.063  57.397  1.00  0.00     0.734 A 
HETATM    4  N   UNL     1       7.878  27.715  58.075  1.00  0.00    -0.060 NA
HETATM    5  C   UNL     1       8.649  28.372  57.150  1.00  0.00     0.103 A 
HETATM    6  C   UNL     1       8.202  28.117  55.858  1.00  0.00     0.083 A 
HETATM    7  C   UNL     1       9.752  29.216  57.343  1.00  0.00     0.034 A 
HETATM    8  C   UNL     1      10.372  29.779  56.221  1.00  0.00     0.002 A 
HETATM    9  C   UNL     1       9.902  29.509  54.934  1.00  0.00     0.002 A 
HETATM   10  C   UNL     1       8.802  28.669  54.720  1.00  0.00     0.033 A 
HETATM   11  N   UNL     1       5.948  26.309  57.888  1.00  0.00    -0.033 NA
HETATM   12  C   UNL     1       5.080  25.828  57.074  1.00  0.00     0.193 A 
HETATM   13  N   UNL     1       5.117  25.994  55.687  1.00  0.00    -0.338 N 
HETATM   14  H   UNL     1       4.452  25.544  55.077  1.00  0.00     0.164 HD
ENDROOT
BRANCH   1  15
HETATM   15  C   UNL     1       6.931  25.669  54.154  1.00  0.00     0.020 A 
HETATM   16  C   UNL     1       6.973  25.940  52.769  1.00  0.00     0.078 A 
HETATM   17  C   UNL     1       7.550  25.019  51.888  1.00  0.00     0.039 A 
HETATM   18  C   UNL     1       8.098  23.830  52.372  1.00  0.00     0.022 A 
HETATM   19  C   UNL     1       8.054  23.551  53.732  1.00  0.00     0.011 A 
HETATM   20  C   UNL     1       7.463  24.450  54.620  1.00  0.00     0.033 A 
HETATM   21 BR   UNL     1       8.791  21.937  54.384  1.00  0.00    -0.051 Br
BRANCH  16  22
HETATM   22  O   UNL     1       6.377  27.112  52.377  1.00  0.00    -0.355 OA
HETATM   23  C   UNL     1       5.342  27.010  51.399  1.00  0.00     0.210 C 
ENDBRANCH  16  22
ENDBRANCH   1  15
BRANCH  12  24
HETATM   24  N   UNL     1       4.025  25.090  57.479  1.00  0.00    -0.272 NA
HETATM   25  H   UNL     1       3.189  25.665  57.556  1.00  0.00     0.127 HD
HETATM   26  H   UNL     1       3.840  24.245  56.955  1.00  0.00     0.127 HD
ENDBRANCH  12  24
TORSDOF 3
ENDMDL
MODEL 3
REMARK VINA RESULT:      -7.7      2.482      5.393
REMARK  3 active torsions:
REMARK  status: ('A' for Active; 'I' for Inactive)
REMARK    1  A    between atoms: O_2  and  C_3 
REMARK    2  A    between atoms: C_4  and  C_5 
REMARK    3  A    between atoms: C_16  and  N_17 
ROOT
HETATM    1  C   UNL     1       6.638  28.442  55.185  1.00  0.00     0.246 A 
HETATM    2  N   UNL     1       7.226  29.042  56.362  1.00  0.00    -0.151 N 
HETATM    3  C   UNL     1       6.448  29.410  57.429  1.00  0.00     0.734 A 
HETATM    4  N   UNL     1       7.205  29.950  58.360  1.00  0.00    -0.060 NA
HETATM    5  C   UNL     1       8.484  29.961  57.862  1.00  0.00     0.103 A 
HETATM    6  C   UNL     1       8.527  29.405  56.587  1.00  0.00     0.083 A 
HETATM    7  C   UNL     1       9.666  30.439  58.445  1.00  0.00     0.034 A 
HETATM    8  C   UNL     1      10.859  30.343  57.719  1.00  0.00     0.002 A 
HETATM    9  C   UNL     1      10.876  29.782  56.440  1.00  0.00     0.002 A 
HETATM   10  C   UNL     1       9.706  29.299  55.840  1.00  0.00     0.033 A 
HETATM   11  N   UNL     1       5.108  29.228  57.456  1.00  0.00    -0.033 NA
HETATM   12  C   UNL     1       4.522  28.774  56.408  1.00  0.00     0.193 A 
HETATM   13  N   UNL     1       5.177  28.409  55.229  1.00  0.00    -0.338 N 
HETATM   14  H   UNL     1       4.687  27.994  54.452  1.00  0.00     0.164 HD
ENDROOT
BRANCH   1  15
HETATM   15  C   UNL     1       7.105  27.018  54.917  1.00  0.00     0.020 A 
HETATM   16  C   UNL     1       7.085  26.532  53.591  1.00  0.00     0.078 A 
HETATM   17  C   UNL     1       7.473  25.216  53.319  1.00  0.00     0.039 A 
HETATM   18  C   UNL     1       7.893  24.376  54.352  1.00  0.00     0.022 A 
HETATM   19  C   UNL     1       7.907  24.843  55.660  1.00  0.00     0.011 A 
HETATM   20  C   UNL     1       7.503  26.147  55.951  1.00  0.00     0.033 A 
HETATM   21 BR   UNL     1       8.468  23.703  57.059  1.00  0.00    -0.051 Br
BRANCH  16  22
HETATM   22  O   UNL     1       6.623  27.411  52.646  1.00  0.00    -0.355 OA
HETATM   23  C   UNL     1       5.535  26.968  51.835  1.00  0.00     0.210 C 
ENDBRANCH  16  22
ENDBRANCH   1  15
BRANCH  12  24
HETATM   24  N   UNL     1       3.187  28.591  56.336  1.00  0.00    -0.272 NA
HETATM   25  H   UNL     1       2.911  27.741  56.823  1.00  0.00     0.127 HD
HETATM   26  H   UNL     1       2.610  29.374  56.612  1.00  0.00     0.127 HD
ENDBRANCH  12  24
TORSDOF 3
ENDMDL
MODEL 4
REMARK VINA RESULT:      -7.7      4.445      6.287
REMARK  3 active torsions:
REMARK  status: ('A' for Active; 'I' for Inactive)
REMARK    1  A    between atoms: O_2  and  C_3 
REMARK    2  A    between atoms: C_4  and  C_5 
REMARK    3  A    between atoms: C_16  and  N_17 
ROOT
HETATM    1  C   UNL     1       5.741  28.409  51.883  1.00  0.00     0.246 A 
HETATM    2  N   UNL     1       5.660  27.257  52.753  1.00  0.00    -0.151 N 
HETATM    3  C   UNL     1       4.783  27.231  53.807  1.00  0.00     0.734 A 
HETATM    4  N   UNL     1       4.913  26.096  54.459  1.00  0.00    -0.060 NA
HETATM    5  C   UNL     1       5.917  25.401  53.831  1.00  0.00     0.103 A 
HETATM    6  C   UNL     1       6.422  26.120  52.754  1.00  0.00     0.083 A 
HETATM    7  C   UNL     1       6.457  24.142  54.134  1.00  0.00     0.034 A 
HETATM    8  C   UNL     1       7.496  23.649  53.337  1.00  0.00     0.002 A 
HETATM    9  C   UNL     1       7.988  24.392  52.262  1.00  0.00     0.002 A 
HETATM   10  C   UNL     1       7.462  25.650  51.943  1.00  0.00     0.033 A 
HETATM   11  N   UNL     1       3.945  28.254  54.089  1.00  0.00    -0.033 NA
HETATM   12  C   UNL     1       4.030  29.334  53.398  1.00  0.00     0.193 A 
HETATM   13  N   UNL     1       4.911  29.525  52.332  1.00  0.00    -0.338 N 
HETATM   14  H   UNL     1       4.900  30.365  51.773  1.00  0.00     0.164 HD
ENDROOT
BRANCH   1  15
HETATM   15  C   UNL     1       5.353  28.122  50.439  1.00  0.00     0.020 A 
HETATM   16  C   UNL     1       5.692  29.062  49.441  1.00  0.00     0.078 A 
HETATM   17  C   UNL     1       5.316  28.844  48.112  1.00  0.00     0.039 A 
HETATM   18  C   UNL     1       4.612  27.691  47.758  1.00  0.00     0.022 A 
HETATM   19  C   UNL     1       4.267  26.765  48.735  1.00  0.00     0.011 A 
HETATM   20  C   UNL     1       4.617  26.978  50.068  1.00  0.00     0.033 A 
HETATM   21 BR   UNL     1       3.309  25.208  48.255  1.00  0.00    -0.051 Br
BRANCH  16  22
HETATM   22  O   UNL     1       6.348  30.183  49.883  1.00  0.00    -0.355 OA
HETATM   23  C   UNL     1       5.868  31.438  49.404  1.00  0.00     0.210 C 
ENDBRANCH  16  22
ENDBRANCH   1  15
BRANCH  12  24
HETATM   24  N   UNL     1       3.255  30.414  53.629  1.00  0.00    -0.272 NA
HETATM   25  H   UNL     1       2.313  30.268  53.273  1.00  0.00     0.127 HD
HETATM   26  H   UNL     1       3.236  30.759  54.580  1.00  0.00     0.127 HD
ENDBRANCH  12  24
TORSDOF 3
ENDMDL
MODEL 5
REMARK VINA RESULT:      -7.7      1.705      2.175
REMARK  3 active torsions:
REMARK  status: ('A' for Active; 'I' for Inactive)
REMARK    1  A    between atoms: O_2  and  C_3 
REMARK    2  A    between atoms: C_4  and  C_5 
REMARK    3  A    between atoms: C_16  and  N_17 
ROOT
HETATM    1  C   UNL     1       5.871  26.143  54.311  1.00  0.00     0.246 A 
HETATM    2  N   UNL     1       6.751  25.137  53.757  1.00  0.00    -0.151 N 
HETATM    3  C   UNL     1       7.051  25.125  52.419  1.00  0.00     0.734 A 
HETATM    4  N   UNL     1       7.844  24.109  52.156  1.00  0.00    -0.060 NA
HETATM    5  C   UNL     1       8.023  23.439  53.341  1.00  0.00     0.103 A 
HETATM    6  C   UNL     1       7.327  24.059  54.373  1.00  0.00     0.083 A 
HETATM    7  C   UNL     1       8.767  22.281  53.609  1.00  0.00     0.034 A 
HETATM    8  C   UNL     1       8.784  21.783  54.917  1.00  0.00     0.002 A 
HETATM    9  C   UNL     1       8.075  22.423  55.936  1.00  0.00     0.002 A 
HETATM   10  C   UNL     1       7.326  23.580  55.688  1.00  0.00     0.033 A 
HETATM   11  N   UNL     1       6.565  26.040  51.550  1.00  0.00    -0.033 NA
HETATM   12  C   UNL     1       5.717  26.907  51.972  1.00  0.00     0.193 A 
HETATM   13  N   UNL     1       5.276  27.006  53.294  1.00  0.00    -0.338 N 
HETATM   14  H   UNL     1       4.659  27.744  53.598  1.00  0.00     0.164 HD
ENDROOT
BRANCH   1  15
HETATM   15  C   UNL     1       6.540  27.055  55.330  1.00  0.00     0.020 A 
HETATM   16  C   UNL     1       5.911  27.261  56.578  1.00  0.00     0.078 A 
HETATM   17  C   UNL     1       6.482  28.123  57.520  1.00  0.00     0.039 A 
HETATM   18  C   UNL     1       7.683  28.778  57.240  1.00  0.00     0.022 A 
HETATM   19  C   UNL     1       8.304  28.588  56.011  1.00  0.00     0.011 A 
HETATM   20  C   UNL     1       7.736  27.748  55.054  1.00  0.00     0.033 A 
HETATM   21 BR   UNL     1       9.925  29.482  55.631  1.00  0.00    -0.051 Br
BRANCH  16  22
HETATM   22  O   UNL     1       4.717  26.609  56.753  1.00  0.00    -0.355 OA
HETATM   23  C   UNL     1       4.764  25.362  57.446  1.00  0.00     0.210 C 
ENDBRANCH  16  22
ENDBRANCH   1  15
BRANCH  12  24
HETATM   24  N   UNL     1       5.159  27.837  51.169  1.00  0.00    -0.272 NA
HETATM   25  H   UNL     1       5.648  28.726  51.248  1.00  0.00     0.127 HD
HETATM   26  H   UNL     1       5.029  27.576  50.201  1.00  0.00     0.127 HD
ENDBRANCH  12  24
TORSDOF 3
ENDMDL
MODEL 6
REMARK VINA RESULT:      -7.7      7.506      9.759
REMARK  3 active torsions:
REMARK  status: ('A' for Active; 'I' for Inactive)
REMARK    1  A    between atoms: O_2  and  C_3 
REMARK    2  A    between atoms: C_4  and  C_5 
REMARK    3  A    between atoms: C_16  and  N_17 
ROOT
HETATM    1  C   UNL     1       4.356  33.711  62.552  1.00  0.00     0.246 A 
HETATM    2  N   UNL     1       5.257  33.176  61.555  1.00  0.00    -0.151 N 
HETATM    3  C   UNL     1       4.827  32.930  60.276  1.00  0.00     0.734 A 
HETATM    4  N   UNL     1       5.816  32.428  59.569  1.00  0.00    -0.060 NA
HETATM    5  C   UNL     1       6.886  32.318  60.421  1.00  0.00     0.103 A 
HETATM    6  C   UNL     1       6.557  32.770  61.695  1.00  0.00     0.083 A 
HETATM    7  C   UNL     1       8.178  31.830  60.176  1.00  0.00     0.034 A 
HETATM    8  C   UNL     1       9.100  31.813  61.229  1.00  0.00     0.002 A 
HETATM    9  C   UNL     1       8.744  32.271  62.499  1.00  0.00     0.002 A 
HETATM   10  C   UNL     1       7.460  32.762  62.764  1.00  0.00     0.033 A 
HETATM   11  N   UNL     1       3.561  33.176  59.869  1.00  0.00    -0.033 NA
HETATM   12  C   UNL     1       2.698  33.575  60.732  1.00  0.00     0.193 A 
HETATM   13  N   UNL     1       2.977  33.816  62.079  1.00  0.00    -0.338 N 
HETATM   14  H   UNL     1       2.286  34.192  62.709  1.00  0.00     0.164 HD
ENDROOT
BRANCH   1  15
HETATM   15  C   UNL     1       4.753  35.085  63.071  1.00  0.00     0.020 A 
HETATM   16  C   UNL     1       4.452  35.422  64.409  1.00  0.00     0.078 A 
HETATM   17  C   UNL     1       4.771  36.691  64.904  1.00  0.00     0.039 A 
HETATM   18  C   UNL     1       5.398  37.631  64.084  1.00  0.00     0.022 A 
HETATM   19  C   UNL     1       5.689  37.311  62.763  1.00  0.00     0.011 A 
HETATM   20  C   UNL     1       5.358  36.058  62.249  1.00  0.00     0.033 A 
HETATM   21 BR   UNL     1       6.530  38.588  61.652  1.00  0.00    -0.051 Br
BRANCH  16  22
HETATM   22  O   UNL     1       3.803  34.453  65.131  1.00  0.00    -0.355 OA
HETATM   23  C   UNL     1       4.478  33.952  66.284  1.00  0.00     0.210 C 
ENDBRANCH  16  22
ENDBRANCH   1  15
BRANCH  12  24
HETATM   24  N   UNL     1       1.408  33.816  60.420  1.00  0.00    -0.272 NA
HETATM   25  H   UNL     1       0.896  34.158  61.230  1.00  0.00     0.127 HD
HETATM   26  H   UNL     1       1.242  34.399  59.610  1.00  0.00     0.127 HD
ENDBRANCH  12  24
TORSDOF 3
ENDMDL
MODEL 7
REMARK VINA RESULT:      -7.1      2.544      4.468
REMARK  3 active torsions:
REMARK  status: ('A' for Active; 'I' for Inactive)
REMARK    1  A    between atoms: O_2  and  C_3 
REMARK    2  A    between atoms: C_4  and  C_5 
REMARK    3  A    between atoms: C_16  and  N_17 
ROOT
HETATM    1  C   UNL     1       8.032  27.325  56.101  1.00  0.00     0.246 A 
HETATM    2  N   UNL     1       7.068  26.616  55.290  1.00  0.00    -0.151 N 
HETATM    3  C   UNL     1       6.691  25.335  55.603  1.00  0.00     0.734 A 
HETATM    4  N   UNL     1       5.829  24.900  54.709  1.00  0.00    -0.060 NA
HETATM    5  C   UNL     1       5.681  25.908  53.789  1.00  0.00     0.103 A 
HETATM    6  C   UNL     1       6.468  27.005  54.123  1.00  0.00     0.083 A 
HETATM    7  C   UNL     1       4.891  25.953  52.632  1.00  0.00     0.034 A 
HETATM    8  C   UNL     1       4.921  27.110  51.844  1.00  0.00     0.002 A 
HETATM    9  C   UNL     1       5.721  28.197  52.199  1.00  0.00     0.002 A 
HETATM   10  C   UNL     1       6.518  28.172  53.351  1.00  0.00     0.033 A 
HETATM   11  N   UNL     1       7.177  24.669  56.675  1.00  0.00    -0.033 NA
HETATM   12  C   UNL     1       8.095  25.220  57.384  1.00  0.00     0.193 A 
HETATM   13  N   UNL     1       8.616  26.495  57.153  1.00  0.00    -0.338 N 
HETATM   14  H   UNL     1       9.290  26.918  57.774  1.00  0.00     0.164 HD
ENDROOT
BRANCH   1  15
HETATM   15  C   UNL     1       7.475  28.570  56.777  1.00  0.00     0.020 A 
HETATM   16  C   UNL     1       8.367  29.450  57.429  1.00  0.00     0.078 A 
HETATM   17  C   UNL     1       7.881  30.582  58.091  1.00  0.00     0.039 A 
HETATM   18  C   UNL     1       6.513  30.858  58.104  1.00  0.00     0.022 A 
HETATM   19  C   UNL     1       5.627  29.993  57.473  1.00  0.00     0.011 A 
HETATM   20  C   UNL     1       6.094  28.849  56.827  1.00  0.00     0.033 A 
HETATM   21 BR   UNL     1       3.774  30.364  57.499  1.00  0.00    -0.051 Br
BRANCH  16  22
HETATM   22  O   UNL     1       9.688  29.082  57.399  1.00  0.00    -0.355 OA
HETATM   23  C   UNL     1      10.592  29.987  56.766  1.00  0.00     0.210 C 
ENDBRANCH  16  22
ENDBRANCH   1  15
BRANCH  12  24
HETATM   24  N   UNL     1       8.658  24.616  58.451  1.00  0.00    -0.272 NA
HETATM   25  H   UNL     1       9.329  23.910  58.157  1.00  0.00     0.127 HD
HETATM   26  H   UNL     1       9.053  25.225  59.156  1.00  0.00     0.127 HD
ENDBRANCH  12  24
TORSDOF 3
ENDMDL
MODEL 8
REMARK VINA RESULT:      -7.1      4.276      7.344
REMARK  3 active torsions:
REMARK  status: ('A' for Active; 'I' for Inactive)
REMARK    1  A    between atoms: O_2  and  C_3 
REMARK    2  A    between atoms: C_4  and  C_5 
REMARK    3  A    between atoms: C_16  and  N_17 
ROOT
HETATM    1  C   UNL     1       6.359  31.904  58.307  1.00  0.00     0.246 A 
HETATM    2  N   UNL     1       6.013  32.088  59.699  1.00  0.00    -0.151 N 
HETATM    3  C   UNL     1       4.721  32.354  60.074  1.00  0.00     0.734 A 
HETATM    4  N   UNL     1       4.665  32.503  61.380  1.00  0.00    -0.060 NA
HETATM    5  C   UNL     1       5.950  32.366  61.842  1.00  0.00     0.103 A 
HETATM    6  C   UNL     1       6.831  32.118  60.796  1.00  0.00     0.083 A 
HETATM    7  C   UNL     1       6.442  32.449  63.153  1.00  0.00     0.034 A 
HETATM    8  C   UNL     1       7.815  32.279  63.366  1.00  0.00     0.002 A 
HETATM    9  C   UNL     1       8.680  32.033  62.298  1.00  0.00     0.002 A 
HETATM   10  C   UNL     1       8.208  31.947  60.982  1.00  0.00     0.033 A 
HETATM   11  N   UNL     1       3.705  32.448  59.187  1.00  0.00    -0.033 NA
HETATM   12  C   UNL     1       3.967  32.373  57.932  1.00  0.00     0.193 A 
HETATM   13  N   UNL     1       5.241  32.160  57.400  1.00  0.00    -0.338 N 
HETATM   14  H   UNL     1       5.394  32.041  56.411  1.00  0.00     0.164 HD
ENDROOT
BRANCH   1  15
HETATM   15  C   UNL     1       6.886  30.514  57.979  1.00  0.00     0.020 A 
HETATM   16  C   UNL     1       8.282  30.306  57.939  1.00  0.00     0.078 A 
HETATM   17  C   UNL     1       8.797  29.049  57.604  1.00  0.00     0.039 A 
HETATM   18  C   UNL     1       7.935  27.988  57.317  1.00  0.00     0.022 A 
HETATM   19  C   UNL     1       6.561  28.186  57.346  1.00  0.00     0.011 A 
HETATM   20  C   UNL     1       6.033  29.439  57.657  1.00  0.00     0.033 A 
HETATM   21 BR   UNL     1       5.397  26.751  56.950  1.00  0.00    -0.051 Br
BRANCH  16  22
HETATM   22  O   UNL     1       9.052  31.411  58.196  1.00  0.00    -0.355 OA
HETATM   23  C   UNL     1      10.457  31.278  57.980  1.00  0.00     0.210 C 
ENDBRANCH  16  22
ENDBRANCH   1  15
BRANCH  12  24
HETATM   24  N   UNL     1       3.021  32.486  56.977  1.00  0.00    -0.272 NA
HETATM   25  H   UNL     1       3.285  33.182  56.284  1.00  0.00     0.127 HD
HETATM   26  H   UNL     1       2.722  31.626  56.536  1.00  0.00     0.127 HD
ENDBRANCH  12  24
TORSDOF 3
ENDMDL
MODEL 9
REMARK VINA RESULT:      -7.1      7.970     11.060
REMARK  3 active torsions:
REMARK  status: ('A' for Active; 'I' for Inactive)
REMARK    1  A    between atoms: O_2  and  C_3 
REMARK    2  A    between atoms: C_4  and  C_5 
REMARK    3  A    between atoms: C_16  and  N_17 
ROOT
HETATM    1  C   UNL     1       5.277  33.890  61.216  1.00  0.00     0.246 A 
HETATM    2  N   UNL     1       4.298  34.951  61.122  1.00  0.00    -0.151 N 
HETATM    3  C   UNL     1       2.994  34.679  60.796  1.00  0.00     0.734 A 
HETATM    4  N   UNL     1       2.310  35.801  60.752  1.00  0.00    -0.060 NA
HETATM    5  C   UNL     1       3.201  36.811  61.017  1.00  0.00     0.103 A 
HETATM    6  C   UNL     1       4.476  36.303  61.241  1.00  0.00     0.083 A 
HETATM    7  C   UNL     1       2.991  38.196  61.078  1.00  0.00     0.034 A 
HETATM    8  C   UNL     1       4.080  39.028  61.362  1.00  0.00     0.002 A 
HETATM    9  C   UNL     1       5.351  38.494  61.581  1.00  0.00     0.002 A 
HETATM   10  C   UNL     1       5.581  37.113  61.525  1.00  0.00     0.033 A 
HETATM   11  N   UNL     1       2.545  33.426  60.558  1.00  0.00    -0.033 NA
HETATM   12  C   UNL     1       3.386  32.456  60.548  1.00  0.00     0.193 A 
HETATM   13  N   UNL     1       4.752  32.589  60.808  1.00  0.00    -0.338 N 
HETATM   14  H   UNL     1       5.367  31.791  60.855  1.00  0.00     0.164 HD
ENDROOT
BRANCH   1  15
HETATM   15  C   UNL     1       5.866  33.713  62.608  1.00  0.00     0.020 A 
HETATM   16  C   UNL     1       7.176  33.201  62.735  1.00  0.00     0.078 A 
HETATM   17  C   UNL     1       7.731  32.992  64.002  1.00  0.00     0.039 A 
HETATM   18  C   UNL     1       6.999  33.297  65.151  1.00  0.00     0.022 A 
HETATM   19  C   UNL     1       5.706  33.793  65.036  1.00  0.00     0.011 A 
HETATM   20  C   UNL     1       5.132  33.987  63.780  1.00  0.00     0.033 A 
HETATM   21 BR   UNL     1       4.714  34.198  66.593  1.00  0.00    -0.051 Br
BRANCH  16  22
HETATM   22  O   UNL     1       7.807  32.893  61.556  1.00  0.00    -0.355 OA
HETATM   23  C   UNL     1       8.290  31.557  61.417  1.00  0.00     0.210 C 
ENDBRANCH  16  22
ENDBRANCH   1  15
BRANCH  12  24
HETATM   24  N   UNL     1       3.030  31.180  60.290  1.00  0.00    -0.272 NA
HETATM   25  H   UNL     1       2.948  30.645  61.151  1.00  0.00     0.127 HD
HETATM   26  H   UNL     1       2.218  31.050  59.700  1.00  0.00     0.127 HD
ENDBRANCH  12  24
TORSDOF 3
ENDMDL
MODEL 10
REMARK VINA RESULT:      -7.0      5.985      7.960
REMARK  3 active torsions:
REMARK  status: ('A' for Active; 'I' for Inactive)
REMARK    1  A    between atoms: O_2  and  C_3 
REMARK    2  A    between atoms: C_4  and  C_5 
REMARK    3  A    between atoms: C_16  and  N_17 
ROOT
HETATM    1  C   UNL     1       5.129  33.277  59.381  1.00  0.00     0.246 A 
HETATM    2  N   UNL     1       5.734  32.648  60.534  1.00  0.00    -0.151 N 
HETATM    3  C   UNL     1       4.989  32.357  61.648  1.00  0.00     0.734 A 
HETATM    4  N   UNL     1       5.763  31.814  62.564  1.00  0.00    -0.060 NA
HETATM    5  C   UNL     1       7.031  31.794  62.038  1.00  0.00     0.103 A 
HETATM    6  C   UNL     1       7.047  32.332  60.756  1.00  0.00     0.083 A 
HETATM    7  C   UNL     1       8.227  31.333  62.607  1.00  0.00     0.034 A 
HETATM    8  C   UNL     1       9.407  31.431  61.860  1.00  0.00     0.002 A 
HETATM    9  C   UNL     1       9.397  31.978  60.575  1.00  0.00     0.002 A 
HETATM   10  C   UNL     1       8.213  32.444  59.990  1.00  0.00     0.033 A 
HETATM   11  N   UNL     1       3.666  32.621  61.736  1.00  0.00    -0.033 NA
HETATM   12  C   UNL     1       3.095  33.251  60.774  1.00  0.00     0.193 A 
HETATM   13  N   UNL     1       3.736  33.660  59.602  1.00  0.00    -0.338 N 
HETATM   14  H   UNL     1       3.235  34.094  58.842  1.00  0.00     0.164 HD
ENDROOT
BRANCH   1  15
HETATM   15  C   UNL     1       5.158  32.421  58.123  1.00  0.00     0.020 A 
HETATM   16  C   UNL     1       5.061  33.054  56.864  1.00  0.00     0.078 A 
HETATM   17  C   UNL     1       5.048  32.291  55.692  1.00  0.00     0.039 A 
HETATM   18  C   UNL     1       5.140  30.899  55.755  1.00  0.00     0.022 A 
HETATM   19  C   UNL     1       5.228  30.267  56.990  1.00  0.00     0.011 A 
HETATM   20  C   UNL     1       5.222  31.013  58.168  1.00  0.00     0.033 A 
HETATM   21 BR   UNL     1       5.346  28.383  57.074  1.00  0.00    -0.051 Br
BRANCH  16  22
HETATM   22  O   UNL     1       4.934  34.419  56.897  1.00  0.00    -0.355 OA
HETATM   23  C   UNL     1       5.041  35.103  55.649  1.00  0.00     0.210 C 
ENDBRANCH  16  22
ENDBRANCH   1  15
BRANCH  12  24
HETATM   24  N   UNL     1       1.787  33.583  60.790  1.00  0.00    -0.272 NA
HETATM   25  H   UNL     1       1.514  33.940  61.703  1.00  0.00     0.127 HD
HETATM   26  H   UNL     1       1.468  34.193  60.049  1.00  0.00     0.127 HD
ENDBRANCH  12  24
TORSDOF 3
ENDMDL
