MODEL 1
REMARK VINA RESULT:     -11.2      0.000      0.000
REMARK  8 active torsions:
REMARK  status: ('A' for Active; 'I' for Inactive)
REMARK    1  A    between atoms: C_4  and  S_5 
REMARK    2  A    between atoms: S_5  and  C_6 
REMARK    3  A    between atoms: C_6  and  C_7 
REMARK       I    between atoms: C_7  and  N_8 
REMARK    4  A    between atoms: N_8  and  C_9 
REMARK    5  A    between atoms: C_9  and  C_10 
REMARK    6  A    between atoms: C_20  and  C_21 
REMARK    7  A    between atoms: C_26  and  C_27 
REMARK       I    between atoms: C_27  and  N_28 
REMARK    8  A    between atoms: N_28  and  C_29 
ROOT
HETATM    1  C   UNL     1       5.090  32.386  57.548  1.00  0.00     0.069 C 
HETATM    2  C   UNL     1       5.846  31.080  57.497  1.00  0.00     0.019 C 
HETATM    3  N   UNL     1       5.375  30.141  56.585  1.00  0.00    -0.353 N 
HETATM    4  C   UNL     1       5.681  28.786  56.653  1.00  0.00     0.087 C 
HETATM    5  C   UNL     1       6.752  28.411  57.404  1.00  0.00     0.057 C 
HETATM    6  C   UNL     1       7.092  26.944  57.612  1.00  0.00     0.019 C 
HETATM    7  N   UNL     1       7.374  25.727  57.785  1.00  0.00    -0.096 N 
HETATM    8  C   UNL     1       7.617  29.441  58.122  1.00  0.00     0.129 C 
HETATM    9  C   UNL     1       6.903  30.774  58.284  1.00  0.00     0.048 C 
HETATM   10  H   UNL     1       4.481  30.374  56.168  1.00  0.00     0.166 HD
ENDROOT
BRANCH   4  11
HETATM   11  S   UNL     1       4.725  27.534  55.861  1.00  0.00    -0.102 SA
BRANCH  11  12
HETATM   12  C   UNL     1       5.254  27.582  54.132  1.00  0.00     0.183 C 
BRANCH  12  13
HETATM   13  C   UNL     1       6.638  26.980  53.928  1.00  0.00     0.227 C 
HETATM   14  N   UNL     1       6.694  25.603  53.898  1.00  0.00    -0.356 N 
HETATM   15  H   UNL     1       5.973  25.115  54.418  1.00  0.00     0.162 HD
HETATM   16  O   UNL     1       7.611  27.693  53.694  1.00  0.00    -0.273 OA
BRANCH  14  17
HETATM   17  C   UNL     1       7.955  24.922  53.702  1.00  0.00     0.161 C 
BRANCH  17  18
HETATM   18  C   UNL     1       7.926  23.441  54.002  1.00  0.00    -0.041 A 
HETATM   19  C   UNL     1       7.802  22.915  55.296  1.00  0.00     0.009 A 
HETATM   20  C   UNL     1       7.757  21.534  55.504  1.00  0.00     0.001 A 
HETATM   21  C   UNL     1       7.814  20.659  54.422  1.00  0.00     0.000 A 
HETATM   22  C   UNL     1       7.918  21.164  53.130  1.00  0.00     0.001 A 
HETATM   23  C   UNL     1       7.974  22.543  52.921  1.00  0.00     0.009 A 
ENDBRANCH  17  18
ENDBRANCH  14  17
ENDBRANCH  12  13
ENDBRANCH  11  12
ENDBRANCH   4  11
BRANCH   8  24
HETATM   24  C   UNL     1       8.957  29.604  57.449  1.00  0.00     0.066 A 
HETATM   25  O   UNL     1       8.966  29.523  56.085  1.00  0.00    -0.326 OA
HETATM   26  C   UNL     1      10.256  29.674  55.690  1.00  0.00     0.142 A 
HETATM   27  C   UNL     1      11.081  29.822  56.780  1.00  0.00     0.027 A 
HETATM   28  C   UNL     1      10.245  29.772  57.919  1.00  0.00     0.035 A 
ENDBRANCH   8  24
BRANCH   9  29
HETATM   29  C   UNL     1       7.235  31.643  59.451  1.00  0.00     0.255 C 
HETATM   30  N   UNL     1       6.462  31.449  60.577  1.00  0.00    -0.322 N 
HETATM   31  H   UNL     1       5.577  30.968  60.465  1.00  0.00     0.169 HD
HETATM   32  O   UNL     1       8.071  32.532  59.315  1.00  0.00    -0.268 OA
BRANCH  30  33
HETATM   33  C   UNL     1       6.604  32.214  61.760  1.00  0.00     0.057 A 
HETATM   34  C   UNL     1       5.757  33.273  62.142  1.00  0.00     0.062 A 
HETATM   35 CL   UNL     1       4.587  33.979  61.076  1.00  0.00    -0.082 Cl
HETATM   36  C   UNL     1       5.947  33.919  63.368  1.00  0.00     0.050 A 
HETATM   37  C   UNL     1       6.992  33.532  64.201  1.00  0.00     0.035 A 
HETATM   38 CL   UNL     1       7.221  34.323  65.711  1.00  0.00    -0.084 Cl
HETATM   39  C   UNL     1       7.872  32.526  63.809  1.00  0.00     0.026 A 
HETATM   40  C   UNL     1       7.688  31.880  62.583  1.00  0.00     0.033 A 
ENDBRANCH  30  33
ENDBRANCH   9  29
TORSDOF 8
ENDMDL
MODEL 2
REMARK VINA RESULT:     -10.2      1.415      1.952
REMARK  8 active torsions:
REMARK  status: ('A' for Active; 'I' for Inactive)
REMARK    1  A    between atoms: C_4  and  S_5 
REMARK    2  A    between atoms: S_5  and  C_6 
REMARK    3  A    between atoms: C_6  and  C_7 
REMARK       I    between atoms: C_7  and  N_8 
REMARK    4  A    between atoms: N_8  and  C_9 
REMARK    5  A    between atoms: C_9  and  C_10 
REMARK    6  A    between atoms: C_20  and  C_21 
REMARK    7  A    between atoms: C_26  and  C_27 
REMARK       I    between atoms: C_27  and  N_28 
REMARK    8  A    between atoms: N_28  and  C_29 
ROOT
HETATM    1  C   UNL     1       4.880  32.175  56.548  1.00  0.00     0.069 C 
HETATM    2  C   UNL     1       5.724  30.945  56.780  1.00  0.00     0.019 C 
HETATM    3  N   UNL     1       5.580  29.924  55.846  1.00  0.00    -0.353 N 
HETATM    4  C   UNL     1       5.963  28.609  56.082  1.00  0.00     0.087 C 
HETATM    5  C   UNL     1       6.829  28.370  57.103  1.00  0.00     0.057 C 
HETATM    6  C   UNL     1       7.218  26.953  57.490  1.00  0.00     0.019 C 
HETATM    7  N   UNL     1       7.541  25.777  57.812  1.00  0.00    -0.096 N 
HETATM    8  C   UNL     1       7.396  29.508  57.944  1.00  0.00     0.129 C 
HETATM    9  C   UNL     1       6.562  30.775  57.828  1.00  0.00     0.048 C 
HETATM   10  H   UNL     1       4.808  30.053  55.201  1.00  0.00     0.166 HD
ENDROOT
BRANCH   4  11
HETATM   11  S   UNL     1       5.345  27.238  55.162  1.00  0.00    -0.102 SA
BRANCH  11  12
HETATM   12  C   UNL     1       6.644  26.874  53.957  1.00  0.00     0.183 C 
BRANCH  12  13
HETATM   13  C   UNL     1       6.485  25.497  53.325  1.00  0.00     0.227 C 
HETATM   14  N   UNL     1       7.631  24.735  53.252  1.00  0.00    -0.356 N 
HETATM   15  H   UNL     1       8.504  25.246  53.199  1.00  0.00     0.162 HD
HETATM   16  O   UNL     1       5.376  25.067  53.012  1.00  0.00    -0.273 OA
BRANCH  14  17
HETATM   17  C   UNL     1       7.596  23.407  52.680  1.00  0.00     0.161 C 
BRANCH  17  18
HETATM   18  C   UNL     1       7.876  22.291  53.659  1.00  0.00    -0.041 A 
HETATM   19  C   UNL     1       8.411  21.048  53.285  1.00  0.00     0.009 A 
HETATM   20  C   UNL     1       8.669  20.065  54.244  1.00  0.00     0.001 A 
HETATM   21  C   UNL     1       8.417  20.315  55.591  1.00  0.00     0.000 A 
HETATM   22  C   UNL     1       7.905  21.548  55.981  1.00  0.00     0.001 A 
HETATM   23  C   UNL     1       7.637  22.527  55.024  1.00  0.00     0.009 A 
ENDBRANCH  17  18
ENDBRANCH  14  17
ENDBRANCH  12  13
ENDBRANCH  11  12
ENDBRANCH   4  11
BRANCH   8  24
HETATM   24  C   UNL     1       8.848  29.765  57.622  1.00  0.00     0.066 A 
HETATM   25  O   UNL     1       9.276  29.368  56.387  1.00  0.00    -0.326 OA
HETATM   26  C   UNL     1      10.598  29.668  56.313  1.00  0.00     0.142 A 
HETATM   27  C   UNL     1      11.034  30.226  57.492  1.00  0.00     0.027 A 
HETATM   28  C   UNL     1       9.905  30.285  58.343  1.00  0.00     0.035 A 
ENDBRANCH   8  24
BRANCH   9  29
HETATM   29  C   UNL     1       6.512  31.725  58.979  1.00  0.00     0.255 C 
HETATM   30  N   UNL     1       5.438  31.573  59.830  1.00  0.00    -0.322 N 
HETATM   31  H   UNL     1       4.636  31.056  59.489  1.00  0.00     0.169 HD
HETATM   32  O   UNL     1       7.338  32.632  59.040  1.00  0.00    -0.268 OA
BRANCH  30  33
HETATM   33  C   UNL     1       5.204  32.413  60.945  1.00  0.00     0.057 A 
HETATM   34  C   UNL     1       6.003  32.459  62.104  1.00  0.00     0.062 A 
HETATM   35 CL   UNL     1       7.230  31.286  62.452  1.00  0.00    -0.082 Cl
HETATM   36  C   UNL     1       5.718  33.378  63.120  1.00  0.00     0.050 A 
HETATM   37  C   UNL     1       4.626  34.231  62.997  1.00  0.00     0.035 A 
HETATM   38 CL   UNL     1       4.281  35.364  64.244  1.00  0.00    -0.084 Cl
HETATM   39  C   UNL     1       3.793  34.155  61.884  1.00  0.00     0.026 A 
HETATM   40  C   UNL     1       4.071  33.237  60.868  1.00  0.00     0.033 A 
ENDBRANCH  30  33
ENDBRANCH   9  29
TORSDOF 8
ENDMDL
MODEL 3
REMARK VINA RESULT:      -9.6      2.843      3.930
REMARK  8 active torsions:
REMARK  status: ('A' for Active; 'I' for Inactive)
REMARK    1  A    between atoms: C_4  and  S_5 
REMARK    2  A    between atoms: S_5  and  C_6 
REMARK    3  A    between atoms: C_6  and  C_7 
REMARK       I    between atoms: C_7  and  N_8 
REMARK    4  A    between atoms: N_8  and  C_9 
REMARK    5  A    between atoms: C_9  and  C_10 
REMARK    6  A    between atoms: C_20  and  C_21 
REMARK    7  A    between atoms: C_26  and  C_27 
REMARK       I    between atoms: C_27  and  N_28 
REMARK    8  A    between atoms: N_28  and  C_29 
ROOT
HETATM    1  C   UNL     1       5.161  32.867  57.742  1.00  0.00     0.069 C 
HETATM    2  C   UNL     1       5.836  31.522  57.613  1.00  0.00     0.019 C 
HETATM    3  N   UNL     1       5.369  30.705  56.589  1.00  0.00    -0.353 N 
HETATM    4  C   UNL     1       5.585  29.332  56.546  1.00  0.00     0.087 C 
HETATM    5  C   UNL     1       6.577  28.817  57.321  1.00  0.00     0.057 C 
HETATM    6  C   UNL     1       6.810  27.317  57.408  1.00  0.00     0.019 C 
HETATM    7  N   UNL     1       7.004  26.073  57.481  1.00  0.00    -0.096 N 
HETATM    8  C   UNL     1       7.455  29.715  58.185  1.00  0.00     0.129 C 
HETATM    9  C   UNL     1       6.816  31.074  58.430  1.00  0.00     0.048 C 
HETATM   10  H   UNL     1       4.522  31.035  56.142  1.00  0.00     0.166 HD
ENDROOT
BRANCH   4  11
HETATM   11  S   UNL     1       4.608  28.226  55.581  1.00  0.00    -0.102 SA
BRANCH  11  12
HETATM   12  C   UNL     1       4.362  29.086  54.009  1.00  0.00     0.183 C 
BRANCH  12  13
HETATM   13  C   UNL     1       4.979  28.340  52.834  1.00  0.00     0.227 C 
HETATM   14  N   UNL     1       4.584  28.761  51.582  1.00  0.00    -0.356 N 
HETATM   15  H   UNL     1       3.662  29.178  51.522  1.00  0.00     0.162 HD
HETATM   16  O   UNL     1       5.857  27.497  53.007  1.00  0.00    -0.273 OA
BRANCH  14  17
HETATM   17  C   UNL     1       5.113  28.130  50.393  1.00  0.00     0.161 C 
BRANCH  17  18
HETATM   18  C   UNL     1       4.066  27.556  49.466  1.00  0.00    -0.041 A 
HETATM   19  C   UNL     1       4.228  26.350  48.766  1.00  0.00     0.009 A 
HETATM   20  C   UNL     1       3.211  25.861  47.942  1.00  0.00     0.001 A 
HETATM   21  C   UNL     1       2.011  26.557  47.820  1.00  0.00     0.000 A 
HETATM   22  C   UNL     1       1.826  27.745  48.521  1.00  0.00     0.001 A 
HETATM   23  C   UNL     1       2.845  28.240  49.337  1.00  0.00     0.009 A 
ENDBRANCH  17  18
ENDBRANCH  14  17
ENDBRANCH  12  13
ENDBRANCH  11  12
ENDBRANCH   4  11
BRANCH   8  24
HETATM   24  C   UNL     1       8.845  29.847  57.613  1.00  0.00     0.066 A 
HETATM   25  O   UNL     1       8.979  29.594  56.277  1.00  0.00    -0.326 OA
HETATM   26  C   UNL     1      10.295  29.746  55.978  1.00  0.00     0.142 A 
HETATM   27  C   UNL     1      11.013  30.066  57.105  1.00  0.00     0.027 A 
HETATM   28  C   UNL     1      10.079  30.127  58.166  1.00  0.00     0.035 A 
ENDBRANCH   8  24
BRANCH   9  29
HETATM   29  C   UNL     1       7.123  31.808  59.693  1.00  0.00     0.255 C 
HETATM   30  N   UNL     1       6.283  31.545  60.754  1.00  0.00    -0.322 N 
HETATM   31  H   UNL     1       5.385  31.121  60.551  1.00  0.00     0.169 HD
HETATM   32  O   UNL     1       8.004  32.664  59.687  1.00  0.00    -0.268 OA
BRANCH  30  33
HETATM   33  C   UNL     1       6.394  32.184  62.012  1.00  0.00     0.057 A 
HETATM   34  C   UNL     1       5.327  32.779  62.713  1.00  0.00     0.062 A 
HETATM   35 CL   UNL     1       3.773  33.066  62.000  1.00  0.00    -0.082 Cl
HETATM   36  C   UNL     1       5.535  33.325  63.983  1.00  0.00     0.050 A 
HETATM   37  C   UNL     1       6.807  33.302  64.548  1.00  0.00     0.035 A 
HETATM   38 CL   UNL     1       7.061  33.967  66.113  1.00  0.00    -0.084 Cl
HETATM   39  C   UNL     1       7.883  32.769  63.842  1.00  0.00     0.026 A 
HETATM   40  C   UNL     1       7.680  32.227  62.570  1.00  0.00     0.033 A 
ENDBRANCH  30  33
ENDBRANCH   9  29
TORSDOF 8
ENDMDL
MODEL 4
REMARK VINA RESULT:      -9.5      3.744     10.337
REMARK  8 active torsions:
REMARK  status: ('A' for Active; 'I' for Inactive)
REMARK    1  A    between atoms: C_4  and  S_5 
REMARK    2  A    between atoms: S_5  and  C_6 
REMARK    3  A    between atoms: C_6  and  C_7 
REMARK       I    between atoms: C_7  and  N_8 
REMARK    4  A    between atoms: N_8  and  C_9 
REMARK    5  A    between atoms: C_9  and  C_10 
REMARK    6  A    between atoms: C_20  and  C_21 
REMARK    7  A    between atoms: C_26  and  C_27 
REMARK       I    between atoms: C_27  and  N_28 
REMARK    8  A    between atoms: N_28  and  C_29 
ROOT
HETATM    1  C   UNL     1       8.574  28.368  56.630  1.00  0.00     0.069 C 
HETATM    2  C   UNL     1       7.259  28.918  56.134  1.00  0.00     0.019 C 
HETATM    3  N   UNL     1       7.018  30.259  56.412  1.00  0.00    -0.353 N 
HETATM    4  C   UNL     1       5.752  30.833  56.381  1.00  0.00     0.087 C 
HETATM    5  C   UNL     1       4.767  30.172  55.715  1.00  0.00     0.057 C 
HETATM    6  C   UNL     1       3.335  30.680  55.719  1.00  0.00     0.019 C 
HETATM    7  N   UNL     1       2.146  31.101  55.723  1.00  0.00    -0.096 N 
HETATM    8  C   UNL     1       5.045  28.859  54.990  1.00  0.00     0.129 C 
HETATM    9  C   UNL     1       6.321  28.193  55.482  1.00  0.00     0.048 C 
HETATM   10  H   UNL     1       7.680  30.680  57.055  1.00  0.00     0.166 HD
ENDROOT
BRANCH   4  11
HETATM   11  S   UNL     1       5.349  32.341  57.201  1.00  0.00    -0.102 SA
BRANCH  11  12
HETATM   12  C   UNL     1       5.006  31.855  58.909  1.00  0.00     0.183 C 
BRANCH  12  13
HETATM   13  C   UNL     1       6.190  32.103  59.835  1.00  0.00     0.227 C 
HETATM   14  N   UNL     1       5.963  31.868  61.174  1.00  0.00    -0.356 N 
HETATM   15  H   UNL     1       5.008  31.981  61.492  1.00  0.00     0.162 HD
HETATM   16  O   UNL     1       7.299  32.383  59.385  1.00  0.00    -0.273 OA
BRANCH  14  17
HETATM   17  C   UNL     1       7.019  32.062  62.144  1.00  0.00     0.161 C 
BRANCH  17  18
HETATM   18  C   UNL     1       6.588  32.756  63.415  1.00  0.00    -0.041 A 
HETATM   19  C   UNL     1       5.246  32.922  63.790  1.00  0.00     0.009 A 
HETATM   20  C   UNL     1       4.913  33.552  64.992  1.00  0.00     0.001 A 
HETATM   21  C   UNL     1       5.915  34.008  65.846  1.00  0.00     0.000 A 
HETATM   22  C   UNL     1       7.251  33.835  65.499  1.00  0.00     0.001 A 
HETATM   23  C   UNL     1       7.584  33.215  64.294  1.00  0.00     0.009 A 
ENDBRANCH  17  18
ENDBRANCH  14  17
ENDBRANCH  12  13
ENDBRANCH  11  12
ENDBRANCH   4  11
BRANCH   8  24
HETATM   24  C   UNL     1       5.053  29.044  53.493  1.00  0.00     0.066 A 
HETATM   25  O   UNL     1       5.679  28.073  52.764  1.00  0.00    -0.326 OA
HETATM   26  C   UNL     1       5.591  28.440  51.460  1.00  0.00     0.142 A 
HETATM   27  C   UNL     1       4.941  29.646  51.341  1.00  0.00     0.027 A 
HETATM   28  C   UNL     1       4.597  30.043  52.654  1.00  0.00     0.035 A 
ENDBRANCH   8  24
BRANCH   9  29
HETATM   29  C   UNL     1       6.436  26.706  55.431  1.00  0.00     0.255 C 
HETATM   30  N   UNL     1       7.413  26.213  54.594  1.00  0.00    -0.322 N 
HETATM   31  H   UNL     1       7.780  26.832  53.879  1.00  0.00     0.169 HD
HETATM   32  O   UNL     1       5.608  26.023  56.028  1.00  0.00    -0.268 OA
BRANCH  30  33
HETATM   33  C   UNL     1       7.634  24.830  54.384  1.00  0.00     0.057 A 
HETATM   34  C   UNL     1       8.108  23.931  55.360  1.00  0.00     0.062 A 
HETATM   35 CL   UNL     1       8.763  24.446  56.879  1.00  0.00    -0.082 Cl
HETATM   36  C   UNL     1       8.226  22.569  55.064  1.00  0.00     0.050 A 
HETATM   37  C   UNL     1       7.897  22.103  53.795  1.00  0.00     0.035 A 
HETATM   38 CL   UNL     1       8.035  20.427  53.435  1.00  0.00    -0.084 Cl
HETATM   39  C   UNL     1       7.482  22.989  52.804  1.00  0.00     0.026 A 
HETATM   40  C   UNL     1       7.367  24.352  53.093  1.00  0.00     0.033 A 
ENDBRANCH  30  33
ENDBRANCH   9  29
TORSDOF 8
ENDMDL
MODEL 5
REMARK VINA RESULT:      -9.4      4.229     10.483
REMARK  8 active torsions:
REMARK  status: ('A' for Active; 'I' for Inactive)
REMARK    1  A    between atoms: C_4  and  S_5 
REMARK    2  A    between atoms: S_5  and  C_6 
REMARK    3  A    between atoms: C_6  and  C_7 
REMARK       I    between atoms: C_7  and  N_8 
REMARK    4  A    between atoms: N_8  and  C_9 
REMARK    5  A    between atoms: C_9  and  C_10 
REMARK    6  A    between atoms: C_20  and  C_21 
REMARK    7  A    between atoms: C_26  and  C_27 
REMARK       I    between atoms: C_27  and  N_28 
REMARK    8  A    between atoms: N_28  and  C_29 
ROOT
HETATM    1  C   UNL     1       4.017  29.925  56.385  1.00  0.00     0.069 C 
HETATM    2  C   UNL     1       5.467  29.522  56.508  1.00  0.00     0.019 C 
HETATM    3  N   UNL     1       6.163  30.078  57.576  1.00  0.00    -0.353 N 
HETATM    4  C   UNL     1       7.551  30.136  57.640  1.00  0.00     0.087 C 
HETATM    5  C   UNL     1       8.262  29.313  56.823  1.00  0.00     0.057 C 
HETATM    6  C   UNL     1       9.779  29.386  56.759  1.00  0.00     0.019 C 
HETATM    7  N   UNL     1      11.037  29.446  56.705  1.00  0.00    -0.096 N 
HETATM    8  C   UNL     1       7.566  28.329  55.889  1.00  0.00     0.129 C 
HETATM    9  C   UNL     1       6.111  28.701  55.647  1.00  0.00     0.048 C 
HETATM   10  H   UNL     1       5.666  30.816  58.062  1.00  0.00     0.166 HD
ENDROOT
BRANCH   4  11
HETATM   11  S   UNL     1       8.429  31.252  58.685  1.00  0.00    -0.102 SA
BRANCH  11  12
HETATM   12  C   UNL     1       8.365  30.489  60.324  1.00  0.00     0.183 C 
BRANCH  12  13
HETATM   13  C   UNL     1       8.780  31.450  61.430  1.00  0.00     0.227 C 
HETATM   14  N   UNL     1       7.840  31.673  62.413  1.00  0.00    -0.356 N 
HETATM   15  H   UNL     1       6.871  31.568  62.137  1.00  0.00     0.162 HD
HETATM   16  O   UNL     1       9.924  31.897  61.487  1.00  0.00    -0.273 OA
BRANCH  14  17
HETATM   17  C   UNL     1       8.128  32.561  63.519  1.00  0.00     0.161 C 
BRANCH  17  18
HETATM   18  C   UNL     1       6.909  33.077  64.248  1.00  0.00    -0.041 A 
HETATM   19  C   UNL     1       5.600  32.945  63.759  1.00  0.00     0.009 A 
HETATM   20  C   UNL     1       4.512  33.423  64.494  1.00  0.00     0.001 A 
HETATM   21  C   UNL     1       4.713  34.021  65.736  1.00  0.00     0.000 A 
HETATM   22  C   UNL     1       6.002  34.143  66.244  1.00  0.00     0.001 A 
HETATM   23  C   UNL     1       7.090  33.675  65.507  1.00  0.00     0.009 A 
ENDBRANCH  17  18
ENDBRANCH  14  17
ENDBRANCH  12  13
ENDBRANCH  11  12
ENDBRANCH   4  11
BRANCH   8  24
HETATM   24  C   UNL     1       7.705  26.909  56.377  1.00  0.00     0.066 A 
HETATM   25  O   UNL     1       7.993  26.747  57.703  1.00  0.00    -0.326 OA
HETATM   26  C   UNL     1       8.096  25.412  57.925  1.00  0.00     0.142 A 
HETATM   27  C   UNL     1       7.905  24.712  56.756  1.00  0.00     0.027 A 
HETATM   28  C   UNL     1       7.659  25.678  55.752  1.00  0.00     0.035 A 
ENDBRANCH   8  24
BRANCH   9  29
HETATM   29  C   UNL     1       5.468  28.332  54.352  1.00  0.00     0.255 C 
HETATM   30  N   UNL     1       6.199  28.623  53.220  1.00  0.00    -0.322 N 
HETATM   31  H   UNL     1       6.953  29.297  53.305  1.00  0.00     0.169 HD
HETATM   32  O   UNL     1       4.315  27.909  54.357  1.00  0.00    -0.268 OA
BRANCH  30  33
HETATM   33  C   UNL     1       5.728  28.388  51.906  1.00  0.00     0.057 A 
HETATM   34  C   UNL     1       5.605  27.118  51.308  1.00  0.00     0.062 A 
HETATM   35 CL   UNL     1       6.285  25.680  51.996  1.00  0.00    -0.082 Cl
HETATM   36  C   UNL     1       5.063  26.994  50.025  1.00  0.00     0.050 A 
HETATM   37  C   UNL     1       4.666  28.130  49.326  1.00  0.00     0.035 A 
HETATM   38 CL   UNL     1       3.993  27.975  47.751  1.00  0.00    -0.084 Cl
HETATM   39  C   UNL     1       4.837  29.395  49.882  1.00  0.00     0.026 A 
HETATM   40  C   UNL     1       5.382  29.525  51.162  1.00  0.00     0.033 A 
ENDBRANCH  30  33
ENDBRANCH   9  29
TORSDOF 8
ENDMDL
MODEL 6
REMARK VINA RESULT:      -9.0      2.744      5.373
REMARK  8 active torsions:
REMARK  status: ('A' for Active; 'I' for Inactive)
REMARK    1  A    between atoms: C_4  and  S_5 
REMARK    2  A    between atoms: S_5  and  C_6 
REMARK    3  A    between atoms: C_6  and  C_7 
REMARK       I    between atoms: C_7  and  N_8 
REMARK    4  A    between atoms: N_8  and  C_9 
REMARK    5  A    between atoms: C_9  and  C_10 
REMARK    6  A    between atoms: C_20  and  C_21 
REMARK    7  A    between atoms: C_26  and  C_27 
REMARK       I    between atoms: C_27  and  N_28 
REMARK    8  A    between atoms: N_28  and  C_29 
ROOT
HETATM    1  C   UNL     1       5.138  32.550  57.587  1.00  0.00     0.069 C 
HETATM    2  C   UNL     1       5.859  31.226  57.515  1.00  0.00     0.019 C 
HETATM    3  N   UNL     1       5.377  30.324  56.572  1.00  0.00    -0.353 N 
HETATM    4  C   UNL     1       5.644  28.960  56.610  1.00  0.00     0.087 C 
HETATM    5  C   UNL     1       6.691  28.535  57.368  1.00  0.00     0.057 C 
HETATM    6  C   UNL     1       6.986  27.054  57.544  1.00  0.00     0.019 C 
HETATM    7  N   UNL     1       7.231  25.826  57.690  1.00  0.00    -0.096 N 
HETATM    8  C   UNL     1       7.572  29.521  58.127  1.00  0.00     0.129 C 
HETATM    9  C   UNL     1       6.892  30.870  58.312  1.00  0.00     0.048 C 
HETATM   10  H   UNL     1       4.497  30.592  56.146  1.00  0.00     0.166 HD
ENDROOT
BRANCH   4  11
HETATM   11  S   UNL     1       4.667  27.756  55.770  1.00  0.00    -0.102 SA
BRANCH  11  12
HETATM   12  C   UNL     1       5.045  28.003  54.018  1.00  0.00     0.183 C 
BRANCH  12  13
HETATM   13  C   UNL     1       4.185  29.088  53.384  1.00  0.00     0.227 C 
HETATM   14  N   UNL     1       4.781  30.323  53.251  1.00  0.00    -0.356 N 
HETATM   15  H   UNL     1       5.505  30.545  53.925  1.00  0.00     0.162 HD
HETATM   16  O   UNL     1       3.075  28.830  52.923  1.00  0.00    -0.273 OA
BRANCH  14  17
HETATM   17  C   UNL     1       4.061  31.427  52.654  1.00  0.00     0.161 C 
BRANCH  17  18
HETATM   18  C   UNL     1       3.597  32.480  53.634  1.00  0.00    -0.041 A 
HETATM   19  C   UNL     1       4.282  33.684  53.859  1.00  0.00     0.009 A 
HETATM   20  C   UNL     1       3.786  34.629  54.762  1.00  0.00     0.001 A 
HETATM   21  C   UNL     1       2.591  34.394  55.437  1.00  0.00     0.000 A 
HETATM   22  C   UNL     1       1.889  33.214  55.212  1.00  0.00     0.001 A 
HETATM   23  C   UNL     1       2.388  32.266  54.318  1.00  0.00     0.009 A 
ENDBRANCH  17  18
ENDBRANCH  14  17
ENDBRANCH  12  13
ENDBRANCH  11  12
ENDBRANCH   4  11
BRANCH   8  24
HETATM   24  C   UNL     1       8.927  29.664  57.480  1.00  0.00     0.066 A 
HETATM   25  O   UNL     1       8.969  29.534  56.121  1.00  0.00    -0.326 OA
HETATM   26  C   UNL     1      10.268  29.673  55.751  1.00  0.00     0.142 A 
HETATM   27  C   UNL     1      11.067  29.863  56.855  1.00  0.00     0.027 A 
HETATM   28  C   UNL     1      10.203  29.852  57.975  1.00  0.00     0.035 A 
ENDBRANCH   8  24
BRANCH   9  29
HETATM   29  C   UNL     1       7.228  31.700  59.506  1.00  0.00     0.255 C 
HETATM   30  N   UNL     1       6.436  31.493  60.615  1.00  0.00    -0.322 N 
HETATM   31  H   UNL     1       5.541  31.037  60.479  1.00  0.00     0.169 HD
HETATM   32  O   UNL     1       8.087  32.572  59.405  1.00  0.00    -0.268 OA
BRANCH  30  33
HETATM   33  C   UNL     1       6.579  32.223  61.820  1.00  0.00     0.057 A 
HETATM   34  C   UNL     1       5.738  33.277  62.231  1.00  0.00     0.062 A 
HETATM   35 CL   UNL     1       4.578  34.022  61.181  1.00  0.00    -0.082 Cl
HETATM   36  C   UNL     1       5.929  33.886  63.475  1.00  0.00     0.050 A 
HETATM   37  C   UNL     1       6.968  33.467  64.301  1.00  0.00     0.035 A 
HETATM   38 CL   UNL     1       7.197  34.213  65.833  1.00  0.00    -0.084 Cl
HETATM   39  C   UNL     1       7.842  32.467  63.882  1.00  0.00     0.026 A 
HETATM   40  C   UNL     1       7.658  31.858  62.638  1.00  0.00     0.033 A 
ENDBRANCH  30  33
ENDBRANCH   9  29
TORSDOF 8
ENDMDL
MODEL 7
REMARK VINA RESULT:      -8.8      4.576      9.642
REMARK  8 active torsions:
REMARK  status: ('A' for Active; 'I' for Inactive)
REMARK    1  A    between atoms: C_4  and  S_5 
REMARK    2  A    between atoms: S_5  and  C_6 
REMARK    3  A    between atoms: C_6  and  C_7 
REMARK       I    between atoms: C_7  and  N_8 
REMARK    4  A    between atoms: N_8  and  C_9 
REMARK    5  A    between atoms: C_9  and  C_10 
REMARK    6  A    between atoms: C_20  and  C_21 
REMARK    7  A    between atoms: C_26  and  C_27 
REMARK       I    between atoms: C_27  and  N_28 
REMARK    8  A    between atoms: N_28  and  C_29 
ROOT
HETATM    1  C   UNL     1       7.234  28.078  53.660  1.00  0.00     0.069 C 
HETATM    2  C   UNL     1       6.053  28.252  52.737  1.00  0.00     0.019 C 
HETATM    3  N   UNL     1       5.682  29.565  52.467  1.00  0.00    -0.353 N 
HETATM    4  C   UNL     1       4.434  29.922  51.969  1.00  0.00     0.087 C 
HETATM    5  C   UNL     1       3.677  28.953  51.388  1.00  0.00     0.057 C 
HETATM    6  C   UNL     1       2.262  29.238  50.912  1.00  0.00     0.019 C 
HETATM    7  N   UNL     1       1.088  29.474  50.516  1.00  0.00    -0.096 N 
HETATM    8  C   UNL     1       4.190  27.524  51.249  1.00  0.00     0.129 C 
HETATM    9  C   UNL     1       5.341  27.234  52.201  1.00  0.00     0.048 C 
HETATM   10  H   UNL     1       6.145  30.259  53.043  1.00  0.00     0.166 HD
ENDROOT
BRANCH   4  11
HETATM   11  S   UNL     1       3.766  31.549  52.100  1.00  0.00    -0.102 SA
BRANCH  11  12
HETATM   12  C   UNL     1       3.058  31.621  53.763  1.00  0.00     0.183 C 
BRANCH  12  13
HETATM   13  C   UNL     1       4.071  32.065  54.809  1.00  0.00     0.227 C 
HETATM   14  N   UNL     1       4.147  31.283  55.941  1.00  0.00    -0.356 N 
HETATM   15  H   UNL     1       3.301  30.786  56.197  1.00  0.00     0.162 HD
HETATM   16  O   UNL     1       4.843  32.997  54.590  1.00  0.00    -0.273 OA
BRANCH  14  17
HETATM   17  C   UNL     1       5.080  31.606  56.998  1.00  0.00     0.161 C 
BRANCH  17  18
HETATM   18  C   UNL     1       6.017  30.482  57.377  1.00  0.00    -0.041 A 
HETATM   19  C   UNL     1       5.830  29.150  56.978  1.00  0.00     0.009 A 
HETATM   20  C   UNL     1       6.748  28.160  57.342  1.00  0.00     0.001 A 
HETATM   21  C   UNL     1       7.875  28.490  58.091  1.00  0.00     0.000 A 
HETATM   22  C   UNL     1       8.086  29.810  58.478  1.00  0.00     0.001 A 
HETATM   23  C   UNL     1       7.165  30.797  58.124  1.00  0.00     0.009 A 
ENDBRANCH  17  18
ENDBRANCH  14  17
ENDBRANCH  12  13
ENDBRANCH  11  12
ENDBRANCH   4  11
BRANCH   8  24
HETATM   24  C   UNL     1       4.552  27.201  49.821  1.00  0.00     0.066 A 
HETATM   25  O   UNL     1       5.238  28.164  49.136  1.00  0.00    -0.326 OA
HETATM   26  C   UNL     1       5.442  27.686  47.882  1.00  0.00     0.142 A 
HETATM   27  C   UNL     1       4.873  26.442  47.741  1.00  0.00     0.027 A 
HETATM   28  C   UNL     1       4.292  26.128  48.992  1.00  0.00     0.035 A 
ENDBRANCH   8  24
BRANCH   9  29
HETATM   29  C   UNL     1       5.541  25.844  52.705  1.00  0.00     0.255 C 
HETATM   30  N   UNL     1       6.816  25.544  53.136  1.00  0.00    -0.322 N 
HETATM   31  H   UNL     1       7.571  26.149  52.833  1.00  0.00     0.169 HD
HETATM   32  O   UNL     1       4.622  25.035  52.604  1.00  0.00    -0.268 OA
BRANCH  30  33
HETATM   33  C   UNL     1       7.200  24.263  53.601  1.00  0.00     0.057 A 
HETATM   34  C   UNL     1       7.046  23.805  54.924  1.00  0.00     0.062 A 
HETATM   35 CL   UNL     1       6.626  24.849  56.242  1.00  0.00    -0.082 Cl
HETATM   36  C   UNL     1       7.399  22.494  55.261  1.00  0.00     0.050 A 
HETATM   37  C   UNL     1       7.927  21.647  54.291  1.00  0.00     0.035 A 
HETATM   38 CL   UNL     1       8.352  20.033  54.704  1.00  0.00    -0.084 Cl
HETATM   39  C   UNL     1       8.138  22.105  52.993  1.00  0.00     0.026 A 
HETATM   40  C   UNL     1       7.791  23.416  52.653  1.00  0.00     0.033 A 
ENDBRANCH  30  33
ENDBRANCH   9  29
TORSDOF 8
ENDMDL
MODEL 8
REMARK VINA RESULT:      -8.7      3.836     10.653
REMARK  8 active torsions:
REMARK  status: ('A' for Active; 'I' for Inactive)
REMARK    1  A    between atoms: C_4  and  S_5 
REMARK    2  A    between atoms: S_5  and  C_6 
REMARK    3  A    between atoms: C_6  and  C_7 
REMARK       I    between atoms: C_7  and  N_8 
REMARK    4  A    between atoms: N_8  and  C_9 
REMARK    5  A    between atoms: C_9  and  C_10 
REMARK    6  A    between atoms: C_20  and  C_21 
REMARK    7  A    between atoms: C_26  and  C_27 
REMARK       I    between atoms: C_27  and  N_28 
REMARK    8  A    between atoms: N_28  and  C_29 
ROOT
HETATM    1  C   UNL     1       8.992  27.917  56.975  1.00  0.00     0.069 C 
HETATM    2  C   UNL     1       7.636  28.490  56.640  1.00  0.00     0.019 C 
HETATM    3  N   UNL     1       7.407  29.795  57.062  1.00  0.00    -0.353 N 
HETATM    4  C   UNL     1       6.138  30.349  57.188  1.00  0.00     0.087 C 
HETATM    5  C   UNL     1       5.108  29.737  56.543  1.00  0.00     0.057 C 
HETATM    6  C   UNL     1       3.677  30.220  56.711  1.00  0.00     0.019 C 
HETATM    7  N   UNL     1       2.489  30.620  56.850  1.00  0.00    -0.096 N 
HETATM    8  C   UNL     1       5.336  28.503  55.678  1.00  0.00     0.129 C 
HETATM    9  C   UNL     1       6.654  27.814  56.000  1.00  0.00     0.048 C 
HETATM   10  H   UNL     1       8.116  30.165  57.686  1.00  0.00     0.166 HD
ENDROOT
BRANCH   4  11
HETATM   11  S   UNL     1       5.792  31.768  58.176  1.00  0.00    -0.102 SA
BRANCH  11  12
HETATM   12  C   UNL     1       7.200  31.895  59.303  1.00  0.00     0.183 C 
BRANCH  12  13
HETATM   13  C   UNL     1       6.777  31.925  60.765  1.00  0.00     0.227 C 
HETATM   14  N   UNL     1       5.493  32.364  61.008  1.00  0.00    -0.356 N 
HETATM   15  H   UNL     1       5.105  33.009  60.329  1.00  0.00     0.162 HD
HETATM   16  O   UNL     1       7.506  31.476  61.647  1.00  0.00    -0.273 OA
BRANCH  14  17
HETATM   17  C   UNL     1       4.980  32.426  62.360  1.00  0.00     0.161 C 
BRANCH  17  18
HETATM   18  C   UNL     1       4.925  33.816  62.950  1.00  0.00    -0.041 A 
HETATM   19  C   UNL     1       5.783  34.857  62.562  1.00  0.00     0.009 A 
HETATM   20  C   UNL     1       5.664  36.129  63.130  1.00  0.00     0.001 A 
HETATM   21  C   UNL     1       4.676  36.385  64.077  1.00  0.00     0.000 A 
HETATM   22  C   UNL     1       3.804  35.369  64.459  1.00  0.00     0.001 A 
HETATM   23  C   UNL     1       3.928  34.097  63.900  1.00  0.00     0.009 A 
ENDBRANCH  17  18
ENDBRANCH  14  17
ENDBRANCH  12  13
ENDBRANCH  11  12
ENDBRANCH   4  11
BRANCH   8  24
HETATM   24  C   UNL     1       5.220  28.826  54.210  1.00  0.00     0.066 A 
HETATM   25  O   UNL     1       6.139  28.243  53.385  1.00  0.00    -0.326 OA
HETATM   26  C   UNL     1       5.872  28.679  52.126  1.00  0.00     0.142 A 
HETATM   27  C   UNL     1       4.812  29.555  52.133  1.00  0.00     0.027 A 
HETATM   28  C   UNL     1       4.392  29.657  53.480  1.00  0.00     0.035 A 
ENDBRANCH   8  24
BRANCH   9  29
HETATM   29  C   UNL     1       6.776  26.340  55.801  1.00  0.00     0.255 C 
HETATM   30  N   UNL     1       7.634  25.944  54.798  1.00  0.00    -0.322 N 
HETATM   31  H   UNL     1       7.893  26.632  54.099  1.00  0.00     0.169 HD
HETATM   32  O   UNL     1       6.045  25.589  56.441  1.00  0.00    -0.268 OA
BRANCH  30  33
HETATM   33  C   UNL     1       7.838  24.591  54.437  1.00  0.00     0.057 A 
HETATM   34  C   UNL     1       8.361  23.598  55.288  1.00  0.00     0.062 A 
HETATM   35 CL   UNL     1       9.099  23.956  56.815  1.00  0.00    -0.082 Cl
HETATM   36  C   UNL     1       8.458  22.273  54.849  1.00  0.00     0.050 A 
HETATM   37  C   UNL     1       8.060  21.939  53.558  1.00  0.00     0.035 A 
HETATM   38 CL   UNL     1       8.173  20.309  53.023  1.00  0.00    -0.084 Cl
HETATM   39  C   UNL     1       7.597  22.921  52.686  1.00  0.00     0.026 A 
HETATM   40  C   UNL     1       7.502  24.247  53.119  1.00  0.00     0.033 A 
ENDBRANCH  30  33
ENDBRANCH   9  29
TORSDOF 8
ENDMDL
MODEL 9
REMARK VINA RESULT:      -8.7      2.907      4.289
REMARK  8 active torsions:
REMARK  status: ('A' for Active; 'I' for Inactive)
REMARK    1  A    between atoms: C_4  and  S_5 
REMARK    2  A    between atoms: S_5  and  C_6 
REMARK    3  A    between atoms: C_6  and  C_7 
REMARK       I    between atoms: C_7  and  N_8 
REMARK    4  A    between atoms: N_8  and  C_9 
REMARK    5  A    between atoms: C_9  and  C_10 
REMARK    6  A    between atoms: C_20  and  C_21 
REMARK    7  A    between atoms: C_26  and  C_27 
REMARK       I    between atoms: C_27  and  N_28 
REMARK    8  A    between atoms: N_28  and  C_29 
ROOT
HETATM    1  C   UNL     1       4.687  31.686  55.732  1.00  0.00     0.069 C 
HETATM    2  C   UNL     1       5.594  30.565  56.181  1.00  0.00     0.019 C 
HETATM    3  N   UNL     1       5.665  29.465  55.333  1.00  0.00    -0.353 N 
HETATM    4  C   UNL     1       6.124  28.216  55.734  1.00  0.00     0.087 C 
HETATM    5  C   UNL     1       6.862  28.143  56.875  1.00  0.00     0.057 C 
HETATM    6  C   UNL     1       7.314  26.805  57.436  1.00  0.00     0.019 C 
HETATM    7  N   UNL     1       7.690  25.695  57.902  1.00  0.00    -0.096 N 
HETATM    8  C   UNL     1       7.211  29.394  57.674  1.00  0.00     0.129 C 
HETATM    9  C   UNL     1       6.294  30.561  57.338  1.00  0.00     0.048 C 
HETATM   10  H   UNL     1       4.980  29.467  54.585  1.00  0.00     0.166 HD
ENDROOT
BRANCH   4  11
HETATM   11  S   UNL     1       5.756  26.723  54.871  1.00  0.00    -0.102 SA
BRANCH  11  12
HETATM   12  C   UNL     1       7.150  26.492  53.742  1.00  0.00     0.183 C 
BRANCH  12  13
HETATM   13  C   UNL     1       6.720  25.934  52.392  1.00  0.00     0.227 C 
HETATM   14  N   UNL     1       5.573  26.478  51.856  1.00  0.00    -0.356 N 
HETATM   15  H   UNL     1       4.899  26.841  52.520  1.00  0.00     0.162 HD
HETATM   16  O   UNL     1       7.426  25.133  51.783  1.00  0.00    -0.273 OA
BRANCH  14  17
HETATM   17  C   UNL     1       5.076  26.031  50.573  1.00  0.00     0.161 C 
BRANCH  17  18
HETATM   18  C   UNL     1       4.737  27.141  49.606  1.00  0.00    -0.041 A 
HETATM   19  C   UNL     1       4.425  28.449  50.006  1.00  0.00     0.009 A 
HETATM   20  C   UNL     1       4.144  29.438  49.059  1.00  0.00     0.001 A 
HETATM   21  C   UNL     1       4.191  29.140  47.699  1.00  0.00     0.000 A 
HETATM   22  C   UNL     1       4.518  27.853  47.284  1.00  0.00     0.001 A 
HETATM   23  C   UNL     1       4.789  26.862  48.229  1.00  0.00     0.009 A 
ENDBRANCH  17  18
ENDBRANCH  14  17
ENDBRANCH  12  13
ENDBRANCH  11  12
ENDBRANCH   4  11
BRANCH   8  24
HETATM   24  C   UNL     1       8.665  29.763  57.518  1.00  0.00     0.066 A 
HETATM   25  O   UNL     1       9.249  29.441  56.326  1.00  0.00    -0.326 OA
HETATM   26  C   UNL     1      10.546  29.836  56.403  1.00  0.00     0.142 A 
HETATM   27  C   UNL     1      10.812  30.383  57.636  1.00  0.00     0.027 A 
HETATM   28  C   UNL     1       9.599  30.332  58.362  1.00  0.00     0.035 A 
ENDBRANCH   8  24
BRANCH   9  29
HETATM   29  C   UNL     1       6.009  31.589  58.382  1.00  0.00     0.255 C 
HETATM   30  N   UNL     1       4.823  31.428  59.067  1.00  0.00    -0.322 N 
HETATM   31  H   UNL     1       4.116  30.831  58.653  1.00  0.00     0.169 HD
HETATM   32  O   UNL     1       6.761  32.553  58.491  1.00  0.00    -0.268 OA
BRANCH  30  33
HETATM   33  C   UNL     1       4.367  32.331  60.057  1.00  0.00     0.057 A 
HETATM   34  C   UNL     1       3.540  33.446  59.813  1.00  0.00     0.062 A 
HETATM   35 CL   UNL     1       3.196  34.036  58.221  1.00  0.00    -0.082 Cl
HETATM   36  C   UNL     1       3.092  34.236  60.877  1.00  0.00     0.050 A 
HETATM   37  C   UNL     1       3.484  33.936  62.178  1.00  0.00     0.035 A 
HETATM   38 CL   UNL     1       2.927  34.904  63.485  1.00  0.00    -0.084 Cl
HETATM   39  C   UNL     1       4.349  32.872  62.427  1.00  0.00     0.026 A 
HETATM   40  C   UNL     1       4.802  32.082  61.367  1.00  0.00     0.033 A 
ENDBRANCH  30  33
ENDBRANCH   9  29
TORSDOF 8
ENDMDL
MODEL 10
REMARK VINA RESULT:      -8.6      6.778     10.361
REMARK  8 active torsions:
REMARK  status: ('A' for Active; 'I' for Inactive)
REMARK    1  A    between atoms: C_4  and  S_5 
REMARK    2  A    between atoms: S_5  and  C_6 
REMARK    3  A    between atoms: C_6  and  C_7 
REMARK       I    between atoms: C_7  and  N_8 
REMARK    4  A    between atoms: N_8  and  C_9 
REMARK    5  A    between atoms: C_9  and  C_10 
REMARK    6  A    between atoms: C_20  and  C_21 
REMARK    7  A    between atoms: C_26  and  C_27 
REMARK       I    between atoms: C_27  and  N_28 
REMARK    8  A    between atoms: N_28  and  C_29 
ROOT
HETATM    1  C   UNL     1       4.598  26.398  49.795  1.00  0.00     0.069 C 
HETATM    2  C   UNL     1       4.672  27.541  50.778  1.00  0.00     0.019 C 
HETATM    3  N   UNL     1       5.645  27.429  51.766  1.00  0.00    -0.353 N 
HETATM    4  C   UNL     1       5.624  28.159  52.949  1.00  0.00     0.087 C 
HETATM    5  C   UNL     1       4.842  29.271  52.999  1.00  0.00     0.057 C 
HETATM    6  C   UNL     1       4.684  30.066  54.285  1.00  0.00     0.019 C 
HETATM    7  N   UNL     1       4.552  30.725  55.352  1.00  0.00    -0.096 N 
HETATM    8  C   UNL     1       4.039  29.731  51.787  1.00  0.00     0.129 C 
HETATM    9  C   UNL     1       3.851  28.615  50.769  1.00  0.00     0.048 C 
HETATM   10  H   UNL     1       6.093  26.521  51.813  1.00  0.00     0.166 HD
ENDROOT
BRANCH   4  11
HETATM   11  S   UNL     1       6.514  27.688  54.396  1.00  0.00    -0.102 SA
BRANCH  11  12
HETATM   12  C   UNL     1       5.298  26.828  55.422  1.00  0.00     0.183 C 
BRANCH  12  13
HETATM   13  C   UNL     1       5.883  25.609  56.122  1.00  0.00     0.227 C 
HETATM   14  N   UNL     1       7.008  25.067  55.541  1.00  0.00    -0.356 N 
HETATM   15  H   UNL     1       7.104  25.203  54.541  1.00  0.00     0.162 HD
HETATM   16  O   UNL     1       5.433  25.218  57.198  1.00  0.00    -0.273 OA
BRANCH  14  17
HETATM   17  C   UNL     1       7.654  23.911  56.125  1.00  0.00     0.161 C 
BRANCH  17  18
HETATM   18  C   UNL     1       7.810  22.736  55.188  1.00  0.00    -0.041 A 
HETATM   19  C   UNL     1       7.914  21.406  55.624  1.00  0.00     0.009 A 
HETATM   20  C   UNL     1       8.032  20.360  54.704  1.00  0.00     0.001 A 
HETATM   21  C   UNL     1       8.028  20.625  53.337  1.00  0.00     0.000 A 
HETATM   22  C   UNL     1       7.907  21.936  52.886  1.00  0.00     0.001 A 
HETATM   23  C   UNL     1       7.799  22.982  53.804  1.00  0.00     0.009 A 
ENDBRANCH  17  18
ENDBRANCH  14  17
ENDBRANCH  12  13
ENDBRANCH  11  12
ENDBRANCH   4  11
BRANCH   8  24
HETATM   24  C   UNL     1       4.642  30.963  51.159  1.00  0.00     0.066 A 
HETATM   25  O   UNL     1       5.741  30.768  50.371  1.00  0.00    -0.326 OA
HETATM   26  C   UNL     1       6.131  31.991  49.930  1.00  0.00     0.142 A 
HETATM   27  C   UNL     1       5.316  32.973  50.443  1.00  0.00     0.027 A 
HETATM   28  C   UNL     1       4.356  32.312  51.243  1.00  0.00     0.035 A 
ENDBRANCH   8  24
BRANCH   9  29
HETATM   29  C   UNL     1       2.632  28.611  49.908  1.00  0.00     0.255 C 
HETATM   30  N   UNL     1       2.857  28.783  48.558  1.00  0.00    -0.322 N 
HETATM   31  H   UNL     1       3.748  29.174  48.274  1.00  0.00     0.169 HD
HETATM   32  O   UNL     1       1.526  28.571  50.439  1.00  0.00    -0.268 OA
BRANCH  30  33
HETATM   33  C   UNL     1       1.818  28.852  47.599  1.00  0.00     0.057 A 
HETATM   34  C   UNL     1       1.300  27.752  46.888  1.00  0.00     0.062 A 
HETATM   35 CL   UNL     1       2.058  26.193  46.878  1.00  0.00    -0.082 Cl
HETATM   36  C   UNL     1       0.225  27.923  46.010  1.00  0.00     0.050 A 
HETATM   37  C   UNL     1      -0.319  29.190  45.818  1.00  0.00     0.035 A 
HETATM   38 CL   UNL     1      -1.645  29.397  44.744  1.00  0.00    -0.084 Cl
HETATM   39  C   UNL     1       0.221  30.296  46.470  1.00  0.00     0.026 A 
HETATM   40  C   UNL     1       1.298  30.130  47.345  1.00  0.00     0.033 A 
ENDBRANCH  30  33
ENDBRANCH   9  29
TORSDOF 8
ENDMDL
