MODEL 1
REMARK VINA RESULT:      -9.1      0.000      0.000
REMARK  5 active torsions:
REMARK  status: ('A' for Active; 'I' for Inactive)
REMARK    1  A    between atoms: C_4  and  N_5 
REMARK    2  A    between atoms: N_5  and  C_6 
REMARK    3  A    between atoms: C_6  and  C_7 
REMARK       I    between atoms: C_7  and  N_8 
REMARK    4  A    between atoms: N_8  and  N_9 
REMARK    5  A    between atoms: C_10  and  C_11 
ROOT
HETATM    1  C   UNL     1       6.689  28.870  57.529  1.00  0.00     0.250 C 
HETATM    2  N   UNL     1       7.892  28.169  57.514  1.00  0.00    -0.246 N 
HETATM    3  O   UNL     1       5.561  28.387  57.460  1.00  0.00    -0.270 OA
HETATM    4  H   UNL     1       8.712  28.667  57.857  1.00  0.00     0.192 HD
ENDROOT
BRANCH   2   5
HETATM    5  N   UNL     1       8.051  26.805  57.465  1.00  0.00    -0.184 NA
HETATM    6  C   UNL     1       7.951  26.193  56.328  1.00  0.00     0.152 C 
BRANCH   6   7
HETATM    7  C   UNL     1       8.082  24.749  56.282  1.00  0.00     0.011 A 
HETATM    8  C   UNL     1       7.974  23.914  55.121  1.00  0.00     0.004 A 
HETATM    9  C   UNL     1       8.172  22.596  55.534  1.00  0.00     0.043 A 
HETATM   10  C   UNL     1       7.715  24.156  53.756  1.00  0.00     0.014 A 
HETATM   11  C   UNL     1       8.128  21.510  54.652  1.00  0.00     0.030 A 
HETATM   12  N   UNL     1       8.392  22.626  56.892  1.00  0.00    -0.364 N 
HETATM   13  C   UNL     1       7.868  21.778  53.305  1.00  0.00     0.002 A 
HETATM   14  C   UNL     1       7.664  23.082  52.860  1.00  0.00     0.001 A 
HETATM   15  H   UNL     1       8.565  21.810  57.462  1.00  0.00     0.165 HD
HETATM   16  C   UNL     1       8.334  23.913  57.353  1.00  0.00     0.102 A 
ENDBRANCH   6   7
ENDBRANCH   2   5
BRANCH   1  17
HETATM   17  C   UNL     1       6.907  30.380  57.656  1.00  0.00     0.197 C 
BRANCH  17  18
HETATM   18  N   UNL     1       6.468  30.840  58.983  1.00  0.00    -0.284 NA
HETATM   19  H   UNL     1       5.757  31.568  58.897  1.00  0.00     0.128 HD
BRANCH  18  20
HETATM   20  C   UNL     1       7.477  31.266  59.869  1.00  0.00     0.009 A 
HETATM   21  C   UNL     1       7.225  31.654  61.192  1.00  0.00     0.030 A 
HETATM   22  C   UNL     1       8.251  32.132  62.025  1.00  0.00    -0.060 A 
HETATM   23  C   UNL     1       7.970  32.491  63.454  1.00  0.00     0.048 C 
HETATM   24  C   UNL     1       9.550  32.230  61.520  1.00  0.00     0.007 A 
HETATM   25  C   UNL     1       9.809  31.898  60.193  1.00  0.00     0.002 A 
HETATM   26  C   UNL     1       8.775  31.440  59.373  1.00  0.00     0.023 A 
ENDBRANCH  18  20
ENDBRANCH  17  18
ENDBRANCH   1  17
TORSDOF 5
ENDMDL
MODEL 2
REMARK VINA RESULT:      -8.9      1.474      9.741
REMARK  5 active torsions:
REMARK  status: ('A' for Active; 'I' for Inactive)
REMARK    1  A    between atoms: C_4  and  N_5 
REMARK    2  A    between atoms: N_5  and  C_6 
REMARK    3  A    between atoms: C_6  and  C_7 
REMARK       I    between atoms: C_7  and  N_8 
REMARK    4  A    between atoms: N_8  and  N_9 
REMARK    5  A    between atoms: C_10  and  C_11 
ROOT
HETATM    1  C   UNL     1       7.723  26.213  57.171  1.00  0.00     0.250 C 
HETATM    2  N   UNL     1       7.301  27.494  56.824  1.00  0.00    -0.246 N 
HETATM    3  O   UNL     1       7.911  25.789  58.308  1.00  0.00    -0.270 OA
HETATM    4  H   UNL     1       6.924  27.609  55.884  1.00  0.00     0.192 HD
ENDROOT
BRANCH   2   5
HETATM    5  N   UNL     1       6.972  28.515  57.684  1.00  0.00    -0.184 NA
HETATM    6  C   UNL     1       7.513  29.680  57.525  1.00  0.00     0.152 C 
BRANCH   6   7
HETATM    7  C   UNL     1       7.193  30.747  58.455  1.00  0.00     0.011 A 
HETATM    8  C   UNL     1       7.866  31.042  59.686  1.00  0.00     0.004 A 
HETATM    9  C   UNL     1       7.232  32.149  60.254  1.00  0.00     0.043 A 
HETATM   10  C   UNL     1       8.950  30.463  60.378  1.00  0.00     0.014 A 
HETATM   11  C   UNL     1       7.631  32.707  61.474  1.00  0.00     0.030 A 
HETATM   12  N   UNL     1       6.216  32.513  59.403  1.00  0.00    -0.364 N 
HETATM   13  C   UNL     1       8.707  32.113  62.139  1.00  0.00     0.002 A 
HETATM   14  C   UNL     1       9.360  31.006  61.602  1.00  0.00     0.001 A 
HETATM   15  H   UNL     1       5.586  33.287  59.561  1.00  0.00     0.165 HD
HETATM   16  C   UNL     1       6.178  31.675  58.322  1.00  0.00     0.102 A 
ENDBRANCH   6   7
ENDBRANCH   2   5
BRANCH   1  17
HETATM   17  C   UNL     1       7.933  25.326  55.941  1.00  0.00     0.197 C 
BRANCH  17  18
HETATM   18  N   UNL     1       7.064  24.142  56.022  1.00  0.00    -0.284 NA
HETATM   19  H   UNL     1       6.603  24.093  56.932  1.00  0.00     0.128 HD
BRANCH  18  20
HETATM   20  C   UNL     1       7.658  22.901  55.725  1.00  0.00     0.009 A 
HETATM   21  C   UNL     1       7.631  22.319  54.450  1.00  0.00     0.030 A 
HETATM   22  C   UNL     1       8.184  21.049  54.210  1.00  0.00    -0.060 A 
HETATM   23  C   UNL     1       8.191  20.468  52.827  1.00  0.00     0.048 C 
HETATM   24  C   UNL     1       8.766  20.347  55.268  1.00  0.00     0.007 A 
HETATM   25  C   UNL     1       8.757  20.886  56.552  1.00  0.00     0.002 A 
HETATM   26  C   UNL     1       8.189  22.143  56.778  1.00  0.00     0.023 A 
ENDBRANCH  18  20
ENDBRANCH  17  18
ENDBRANCH   1  17
TORSDOF 5
ENDMDL
MODEL 3
REMARK VINA RESULT:      -8.8      1.721      2.287
REMARK  5 active torsions:
REMARK  status: ('A' for Active; 'I' for Inactive)
REMARK    1  A    between atoms: C_4  and  N_5 
REMARK    2  A    between atoms: N_5  and  C_6 
REMARK    3  A    between atoms: C_6  and  C_7 
REMARK       I    between atoms: C_7  and  N_8 
REMARK    4  A    between atoms: N_8  and  N_9 
REMARK    5  A    between atoms: C_10  and  C_11 
ROOT
HETATM    1  C   UNL     1       8.119  28.447  57.143  1.00  0.00     0.250 C 
HETATM    2  N   UNL     1       7.264  27.574  56.476  1.00  0.00    -0.246 N 
HETATM    3  O   UNL     1       9.334  28.543  56.985  1.00  0.00    -0.270 OA
HETATM    4  H   UNL     1       6.271  27.801  56.505  1.00  0.00     0.192 HD
ENDROOT
BRANCH   2   5
HETATM    5  N   UNL     1       7.602  26.685  55.484  1.00  0.00    -0.184 NA
HETATM    6  C   UNL     1       6.973  25.557  55.400  1.00  0.00     0.152 C 
BRANCH   6   7
HETATM    7  C   UNL     1       7.355  24.603  54.375  1.00  0.00     0.011 A 
HETATM    8  C   UNL     1       7.570  23.196  54.550  1.00  0.00     0.004 A 
HETATM    9  C   UNL     1       7.917  22.669  53.305  1.00  0.00     0.043 A 
HETATM   10  C   UNL     1       7.512  22.322  55.656  1.00  0.00     0.014 A 
HETATM   11  C   UNL     1       8.205  21.312  53.110  1.00  0.00     0.030 A 
HETATM   12  N   UNL     1       7.914  23.711  52.409  1.00  0.00    -0.364 N 
HETATM   13  C   UNL     1       8.141  20.469  54.222  1.00  0.00     0.002 A 
HETATM   14  C   UNL     1       7.800  20.963  55.479  1.00  0.00     0.001 A 
HETATM   15  H   UNL     1       8.130  23.623  51.426  1.00  0.00     0.165 HD
HETATM   16  C   UNL     1       7.584  24.879  53.041  1.00  0.00     0.102 A 
ENDBRANCH   6   7
ENDBRANCH   2   5
BRANCH   1  17
HETATM   17  C   UNL     1       7.370  29.335  58.140  1.00  0.00     0.197 C 
BRANCH  17  18
HETATM   18  N   UNL     1       8.098  30.599  58.331  1.00  0.00    -0.284 NA
HETATM   19  H   UNL     1       9.033  30.545  57.923  1.00  0.00     0.128 HD
BRANCH  18  20
HETATM   20  C   UNL     1       8.186  31.084  59.650  1.00  0.00     0.009 A 
HETATM   21  C   UNL     1       7.361  32.101  60.153  1.00  0.00     0.030 A 
HETATM   22  C   UNL     1       7.523  32.598  61.458  1.00  0.00    -0.060 A 
HETATM   23  C   UNL     1       6.595  33.648  61.995  1.00  0.00     0.048 C 
HETATM   24  C   UNL     1       8.533  32.074  62.268  1.00  0.00     0.007 A 
HETATM   25  C   UNL     1       9.393  31.101  61.769  1.00  0.00     0.002 A 
HETATM   26  C   UNL     1       9.231  30.628  60.464  1.00  0.00     0.023 A 
ENDBRANCH  18  20
ENDBRANCH  17  18
ENDBRANCH   1  17
TORSDOF 5
ENDMDL
MODEL 4
REMARK VINA RESULT:      -8.8      2.027      3.304
REMARK  5 active torsions:
REMARK  status: ('A' for Active; 'I' for Inactive)
REMARK    1  A    between atoms: C_4  and  N_5 
REMARK    2  A    between atoms: N_5  and  C_6 
REMARK    3  A    between atoms: C_6  and  C_7 
REMARK       I    between atoms: C_7  and  N_8 
REMARK    4  A    between atoms: N_8  and  N_9 
REMARK    5  A    between atoms: C_10  and  C_11 
ROOT
HETATM    1  C   UNL     1       5.601  27.576  56.206  1.00  0.00     0.250 C 
HETATM    2  N   UNL     1       6.344  27.133  55.115  1.00  0.00    -0.246 N 
HETATM    3  O   UNL     1       4.888  26.888  56.933  1.00  0.00    -0.270 OA
HETATM    4  H   UNL     1       7.089  27.749  54.792  1.00  0.00     0.192 HD
ENDROOT
BRANCH   2   5
HETATM    5  N   UNL     1       6.460  25.838  54.668  1.00  0.00    -0.184 NA
HETATM    6  C   UNL     1       7.614  25.252  54.710  1.00  0.00     0.152 C 
BRANCH   6   7
HETATM    7  C   UNL     1       7.744  23.898  54.205  1.00  0.00     0.011 A 
HETATM    8  C   UNL     1       7.985  22.714  54.975  1.00  0.00     0.004 A 
HETATM    9  C   UNL     1       8.033  21.639  54.086  1.00  0.00     0.043 A 
HETATM   10  C   UNL     1       8.178  22.456  56.349  1.00  0.00     0.014 A 
HETATM   11  C   UNL     1       8.260  20.321  54.502  1.00  0.00     0.030 A 
HETATM   12  N   UNL     1       7.830  22.148  52.825  1.00  0.00    -0.364 N 
HETATM   13  C   UNL     1       8.449  20.094  55.868  1.00  0.00     0.002 A 
HETATM   14  C   UNL     1       8.410  21.144  56.781  1.00  0.00     0.001 A 
HETATM   15  H   UNL     1       7.813  21.595  51.980  1.00  0.00     0.165 HD
HETATM   16  C   UNL     1       7.661  23.504  52.883  1.00  0.00     0.102 A 
ENDBRANCH   6   7
ENDBRANCH   2   5
BRANCH   1  17
HETATM   17  C   UNL     1       5.766  29.080  56.439  1.00  0.00     0.197 C 
BRANCH  17  18
HETATM   18  N   UNL     1       6.170  29.330  57.832  1.00  0.00    -0.284 NA
HETATM   19  H   UNL     1       5.440  29.836  58.335  1.00  0.00     0.128 HD
BRANCH  18  20
HETATM   20  C   UNL     1       7.409  29.973  58.024  1.00  0.00     0.009 A 
HETATM   21  C   UNL     1       8.605  29.526  57.446  1.00  0.00     0.030 A 
HETATM   22  C   UNL     1       9.831  30.160  57.713  1.00  0.00    -0.060 A 
HETATM   23  C   UNL     1      11.091  29.700  57.042  1.00  0.00     0.048 C 
HETATM   24  C   UNL     1       9.858  31.255  58.581  1.00  0.00     0.007 A 
HETATM   25  C   UNL     1       8.688  31.680  59.205  1.00  0.00     0.002 A 
HETATM   26  C   UNL     1       7.480  31.029  58.942  1.00  0.00     0.023 A 
ENDBRANCH  18  20
ENDBRANCH  17  18
ENDBRANCH   1  17
TORSDOF 5
ENDMDL
MODEL 5
REMARK VINA RESULT:      -8.8      1.388      1.605
REMARK  5 active torsions:
REMARK  status: ('A' for Active; 'I' for Inactive)
REMARK    1  A    between atoms: C_4  and  N_5 
REMARK    2  A    between atoms: N_5  and  C_6 
REMARK    3  A    between atoms: C_6  and  C_7 
REMARK       I    between atoms: C_7  and  N_8 
REMARK    4  A    between atoms: N_8  and  N_9 
REMARK    5  A    between atoms: C_10  and  C_11 
ROOT
HETATM    1  C   UNL     1       8.128  29.532  58.156  1.00  0.00     0.250 C 
HETATM    2  N   UNL     1       7.296  28.433  57.964  1.00  0.00    -0.246 N 
HETATM    3  O   UNL     1       9.355  29.518  58.216  1.00  0.00    -0.270 OA
HETATM    4  H   UNL     1       6.344  28.632  57.659  1.00  0.00     0.192 HD
ENDROOT
BRANCH   2   5
HETATM    5  N   UNL     1       7.684  27.130  57.759  1.00  0.00    -0.184 NA
HETATM    6  C   UNL     1       7.576  26.612  56.578  1.00  0.00     0.152 C 
BRANCH   6   7
HETATM    7  C   UNL     1       7.951  25.226  56.370  1.00  0.00     0.011 A 
HETATM    8  C   UNL     1       7.905  24.500  55.135  1.00  0.00     0.004 A 
HETATM    9  C   UNL     1       8.358  23.205  55.394  1.00  0.00     0.043 A 
HETATM   10  C   UNL     1       7.509  24.821  53.819  1.00  0.00     0.014 A 
HETATM   11  C   UNL     1       8.438  22.219  54.404  1.00  0.00     0.030 A 
HETATM   12  N   UNL     1       8.668  23.145  56.732  1.00  0.00    -0.364 N 
HETATM   13  C   UNL     1       8.039  22.563  53.110  1.00  0.00     0.002 A 
HETATM   14  C   UNL     1       7.580  23.845  52.818  1.00  0.00     0.001 A 
HETATM   15  H   UNL     1       9.021  22.323  57.202  1.00  0.00     0.165 HD
HETATM   16  C   UNL     1       8.422  24.351  57.331  1.00  0.00     0.102 A 
ENDBRANCH   6   7
ENDBRANCH   2   5
BRANCH   1  17
HETATM   17  C   UNL     1       7.336  30.836  58.284  1.00  0.00     0.197 C 
BRANCH  17  18
HETATM   18  N   UNL     1       8.169  31.868  58.920  1.00  0.00    -0.284 NA
HETATM   19  H   UNL     1       9.160  31.693  58.746  1.00  0.00     0.128 HD
BRANCH  18  20
HETATM   20  C   UNL     1       7.962  32.087  60.296  1.00  0.00     0.009 A 
HETATM   21  C   UNL     1       6.885  32.827  60.804  1.00  0.00     0.030 A 
HETATM   22  C   UNL     1       6.749  33.073  62.181  1.00  0.00    -0.060 A 
HETATM   23  C   UNL     1       5.561  33.822  62.709  1.00  0.00     0.048 C 
HETATM   24  C   UNL     1       7.712  32.576  63.062  1.00  0.00     0.007 A 
HETATM   25  C   UNL     1       8.815  31.883  62.571  1.00  0.00     0.002 A 
HETATM   26  C   UNL     1       8.946  31.660  61.198  1.00  0.00     0.023 A 
ENDBRANCH  18  20
ENDBRANCH  17  18
ENDBRANCH   1  17
TORSDOF 5
ENDMDL
MODEL 6
REMARK VINA RESULT:      -8.7      5.952      9.389
REMARK  5 active torsions:
REMARK  status: ('A' for Active; 'I' for Inactive)
REMARK    1  A    between atoms: C_4  and  N_5 
REMARK    2  A    between atoms: N_5  and  C_6 
REMARK    3  A    between atoms: C_6  and  C_7 
REMARK       I    between atoms: C_7  and  N_8 
REMARK    4  A    between atoms: N_8  and  N_9 
REMARK    5  A    between atoms: C_10  and  C_11 
ROOT
HETATM    1  C   UNL     1       5.587  27.537  51.881  1.00  0.00     0.250 C 
HETATM    2  N   UNL     1       5.657  26.147  51.894  1.00  0.00    -0.246 N 
HETATM    3  O   UNL     1       5.842  28.291  52.818  1.00  0.00    -0.270 OA
HETATM    4  H   UNL     1       5.693  25.685  50.986  1.00  0.00     0.192 HD
ENDROOT
BRANCH   2   5
HETATM    5  N   UNL     1       6.066  25.351  52.938  1.00  0.00    -0.184 NA
HETATM    6  C   UNL     1       7.324  25.082  53.078  1.00  0.00     0.152 C 
BRANCH   6   7
HETATM    7  C   UNL     1       7.751  24.212  54.159  1.00  0.00     0.011 A 
HETATM    8  C   UNL     1       8.004  22.804  54.077  1.00  0.00     0.004 A 
HETATM    9  C   UNL     1       8.396  22.375  55.347  1.00  0.00     0.043 A 
HETATM   10  C   UNL     1       7.927  21.848  53.042  1.00  0.00     0.014 A 
HETATM   11  C   UNL     1       8.717  21.042  55.631  1.00  0.00     0.030 A 
HETATM   12  N   UNL     1       8.381  23.478  56.168  1.00  0.00    -0.364 N 
HETATM   13  C   UNL     1       8.631  20.117  54.588  1.00  0.00     0.002 A 
HETATM   14  C   UNL     1       8.242  20.511  53.310  1.00  0.00     0.001 A 
HETATM   15  H   UNL     1       8.621  23.465  57.149  1.00  0.00     0.165 HD
HETATM   16  C   UNL     1       7.989  24.586  55.467  1.00  0.00     0.102 A 
ENDBRANCH   6   7
ENDBRANCH   2   5
BRANCH   1  17
HETATM   17  C   UNL     1       5.150  28.077  50.517  1.00  0.00     0.197 C 
BRANCH  17  18
HETATM   18  N   UNL     1       3.692  27.947  50.369  1.00  0.00    -0.284 NA
HETATM   19  H   UNL     1       3.289  27.464  51.173  1.00  0.00     0.128 HD
BRANCH  18  20
HETATM   20  C   UNL     1       3.228  27.354  49.179  1.00  0.00     0.009 A 
HETATM   21  C   UNL     1       2.049  27.748  48.532  1.00  0.00     0.030 A 
HETATM   22  C   UNL     1       1.589  27.089  47.379  1.00  0.00    -0.060 A 
HETATM   23  C   UNL     1       0.353  27.561  46.671  1.00  0.00     0.048 C 
HETATM   24  C   UNL     1       2.319  26.011  46.872  1.00  0.00     0.007 A 
HETATM   25  C   UNL     1       3.464  25.572  47.531  1.00  0.00     0.002 A 
HETATM   26  C   UNL     1       3.900  26.228  48.685  1.00  0.00     0.023 A 
ENDBRANCH  18  20
ENDBRANCH  17  18
ENDBRANCH   1  17
TORSDOF 5
ENDMDL
MODEL 7
REMARK VINA RESULT:      -8.6      6.751     10.244
REMARK  5 active torsions:
REMARK  status: ('A' for Active; 'I' for Inactive)
REMARK    1  A    between atoms: C_4  and  N_5 
REMARK    2  A    between atoms: N_5  and  C_6 
REMARK    3  A    between atoms: C_6  and  C_7 
REMARK       I    between atoms: C_7  and  N_8 
REMARK    4  A    between atoms: N_8  and  N_9 
REMARK    5  A    between atoms: C_10  and  C_11 
ROOT
HETATM    1  C   UNL     1       5.660  26.456  52.429  1.00  0.00     0.250 C 
HETATM    2  N   UNL     1       5.937  26.181  51.092  1.00  0.00    -0.246 N 
HETATM    3  O   UNL     1       4.547  26.589  52.932  1.00  0.00    -0.270 OA
HETATM    4  H   UNL     1       6.870  25.826  50.886  1.00  0.00     0.192 HD
ENDROOT
BRANCH   2   5
HETATM    5  N   UNL     1       5.024  25.960  50.090  1.00  0.00    -0.184 NA
HETATM    6  C   UNL     1       4.530  26.968  49.445  1.00  0.00     0.152 C 
BRANCH   6   7
HETATM    7  C   UNL     1       3.538  26.736  48.411  1.00  0.00     0.011 A 
HETATM    8  C   UNL     1       2.477  27.621  48.027  1.00  0.00     0.004 A 
HETATM    9  C   UNL     1       1.771  27.002  46.994  1.00  0.00     0.043 A 
HETATM   10  C   UNL     1       2.045  28.889  48.469  1.00  0.00     0.014 A 
HETATM   11  C   UNL     1       0.657  27.588  46.380  1.00  0.00     0.030 A 
HETATM   12  N   UNL     1       2.376  25.790  46.759  1.00  0.00    -0.364 N 
HETATM   13  C   UNL     1       0.250  28.844  46.838  1.00  0.00     0.002 A 
HETATM   14  C   UNL     1       0.931  29.488  47.868  1.00  0.00     0.001 A 
HETATM   15  H   UNL     1       2.075  25.124  46.062  1.00  0.00     0.165 HD
HETATM   16  C   UNL     1       3.435  25.616  47.609  1.00  0.00     0.102 A 
ENDBRANCH   6   7
ENDBRANCH   2   5
BRANCH   1  17
HETATM   17  C   UNL     1       6.936  26.577  53.266  1.00  0.00     0.197 C 
BRANCH  17  18
HETATM   18  N   UNL     1       7.918  25.571  52.832  1.00  0.00    -0.284 NA
HETATM   19  H   UNL     1       7.853  25.413  51.824  1.00  0.00     0.128 HD
BRANCH  18  20
HETATM   20  C   UNL     1       7.897  24.335  53.506  1.00  0.00     0.009 A 
HETATM   21  C   UNL     1       8.008  23.100  52.853  1.00  0.00     0.030 A 
HETATM   22  C   UNL     1       7.920  21.887  53.557  1.00  0.00    -0.060 A 
HETATM   23  C   UNL     1       8.095  20.577  52.847  1.00  0.00     0.048 C 
HETATM   24  C   UNL     1       7.710  21.913  54.938  1.00  0.00     0.007 A 
HETATM   25  C   UNL     1       7.546  23.128  55.596  1.00  0.00     0.002 A 
HETATM   26  C   UNL     1       7.619  24.326  54.880  1.00  0.00     0.023 A 
ENDBRANCH  18  20
ENDBRANCH  17  18
ENDBRANCH   1  17
TORSDOF 5
ENDMDL
MODEL 8
REMARK VINA RESULT:      -8.3      6.546      9.318
REMARK  5 active torsions:
REMARK  status: ('A' for Active; 'I' for Inactive)
REMARK    1  A    between atoms: C_4  and  N_5 
REMARK    2  A    between atoms: N_5  and  C_6 
REMARK    3  A    between atoms: C_6  and  C_7 
REMARK       I    between atoms: C_7  and  N_8 
REMARK    4  A    between atoms: N_8  and  N_9 
REMARK    5  A    between atoms: C_10  and  C_11 
ROOT
HETATM    1  C   UNL     1       5.342  26.350  52.074  1.00  0.00     0.250 C 
HETATM    2  N   UNL     1       6.291  25.354  51.861  1.00  0.00    -0.246 N 
HETATM    3  O   UNL     1       4.528  26.399  52.994  1.00  0.00    -0.270 OA
HETATM    4  H   UNL     1       7.063  25.589  51.238  1.00  0.00     0.192 HD
ENDROOT
BRANCH   2   5
HETATM    5  N   UNL     1       6.533  24.261  52.657  1.00  0.00    -0.184 NA
HETATM    6  C   UNL     1       7.608  23.564  52.472  1.00  0.00     0.152 C 
BRANCH   6   7
HETATM    7  C   UNL     1       7.844  22.388  53.289  1.00  0.00     0.011 A 
HETATM    8  C   UNL     1       8.013  22.351  54.712  1.00  0.00     0.004 A 
HETATM    9  C   UNL     1       8.212  21.018  55.075  1.00  0.00     0.043 A 
HETATM   10  C   UNL     1       8.027  23.331  55.727  1.00  0.00     0.014 A 
HETATM   11  C   UNL     1       8.418  20.616  56.400  1.00  0.00     0.030 A 
HETATM   12  N   UNL     1       8.165  20.273  53.920  1.00  0.00    -0.364 N 
HETATM   13  C   UNL     1       8.428  21.607  57.385  1.00  0.00     0.002 A 
HETATM   14  C   UNL     1       8.236  22.947  57.057  1.00  0.00     0.001 A 
HETATM   15  H   UNL     1       8.278  19.269  53.880  1.00  0.00     0.165 HD
HETATM   16  C   UNL     1       7.951  21.085  52.840  1.00  0.00     0.102 A 
ENDBRANCH   6   7
ENDBRANCH   2   5
BRANCH   1  17
HETATM   17  C   UNL     1       5.411  27.446  51.008  1.00  0.00     0.197 C 
BRANCH  17  18
HETATM   18  N   UNL     1       5.457  26.841  49.668  1.00  0.00    -0.284 NA
HETATM   19  H   UNL     1       6.261  27.187  49.142  1.00  0.00     0.128 HD
BRANCH  18  20
HETATM   20  C   UNL     1       4.294  26.955  48.883  1.00  0.00     0.009 A 
HETATM   21  C   UNL     1       3.361  27.991  49.036  1.00  0.00     0.030 A 
HETATM   22  C   UNL     1       2.182  28.034  48.273  1.00  0.00    -0.060 A 
HETATM   23  C   UNL     1       1.223  29.180  48.413  1.00  0.00     0.048 C 
HETATM   24  C   UNL     1       1.929  27.018  47.348  1.00  0.00     0.007 A 
HETATM   25  C   UNL     1       2.818  25.955  47.219  1.00  0.00     0.002 A 
HETATM   26  C   UNL     1       3.979  25.917  47.996  1.00  0.00     0.023 A 
ENDBRANCH  18  20
ENDBRANCH  17  18
ENDBRANCH   1  17
TORSDOF 5
ENDMDL
MODEL 9
REMARK VINA RESULT:      -8.0      5.459      9.295
REMARK  5 active torsions:
REMARK  status: ('A' for Active; 'I' for Inactive)
REMARK    1  A    between atoms: C_4  and  N_5 
REMARK    2  A    between atoms: N_5  and  C_6 
REMARK    3  A    between atoms: C_6  and  C_7 
REMARK       I    between atoms: C_7  and  N_8 
REMARK    4  A    between atoms: N_8  and  N_9 
REMARK    5  A    between atoms: C_10  and  C_11 
ROOT
HETATM    1  C   UNL     1       6.133  26.905  54.352  1.00  0.00     0.250 C 
HETATM    2  N   UNL     1       6.350  27.122  52.994  1.00  0.00    -0.246 N 
HETATM    3  O   UNL     1       5.133  27.224  54.992  1.00  0.00    -0.270 OA
HETATM    4  H   UNL     1       7.082  26.564  52.557  1.00  0.00     0.192 HD
ENDROOT
BRANCH   2   5
HETATM    5  N   UNL     1       5.475  27.691  52.100  1.00  0.00    -0.184 NA
HETATM    6  C   UNL     1       5.357  27.184  50.915  1.00  0.00     0.152 C 
BRANCH   6   7
HETATM    7  C   UNL     1       4.461  27.807  49.959  1.00  0.00     0.011 A 
HETATM    8  C   UNL     1       3.709  27.148  48.932  1.00  0.00     0.004 A 
HETATM    9  C   UNL     1       2.981  28.127  48.252  1.00  0.00     0.043 A 
HETATM   10  C   UNL     1       3.586  25.807  48.508  1.00  0.00     0.014 A 
HETATM   11  C   UNL     1       2.136  27.832  47.176  1.00  0.00     0.030 A 
HETATM   12  N   UNL     1       3.278  29.333  48.842  1.00  0.00    -0.364 N 
HETATM   13  C   UNL     1       2.034  26.497  46.776  1.00  0.00     0.002 A 
HETATM   14  C   UNL     1       2.748  25.496  47.431  1.00  0.00     0.001 A 
HETATM   15  H   UNL     1       2.894  30.222  48.553  1.00  0.00     0.165 HD
HETATM   16  C   UNL     1       4.171  29.155  49.864  1.00  0.00     0.102 A 
ENDBRANCH   6   7
ENDBRANCH   2   5
BRANCH   1  17
HETATM   17  C   UNL     1       7.310  26.185  55.014  1.00  0.00     0.197 C 
BRANCH  17  18
HETATM   18  N   UNL     1       6.846  24.941  55.647  1.00  0.00    -0.284 NA
HETATM   19  H   UNL     1       7.108  24.917  56.634  1.00  0.00     0.128 HD
BRANCH  18  20
HETATM   20  C   UNL     1       7.230  23.736  55.027  1.00  0.00     0.009 A 
HETATM   21  C   UNL     1       7.544  22.570  55.739  1.00  0.00     0.030 A 
HETATM   22  C   UNL     1       7.982  21.406  55.085  1.00  0.00    -0.060 A 
HETATM   23  C   UNL     1       8.261  20.152  55.861  1.00  0.00     0.048 C 
HETATM   24  C   UNL     1       8.116  21.413  53.694  1.00  0.00     0.007 A 
HETATM   25  C   UNL     1       7.859  22.577  52.975  1.00  0.00     0.002 A 
HETATM   26  C   UNL     1       7.439  23.732  53.641  1.00  0.00     0.023 A 
ENDBRANCH  18  20
ENDBRANCH  17  18
ENDBRANCH   1  17
TORSDOF 5
ENDMDL
MODEL 10
REMARK VINA RESULT:      -8.0      2.032      3.374
REMARK  5 active torsions:
REMARK  status: ('A' for Active; 'I' for Inactive)
REMARK    1  A    between atoms: C_4  and  N_5 
REMARK    2  A    between atoms: N_5  and  C_6 
REMARK    3  A    between atoms: C_6  and  C_7 
REMARK       I    between atoms: C_7  and  N_8 
REMARK    4  A    between atoms: N_8  and  N_9 
REMARK    5  A    between atoms: C_10  and  C_11 
ROOT
HETATM    1  C   UNL     1       6.523  31.332  58.365  1.00  0.00     0.250 C 
HETATM    2  N   UNL     1       7.221  30.132  58.477  1.00  0.00    -0.246 N 
HETATM    3  O   UNL     1       5.838  31.693  57.411  1.00  0.00    -0.270 OA
HETATM    4  H   UNL     1       7.503  29.856  59.416  1.00  0.00     0.192 HD
ENDROOT
BRANCH   2   5
HETATM    5  N   UNL     1       7.245  29.104  57.565  1.00  0.00    -0.184 NA
HETATM    6  C   UNL     1       6.236  28.296  57.491  1.00  0.00     0.152 C 
BRANCH   6   7
HETATM    7  C   UNL     1       6.277  27.189  56.554  1.00  0.00     0.011 A 
HETATM    8  C   UNL     1       7.145  26.050  56.609  1.00  0.00     0.004 A 
HETATM    9  C   UNL     1       6.839  25.237  55.517  1.00  0.00     0.043 A 
HETATM   10  C   UNL     1       8.174  25.638  57.483  1.00  0.00     0.014 A 
HETATM   11  C   UNL     1       7.506  24.034  55.257  1.00  0.00     0.030 A 
HETATM   12  N   UNL     1       5.825  25.856  54.824  1.00  0.00    -0.364 N 
HETATM   13  C   UNL     1       8.521  23.650  56.137  1.00  0.00     0.002 A 
HETATM   14  C   UNL     1       8.853  24.439  57.236  1.00  0.00     0.001 A 
HETATM   15  H   UNL     1       5.401  25.492  53.982  1.00  0.00     0.165 HD
HETATM   16  C   UNL     1       5.483  27.032  55.434  1.00  0.00     0.102 A 
ENDBRANCH   6   7
ENDBRANCH   2   5
BRANCH   1  17
HETATM   17  C   UNL     1       6.684  32.207  59.611  1.00  0.00     0.197 C 
BRANCH  17  18
HETATM   18  N   UNL     1       6.867  31.359  60.799  1.00  0.00    -0.284 NA
HETATM   19  H   UNL     1       6.217  30.571  60.785  1.00  0.00     0.128 HD
BRANCH  18  20
HETATM   20  C   UNL     1       6.803  32.003  62.050  1.00  0.00     0.009 A 
HETATM   21  C   UNL     1       5.617  32.522  62.588  1.00  0.00     0.030 A 
HETATM   22  C   UNL     1       5.607  33.212  63.813  1.00  0.00    -0.060 A 
HETATM   23  C   UNL     1       4.319  33.713  64.397  1.00  0.00     0.048 C 
HETATM   24  C   UNL     1       6.807  33.392  64.505  1.00  0.00     0.007 A 
HETATM   25  C   UNL     1       8.002  32.928  63.961  1.00  0.00     0.002 A 
HETATM   26  C   UNL     1       7.998  32.258  62.735  1.00  0.00     0.023 A 
ENDBRANCH  18  20
ENDBRANCH  17  18
ENDBRANCH   1  17
TORSDOF 5
ENDMDL
