MODEL 1
REMARK VINA RESULT:      -9.4      0.000      0.000
REMARK  5 active torsions:
REMARK  status: ('A' for Active; 'I' for Inactive)
REMARK    1  A    between atoms: C_5  and  C_6 
REMARK    2  A    between atoms: C_9  and  O_10 
REMARK    3  A    between atoms: N_14  and  C_15 
REMARK    4  A    between atoms: C_15  and  C_16 
REMARK       I    between atoms: C_16  and  N_17 
REMARK    5  A    between atoms: N_17  and  C_18 
ROOT
HETATM    1  C   UNL     1       9.497  24.420  57.461  1.00  0.00     0.156 C 
HETATM    2  N   UNL     1       8.444  24.480  56.476  1.00  0.00    -0.346 N 
HETATM    3  C   UNL     1       7.430  25.377  56.455  1.00  0.00     0.113 A 
HETATM    4  C   UNL     1       6.635  25.145  55.364  1.00  0.00     0.014 A 
HETATM    5  C   UNL     1       5.529  26.136  55.316  1.00  0.00     0.158 C 
HETATM    6  N   UNL     1       5.936  27.018  56.436  1.00  0.00    -0.325 N 
HETATM    7  C   UNL     1       7.001  26.522  57.186  1.00  0.00     0.272 C 
HETATM    8  O   UNL     1       7.459  26.985  58.216  1.00  0.00    -0.266 OA
HETATM    9  C   UNL     1       7.189  24.077  54.635  1.00  0.00     0.002 A 
HETATM   10  C   UNL     1       8.341  23.677  55.345  1.00  0.00     0.045 A 
HETATM   11  C   UNL     1       6.869  23.428  53.428  1.00  0.00     0.014 A 
HETATM   12  C   UNL     1       7.699  22.407  52.953  1.00  0.00     0.001 A 
HETATM   13  C   UNL     1       8.833  22.026  53.665  1.00  0.00     0.002 A 
HETATM   14  C   UNL     1       9.173  22.649  54.870  1.00  0.00     0.030 A 
ENDROOT
BRANCH   6  15
HETATM   15  C   UNL     1       5.257  28.267  56.721  1.00  0.00     0.229 C 
BRANCH  15  16
HETATM   16  C   UNL     1       6.190  29.454  56.918  1.00  0.00     0.235 C 
HETATM   17  N   UNL     1       6.221  29.968  58.200  1.00  0.00    -0.355 N 
HETATM   18  H   UNL     1       5.737  29.439  58.919  1.00  0.00     0.162 HD
HETATM   19  O   UNL     1       6.942  29.838  56.023  1.00  0.00    -0.272 OA
BRANCH  17  20
HETATM   20  C   UNL     1       7.304  30.845  58.592  1.00  0.00     0.084 C 
HETATM   21  C   UNL     1       6.908  31.878  59.637  1.00  0.00     0.025 C 
HETATM   22  C   UNL     1       8.256  32.351  60.163  1.00  0.00     0.002 C 
HETATM   23  C   UNL     1       9.130  31.100  60.189  1.00  0.00     0.002 C 
HETATM   24  C   UNL     1       8.454  30.088  59.264  1.00  0.00     0.025 C 
ENDBRANCH  17  20
ENDBRANCH  15  16
ENDBRANCH   6  15
BRANCH   5  25
HETATM   25  C   UNL     1       5.539  26.779  53.953  1.00  0.00    -0.030 A 
HETATM   26  C   UNL     1       4.632  26.332  52.980  1.00  0.00     0.012 A 
HETATM   27  C   UNL     1       4.607  26.910  51.709  1.00  0.00     0.037 A 
HETATM   28  C   UNL     1       5.479  27.949  51.381  1.00  0.00     0.068 A 
HETATM   29  C   UNL     1       6.389  28.399  52.337  1.00  0.00     0.037 A 
HETATM   30  C   UNL     1       6.420  27.817  53.610  1.00  0.00     0.012 A 
BRANCH  28  31
HETATM   31  O   UNL     1       5.343  28.429  50.109  1.00  0.00    -0.356 OA
HETATM   32  C   UNL     1       4.679  27.587  49.175  1.00  0.00     0.210 C 
ENDBRANCH  28  31
ENDBRANCH   5  25
TORSDOF 5
ENDMDL
MODEL 2
REMARK VINA RESULT:      -9.3      2.354      7.584
REMARK  5 active torsions:
REMARK  status: ('A' for Active; 'I' for Inactive)
REMARK    1  A    between atoms: C_5  and  C_6 
REMARK    2  A    between atoms: C_9  and  O_10 
REMARK    3  A    between atoms: N_14  and  C_15 
REMARK    4  A    between atoms: C_15  and  C_16 
REMARK       I    between atoms: C_16  and  N_17 
REMARK    5  A    between atoms: N_17  and  C_18 
ROOT
HETATM    1  C   UNL     1       4.853  26.411  50.719  1.00  0.00     0.156 C 
HETATM    2  N   UNL     1       4.786  27.163  51.948  1.00  0.00    -0.346 N 
HETATM    3  C   UNL     1       5.014  26.674  53.190  1.00  0.00     0.113 A 
HETATM    4  C   UNL     1       4.882  27.679  54.111  1.00  0.00     0.014 A 
HETATM    5  C   UNL     1       5.151  27.161  55.477  1.00  0.00     0.158 C 
HETATM    6  N   UNL     1       5.597  25.787  55.139  1.00  0.00    -0.325 N 
HETATM    7  C   UNL     1       5.420  25.450  53.798  1.00  0.00     0.272 C 
HETATM    8  O   UNL     1       5.596  24.362  53.280  1.00  0.00    -0.266 OA
HETATM    9  C   UNL     1       4.596  28.871  53.422  1.00  0.00     0.002 A 
HETATM   10  C   UNL     1       4.552  28.531  52.053  1.00  0.00     0.045 A 
HETATM   11  C   UNL     1       4.410  30.214  53.799  1.00  0.00     0.014 A 
HETATM   12  C   UNL     1       4.192  31.183  52.813  1.00  0.00     0.001 A 
HETATM   13  C   UNL     1       4.154  30.830  51.467  1.00  0.00     0.002 A 
HETATM   14  C   UNL     1       4.329  29.502  51.063  1.00  0.00     0.030 A 
ENDROOT
BRANCH   6  15
HETATM   15  C   UNL     1       6.140  24.885  56.136  1.00  0.00     0.229 C 
BRANCH  15  16
HETATM   16  C   UNL     1       7.367  24.109  55.673  1.00  0.00     0.235 C 
HETATM   17  N   UNL     1       7.180  22.747  55.534  1.00  0.00    -0.355 N 
HETATM   18  H   UNL     1       6.228  22.403  55.616  1.00  0.00     0.162 HD
HETATM   19  O   UNL     1       8.402  24.682  55.336  1.00  0.00    -0.272 OA
BRANCH  17  20
HETATM   20  C   UNL     1       8.139  21.969  54.778  1.00  0.00     0.084 C 
HETATM   21  C   UNL     1       8.237  20.518  55.227  1.00  0.00     0.025 C 
HETATM   22  C   UNL     1       8.946  19.856  54.053  1.00  0.00     0.002 C 
HETATM   23  C   UNL     1       8.384  20.546  52.813  1.00  0.00     0.002 C 
HETATM   24  C   UNL     1       7.762  21.856  53.298  1.00  0.00     0.025 C 
ENDBRANCH  17  20
ENDBRANCH  15  16
ENDBRANCH   6  15
BRANCH   5  25
HETATM   25  C   UNL     1       6.199  28.040  56.111  1.00  0.00    -0.030 A 
HETATM   26  C   UNL     1       7.430  28.212  55.459  1.00  0.00     0.012 A 
HETATM   27  C   UNL     1       8.421  29.026  56.012  1.00  0.00     0.037 A 
HETATM   28  C   UNL     1       8.207  29.689  57.221  1.00  0.00     0.068 A 
HETATM   29  C   UNL     1       6.991  29.522  57.882  1.00  0.00     0.037 A 
HETATM   30  C   UNL     1       5.997  28.702  57.332  1.00  0.00     0.012 A 
BRANCH  28  31
HETATM   31  O   UNL     1       9.255  30.458  57.644  1.00  0.00    -0.356 OA
HETATM   32  C   UNL     1      10.551  30.069  57.208  1.00  0.00     0.210 C 
ENDBRANCH  28  31
ENDBRANCH   5  25
TORSDOF 5
ENDMDL
MODEL 3
REMARK VINA RESULT:      -9.3      2.777      7.991
REMARK  5 active torsions:
REMARK  status: ('A' for Active; 'I' for Inactive)
REMARK    1  A    between atoms: C_5  and  C_6 
REMARK    2  A    between atoms: C_9  and  O_10 
REMARK    3  A    between atoms: N_14  and  C_15 
REMARK    4  A    between atoms: C_15  and  C_16 
REMARK       I    between atoms: C_16  and  N_17 
REMARK    5  A    between atoms: N_17  and  C_18 
ROOT
HETATM    1  C   UNL     1       3.596  30.295  51.400  1.00  0.00     0.156 C 
HETATM    2  N   UNL     1       3.965  29.791  52.702  1.00  0.00    -0.346 N 
HETATM    3  C   UNL     1       4.789  28.745  52.942  1.00  0.00     0.113 A 
HETATM    4  C   UNL     1       4.925  28.569  54.293  1.00  0.00     0.014 A 
HETATM    5  C   UNL     1       5.845  27.436  54.573  1.00  0.00     0.158 C 
HETATM    6  N   UNL     1       6.300  27.139  53.193  1.00  0.00    -0.325 N 
HETATM    7  C   UNL     1       5.603  27.835  52.207  1.00  0.00     0.272 C 
HETATM    8  O   UNL     1       5.696  27.699  50.999  1.00  0.00    -0.266 OA
HETATM    9  C   UNL     1       4.186  29.573  54.944  1.00  0.00     0.002 A 
HETATM   10  C   UNL     1       3.596  30.347  53.923  1.00  0.00     0.045 A 
HETATM   11  C   UNL     1       3.983  29.942  56.287  1.00  0.00     0.014 A 
HETATM   12  C   UNL     1       3.207  31.069  56.582  1.00  0.00     0.001 A 
HETATM   13  C   UNL     1       2.633  31.822  55.562  1.00  0.00     0.002 A 
HETATM   14  C   UNL     1       2.813  31.476  54.219  1.00  0.00     0.030 A 
ENDROOT
BRANCH   6  15
HETATM   15  C   UNL     1       7.358  26.186  52.917  1.00  0.00     0.229 C 
BRANCH  15  16
HETATM   16  C   UNL     1       6.930  24.729  53.026  1.00  0.00     0.235 C 
HETATM   17  N   UNL     1       7.922  23.855  53.427  1.00  0.00    -0.355 N 
HETATM   18  H   UNL     1       8.796  24.266  53.741  1.00  0.00     0.162 HD
HETATM   19  O   UNL     1       5.756  24.390  52.882  1.00  0.00    -0.272 OA
BRANCH  17  20
HETATM   20  C   UNL     1       7.563  22.536  53.901  1.00  0.00     0.084 C 
HETATM   21  C   UNL     1       8.517  21.441  53.446  1.00  0.00     0.025 C 
HETATM   22  C   UNL     1       8.180  20.295  54.389  1.00  0.00     0.002 C 
HETATM   23  C   UNL     1       7.897  20.960  55.733  1.00  0.00     0.002 C 
HETATM   24  C   UNL     1       7.610  22.431  55.428  1.00  0.00     0.025 C 
ENDBRANCH  17  20
ENDBRANCH  15  16
ENDBRANCH   6  15
BRANCH   5  25
HETATM   25  C   UNL     1       6.917  27.926  55.512  1.00  0.00    -0.030 A 
HETATM   26  C   UNL     1       7.953  28.727  55.006  1.00  0.00     0.012 A 
HETATM   27  C   UNL     1       8.959  29.206  55.848  1.00  0.00     0.037 A 
HETATM   28  C   UNL     1       8.952  28.906  57.210  1.00  0.00     0.068 A 
HETATM   29  C   UNL     1       7.931  28.107  57.725  1.00  0.00     0.037 A 
HETATM   30  C   UNL     1       6.925  27.620  56.882  1.00  0.00     0.012 A 
BRANCH  28  31
HETATM   31  O   UNL     1       9.988  29.445  57.920  1.00  0.00    -0.356 OA
HETATM   32  C   UNL     1      11.108  29.899  57.171  1.00  0.00     0.210 C 
ENDBRANCH  28  31
ENDBRANCH   5  25
TORSDOF 5
ENDMDL
MODEL 4
REMARK VINA RESULT:      -8.8      2.073      4.927
REMARK  5 active torsions:
REMARK  status: ('A' for Active; 'I' for Inactive)
REMARK    1  A    between atoms: C_5  and  C_6 
REMARK    2  A    between atoms: C_9  and  O_10 
REMARK    3  A    between atoms: N_14  and  C_15 
REMARK    4  A    between atoms: C_15  and  C_16 
REMARK       I    between atoms: C_16  and  N_17 
REMARK    5  A    between atoms: N_17  and  C_18 
ROOT
HETATM    1  C   UNL     1       3.509  30.281  54.047  1.00  0.00     0.156 C 
HETATM    2  N   UNL     1       4.511  29.333  53.625  1.00  0.00    -0.346 N 
HETATM    3  C   UNL     1       5.574  28.923  54.357  1.00  0.00     0.113 A 
HETATM    4  C   UNL     1       6.296  28.004  53.645  1.00  0.00     0.014 A 
HETATM    5  C   UNL     1       7.454  27.529  54.446  1.00  0.00     0.158 C 
HETATM    6  N   UNL     1       7.157  28.200  55.734  1.00  0.00    -0.325 N 
HETATM    7  C   UNL     1       6.106  29.113  55.666  1.00  0.00     0.272 C 
HETATM    8  O   UNL     1       5.729  29.875  56.540  1.00  0.00    -0.266 OA
HETATM    9  C   UNL     1       5.643  27.788  52.417  1.00  0.00     0.002 A 
HETATM   10  C   UNL     1       4.508  28.626  52.426  1.00  0.00     0.045 A 
HETATM   11  C   UNL     1       5.862  26.944  51.313  1.00  0.00     0.014 A 
HETATM   12  C   UNL     1       4.951  26.947  50.252  1.00  0.00     0.001 A 
HETATM   13  C   UNL     1       3.835  27.778  50.277  1.00  0.00     0.002 A 
HETATM   14  C   UNL     1       3.595  28.632  51.359  1.00  0.00     0.030 A 
ENDROOT
BRANCH   6  15
HETATM   15  C   UNL     1       7.922  27.935  56.938  1.00  0.00     0.229 C 
BRANCH  15  16
HETATM   16  C   UNL     1       8.644  29.152  57.499  1.00  0.00     0.235 C 
HETATM   17  N   UNL     1       8.130  29.644  58.682  1.00  0.00    -0.355 N 
HETATM   18  H   UNL     1       7.417  29.085  59.142  1.00  0.00     0.162 HD
HETATM   19  O   UNL     1       9.679  29.579  56.988  1.00  0.00    -0.272 OA
BRANCH  17  20
HETATM   20  C   UNL     1       8.923  30.554  59.482  1.00  0.00     0.084 C 
HETATM   21  C   UNL     1       8.421  31.990  59.453  1.00  0.00     0.025 C 
HETATM   22  C   UNL     1       9.124  32.611  60.652  1.00  0.00     0.002 C 
HETATM   23  C   UNL     1       9.136  31.515  61.714  1.00  0.00     0.002 C 
HETATM   24  C   UNL     1       8.892  30.200  60.972  1.00  0.00     0.025 C 
ENDBRANCH  17  20
ENDBRANCH  15  16
ENDBRANCH   6  15
BRANCH   5  25
HETATM   25  C   UNL     1       7.410  26.023  54.480  1.00  0.00    -0.030 A 
HETATM   26  C   UNL     1       7.974  25.299  53.417  1.00  0.00     0.012 A 
HETATM   27  C   UNL     1       7.959  23.902  53.419  1.00  0.00     0.037 A 
HETATM   28  C   UNL     1       7.390  23.197  54.480  1.00  0.00     0.068 A 
HETATM   29  C   UNL     1       6.821  23.903  55.539  1.00  0.00     0.037 A 
HETATM   30  C   UNL     1       6.830  25.303  55.537  1.00  0.00     0.012 A 
BRANCH  28  31
HETATM   31  O   UNL     1       7.450  21.837  54.359  1.00  0.00    -0.356 OA
HETATM   32  C   UNL     1       7.985  21.326  53.145  1.00  0.00     0.210 C 
ENDBRANCH  28  31
ENDBRANCH   5  25
TORSDOF 5
ENDMDL
MODEL 5
REMARK VINA RESULT:      -8.5      2.646      7.136
REMARK  5 active torsions:
REMARK  status: ('A' for Active; 'I' for Inactive)
REMARK    1  A    between atoms: C_5  and  C_6 
REMARK    2  A    between atoms: C_9  and  O_10 
REMARK    3  A    between atoms: N_14  and  C_15 
REMARK    4  A    between atoms: C_15  and  C_16 
REMARK       I    between atoms: C_16  and  N_17 
REMARK    5  A    between atoms: N_17  and  C_18 
ROOT
HETATM    1  C   UNL     1       7.139  23.325  52.995  1.00  0.00     0.156 C 
HETATM    2  N   UNL     1       7.303  24.513  53.797  1.00  0.00    -0.346 N 
HETATM    3  C   UNL     1       7.031  25.779  53.402  1.00  0.00     0.113 A 
HETATM    4  C   UNL     1       7.285  26.646  54.432  1.00  0.00     0.014 A 
HETATM    5  C   UNL     1       6.971  28.038  54.020  1.00  0.00     0.158 C 
HETATM    6  N   UNL     1       6.368  27.774  52.691  1.00  0.00    -0.325 N 
HETATM    7  C   UNL     1       6.494  26.452  52.267  1.00  0.00     0.272 C 
HETATM    8  O   UNL     1       6.190  25.992  51.180  1.00  0.00    -0.266 OA
HETATM    9  C   UNL     1       7.699  25.894  55.547  1.00  0.00     0.002 A 
HETATM   10  C   UNL     1       7.692  24.545  55.133  1.00  0.00     0.045 A 
HETATM   11  C   UNL     1       8.041  26.200  56.877  1.00  0.00     0.014 A 
HETATM   12  C   UNL     1       8.360  25.164  57.762  1.00  0.00     0.001 A 
HETATM   13  C   UNL     1       8.345  23.838  57.338  1.00  0.00     0.002 A 
HETATM   14  C   UNL     1       8.015  23.505  56.020  1.00  0.00     0.030 A 
ENDROOT
BRANCH   6  15
HETATM   15  C   UNL     1       5.734  28.818  51.909  1.00  0.00     0.229 C 
BRANCH  15  16
HETATM   16  C   UNL     1       4.421  28.402  51.260  1.00  0.00     0.235 C 
HETATM   17  N   UNL     1       4.486  28.180  49.898  1.00  0.00    -0.355 N 
HETATM   18  H   UNL     1       5.409  28.178  49.476  1.00  0.00     0.162 HD
HETATM   19  O   UNL     1       3.416  28.167  51.931  1.00  0.00    -0.272 OA
BRANCH  17  20
HETATM   20  C   UNL     1       3.419  27.453  49.242  1.00  0.00     0.084 C 
HETATM   21  C   UNL     1       2.927  28.113  47.962  1.00  0.00     0.025 C 
HETATM   22  C   UNL     1       2.161  26.987  47.282  1.00  0.00     0.002 C 
HETATM   23  C   UNL     1       2.967  25.726  47.580  1.00  0.00     0.002 C 
HETATM   24  C   UNL     1       3.862  26.064  48.774  1.00  0.00     0.025 C 
ENDBRANCH  17  20
ENDBRANCH  15  16
ENDBRANCH   6  15
BRANCH   5  25
HETATM   25  C   UNL     1       6.036  28.628  55.044  1.00  0.00    -0.030 A 
HETATM   26  C   UNL     1       6.507  29.639  55.896  1.00  0.00     0.012 A 
HETATM   27  C   UNL     1       5.667  30.215  56.852  1.00  0.00     0.037 A 
HETATM   28  C   UNL     1       4.340  29.801  56.976  1.00  0.00     0.068 A 
HETATM   29  C   UNL     1       3.861  28.793  56.141  1.00  0.00     0.037 A 
HETATM   30  C   UNL     1       4.703  28.211  55.186  1.00  0.00     0.012 A 
BRANCH  28  31
HETATM   31  O   UNL     1       3.627  30.452  57.944  1.00  0.00    -0.356 OA
HETATM   32  C   UNL     1       4.233  31.601  58.521  1.00  0.00     0.210 C 
ENDBRANCH  28  31
ENDBRANCH   5  25
TORSDOF 5
ENDMDL
MODEL 6
REMARK VINA RESULT:      -8.2      3.436      7.442
REMARK  5 active torsions:
REMARK  status: ('A' for Active; 'I' for Inactive)
REMARK    1  A    between atoms: C_5  and  C_6 
REMARK    2  A    between atoms: C_9  and  O_10 
REMARK    3  A    between atoms: N_14  and  C_15 
REMARK    4  A    between atoms: C_15  and  C_16 
REMARK       I    between atoms: C_16  and  N_17 
REMARK    5  A    between atoms: N_17  and  C_18 
ROOT
HETATM    1  C   UNL     1       3.822  28.675  56.055  1.00  0.00     0.156 C 
HETATM    2  N   UNL     1       4.167  29.106  54.721  1.00  0.00    -0.346 N 
HETATM    3  C   UNL     1       4.785  28.354  53.780  1.00  0.00     0.113 A 
HETATM    4  C   UNL     1       4.929  29.084  52.631  1.00  0.00     0.014 A 
HETATM    5  C   UNL     1       5.588  28.264  51.581  1.00  0.00     0.158 C 
HETATM    6  N   UNL     1       5.628  26.955  52.278  1.00  0.00    -0.325 N 
HETATM    7  C   UNL     1       5.254  27.018  53.619  1.00  0.00     0.272 C 
HETATM    8  O   UNL     1       5.302  26.122  54.443  1.00  0.00    -0.266 OA
HETATM    9  C   UNL     1       4.341  30.346  52.835  1.00  0.00     0.002 A 
HETATM   10  C   UNL     1       3.851  30.339  54.158  1.00  0.00     0.045 A 
HETATM   11  C   UNL     1       4.130  31.483  52.033  1.00  0.00     0.014 A 
HETATM   12  C   UNL     1       3.435  32.577  52.559  1.00  0.00     0.001 A 
HETATM   13  C   UNL     1       2.956  32.553  53.866  1.00  0.00     0.002 A 
HETATM   14  C   UNL     1       3.156  31.439  54.688  1.00  0.00     0.030 A 
ENDROOT
BRANCH   6  15
HETATM   15  C   UNL     1       6.049  25.738  51.610  1.00  0.00     0.229 C 
BRANCH  15  16
HETATM   16  C   UNL     1       7.270  25.075  52.233  1.00  0.00     0.235 C 
HETATM   17  N   UNL     1       7.010  23.918  52.942  1.00  0.00    -0.355 N 
HETATM   18  H   UNL     1       6.070  23.539  52.876  1.00  0.00     0.162 HD
HETATM   19  O   UNL     1       8.409  25.485  52.011  1.00  0.00    -0.272 OA
BRANCH  17  20
HETATM   20  C   UNL     1       8.099  23.024  53.273  1.00  0.00     0.084 C 
HETATM   21  C   UNL     1       8.408  22.960  54.761  1.00  0.00     0.025 C 
HETATM   22  C   UNL     1       9.245  21.693  54.872  1.00  0.00     0.002 C 
HETATM   23  C   UNL     1       8.619  20.719  53.878  1.00  0.00     0.002 C 
HETATM   24  C   UNL     1       7.787  21.568  52.915  1.00  0.00     0.025 C 
ENDBRANCH  17  20
ENDBRANCH  15  16
ENDBRANCH   6  15
BRANCH   5  25
HETATM   25  C   UNL     1       4.726  28.309  50.346  1.00  0.00    -0.030 A 
HETATM   26  C   UNL     1       5.333  28.512  49.097  1.00  0.00     0.012 A 
HETATM   27  C   UNL     1       4.567  28.552  47.930  1.00  0.00     0.037 A 
HETATM   28  C   UNL     1       3.183  28.383  47.980  1.00  0.00     0.068 A 
HETATM   29  C   UNL     1       2.566  28.186  49.214  1.00  0.00     0.037 A 
HETATM   30  C   UNL     1       3.331  28.152  50.387  1.00  0.00     0.012 A 
BRANCH  28  31
HETATM   31  O   UNL     1       2.557  28.435  46.766  1.00  0.00    -0.356 OA
HETATM   32  C   UNL     1       1.136  28.413  46.777  1.00  0.00     0.210 C 
ENDBRANCH  28  31
ENDBRANCH   5  25
TORSDOF 5
ENDMDL
MODEL 7
REMARK VINA RESULT:      -8.2      7.993     13.841
REMARK  5 active torsions:
REMARK  status: ('A' for Active; 'I' for Inactive)
REMARK    1  A    between atoms: C_5  and  C_6 
REMARK    2  A    between atoms: C_9  and  O_10 
REMARK    3  A    between atoms: N_14  and  C_15 
REMARK    4  A    between atoms: C_15  and  C_16 
REMARK       I    between atoms: C_16  and  N_17 
REMARK    5  A    between atoms: N_17  and  C_18 
ROOT
HETATM    1  C   UNL     1       6.008  38.856  59.379  1.00  0.00     0.156 C 
HETATM    2  N   UNL     1       5.670  38.659  60.769  1.00  0.00    -0.346 N 
HETATM    3  C   UNL     1       4.793  37.747  61.250  1.00  0.00     0.113 A 
HETATM    4  C   UNL     1       4.743  37.834  62.615  1.00  0.00     0.014 A 
HETATM    5  C   UNL     1       3.800  36.823  63.159  1.00  0.00     0.158 C 
HETATM    6  N   UNL     1       3.480  36.086  61.913  1.00  0.00    -0.325 N 
HETATM    7  C   UNL     1       3.977  36.687  60.758  1.00  0.00     0.272 C 
HETATM    8  O   UNL     1       3.769  36.357  59.603  1.00  0.00    -0.266 OA
HETATM    9  C   UNL     1       5.659  38.819  63.027  1.00  0.00     0.002 A 
HETATM   10  C   UNL     1       6.247  39.322  61.848  1.00  0.00     0.045 A 
HETATM   11  C   UNL     1       6.088  39.316  64.271  1.00  0.00     0.014 A 
HETATM   12  C   UNL     1       7.091  40.290  64.316  1.00  0.00     0.001 A 
HETATM   13  C   UNL     1       7.663  40.774  63.143  1.00  0.00     0.002 A 
HETATM   14  C   UNL     1       7.252  40.304  61.891  1.00  0.00     0.030 A 
ENDROOT
BRANCH   6  15
HETATM   15  C   UNL     1       2.695  34.866  61.917  1.00  0.00     0.229 C 
BRANCH  15  16
HETATM   16  C   UNL     1       3.521  33.592  61.795  1.00  0.00     0.235 C 
HETATM   17  N   UNL     1       4.413  33.571  60.740  1.00  0.00    -0.355 N 
HETATM   18  H   UNL     1       4.540  34.439  60.228  1.00  0.00     0.162 HD
HETATM   19  O   UNL     1       3.473  32.709  62.650  1.00  0.00    -0.272 OA
BRANCH  17  20
HETATM   20  C   UNL     1       5.480  32.593  60.727  1.00  0.00     0.084 C 
HETATM   21  C   UNL     1       6.022  32.299  59.336  1.00  0.00     0.025 C 
HETATM   22  C   UNL     1       7.348  31.614  59.635  1.00  0.00     0.002 C 
HETATM   23  C   UNL     1       7.903  32.344  60.855  1.00  0.00     0.002 C 
HETATM   24  C   UNL     1       6.717  33.069  61.494  1.00  0.00     0.025 C 
ENDBRANCH  17  20
ENDBRANCH  15  16
ENDBRANCH   6  15
BRANCH   5  25
HETATM   25  C   UNL     1       4.528  36.024  64.210  1.00  0.00    -0.030 A 
HETATM   26  C   UNL     1       4.006  35.974  65.511  1.00  0.00     0.012 A 
HETATM   27  C   UNL     1       4.650  35.237  66.509  1.00  0.00     0.037 A 
HETATM   28  C   UNL     1       5.820  34.530  66.230  1.00  0.00     0.068 A 
HETATM   29  C   UNL     1       6.352  34.576  64.943  1.00  0.00     0.037 A 
HETATM   30  C   UNL     1       5.712  35.319  63.943  1.00  0.00     0.012 A 
BRANCH  28  31
HETATM   31  O   UNL     1       6.340  33.846  67.293  1.00  0.00    -0.356 OA
HETATM   32  C   UNL     1       6.259  34.478  68.564  1.00  0.00     0.210 C 
ENDBRANCH  28  31
ENDBRANCH   5  25
TORSDOF 5
ENDMDL
MODEL 8
REMARK VINA RESULT:      -8.1      4.171      7.078
REMARK  5 active torsions:
REMARK  status: ('A' for Active; 'I' for Inactive)
REMARK    1  A    between atoms: C_5  and  C_6 
REMARK    2  A    between atoms: C_9  and  O_10 
REMARK    3  A    between atoms: N_14  and  C_15 
REMARK    4  A    between atoms: C_15  and  C_16 
REMARK       I    between atoms: C_16  and  N_17 
REMARK    5  A    between atoms: N_17  and  C_18 
ROOT
HETATM    1  C   UNL     1      10.388  29.802  56.481  1.00  0.00     0.156 C 
HETATM    2  N   UNL     1       9.082  29.822  57.095  1.00  0.00    -0.346 N 
HETATM    3  C   UNL     1       8.724  30.562  58.172  1.00  0.00     0.113 A 
HETATM    4  C   UNL     1       7.404  30.343  58.460  1.00  0.00     0.014 A 
HETATM    5  C   UNL     1       6.991  31.165  59.627  1.00  0.00     0.158 C 
HETATM    6  N   UNL     1       8.225  31.965  59.817  1.00  0.00    -0.325 N 
HETATM    7  C   UNL     1       9.297  31.545  59.031  1.00  0.00     0.272 C 
HETATM    8  O   UNL     1      10.445  31.950  59.068  1.00  0.00    -0.266 OA
HETATM    9  C   UNL     1       6.886  29.454  57.501  1.00  0.00     0.002 A 
HETATM   10  C   UNL     1       7.957  29.145  56.636  1.00  0.00     0.045 A 
HETATM   11  C   UNL     1       5.616  28.906  57.240  1.00  0.00     0.014 A 
HETATM   12  C   UNL     1       5.439  28.074  56.130  1.00  0.00     0.001 A 
HETATM   13  C   UNL     1       6.507  27.781  55.286  1.00  0.00     0.002 A 
HETATM   14  C   UNL     1       7.781  28.306  55.523  1.00  0.00     0.030 A 
ENDROOT
BRANCH   6  15
HETATM   15  C   UNL     1       8.296  33.064  60.760  1.00  0.00     0.229 C 
BRANCH  15  16
HETATM   16  C   UNL     1       7.927  32.685  62.188  1.00  0.00     0.235 C 
HETATM   17  N   UNL     1       7.236  33.653  62.891  1.00  0.00    -0.355 N 
HETATM   18  H   UNL     1       6.918  34.463  62.367  1.00  0.00     0.162 HD
HETATM   19  O   UNL     1       8.129  31.553  62.627  1.00  0.00    -0.272 OA
BRANCH  17  20
HETATM   20  C   UNL     1       6.534  33.290  64.105  1.00  0.00     0.084 C 
HETATM   21  C   UNL     1       6.986  34.072  65.329  1.00  0.00     0.025 C 
HETATM   22  C   UNL     1       5.853  33.825  66.316  1.00  0.00     0.002 C 
HETATM   23  C   UNL     1       4.584  33.825  65.468  1.00  0.00     0.002 C 
HETATM   24  C   UNL     1       5.036  33.593  64.025  1.00  0.00     0.025 C 
ENDBRANCH  17  20
ENDBRANCH  15  16
ENDBRANCH   6  15
BRANCH   5  25
HETATM   25  C   UNL     1       5.768  31.953  59.233  1.00  0.00    -0.030 A 
HETATM   26  C   UNL     1       5.731  32.568  57.972  1.00  0.00     0.012 A 
HETATM   27  C   UNL     1       4.610  33.300  57.569  1.00  0.00     0.037 A 
HETATM   28  C   UNL     1       3.503  33.428  58.408  1.00  0.00     0.068 A 
HETATM   29  C   UNL     1       3.530  32.826  59.666  1.00  0.00     0.037 A 
HETATM   30  C   UNL     1       4.653  32.097  60.074  1.00  0.00     0.012 A 
BRANCH  28  31
HETATM   31  O   UNL     1       2.474  34.161  57.888  1.00  0.00    -0.356 OA
HETATM   32  C   UNL     1       2.664  34.695  56.584  1.00  0.00     0.210 C 
ENDBRANCH  28  31
ENDBRANCH   5  25
TORSDOF 5
ENDMDL
MODEL 9
REMARK VINA RESULT:      -8.0      3.858      7.711
REMARK  5 active torsions:
REMARK  status: ('A' for Active; 'I' for Inactive)
REMARK    1  A    between atoms: C_5  and  C_6 
REMARK    2  A    between atoms: C_9  and  O_10 
REMARK    3  A    between atoms: N_14  and  C_15 
REMARK    4  A    between atoms: C_15  and  C_16 
REMARK       I    between atoms: C_16  and  N_17 
REMARK    5  A    between atoms: N_17  and  C_18 
ROOT
HETATM    1  C   UNL     1       3.748  32.130  53.803  1.00  0.00     0.156 C 
HETATM    2  N   UNL     1       4.243  31.419  52.649  1.00  0.00    -0.346 N 
HETATM    3  C   UNL     1       4.494  30.090  52.584  1.00  0.00     0.113 A 
HETATM    4  C   UNL     1       4.932  29.766  51.327  1.00  0.00     0.014 A 
HETATM    5  C   UNL     1       5.191  28.306  51.235  1.00  0.00     0.158 C 
HETATM    6  N   UNL     1       4.682  27.879  52.560  1.00  0.00    -0.325 N 
HETATM    7  C   UNL     1       4.364  28.937  53.411  1.00  0.00     0.272 C 
HETATM    8  O   UNL     1       4.034  28.871  54.582  1.00  0.00    -0.266 OA
HETATM    9  C   UNL     1       4.922  30.935  50.544  1.00  0.00     0.002 A 
HETATM   10  C   UNL     1       4.470  31.969  51.390  1.00  0.00     0.045 A 
HETATM   11  C   UNL     1       5.205  31.228  49.197  1.00  0.00     0.014 A 
HETATM   12  C   UNL     1       5.028  32.533  48.723  1.00  0.00     0.001 A 
HETATM   13  C   UNL     1       4.579  33.541  49.572  1.00  0.00     0.002 A 
HETATM   14  C   UNL     1       4.296  33.280  50.917  1.00  0.00     0.030 A 
ENDROOT
BRANCH   6  15
HETATM   15  C   UNL     1       4.559  26.481  52.926  1.00  0.00     0.229 C 
BRANCH  15  16
HETATM   16  C   UNL     1       5.771  25.918  53.656  1.00  0.00     0.235 C 
HETATM   17  N   UNL     1       5.971  24.561  53.498  1.00  0.00    -0.355 N 
HETATM   18  H   UNL     1       5.390  24.086  52.814  1.00  0.00     0.162 HD
HETATM   19  O   UNL     1       6.569  26.651  54.240  1.00  0.00    -0.272 OA
BRANCH  17  20
HETATM   20  C   UNL     1       7.255  23.984  53.839  1.00  0.00     0.084 C 
HETATM   21  C   UNL     1       7.261  23.252  55.173  1.00  0.00     0.025 C 
HETATM   22  C   UNL     1       8.531  22.417  55.086  1.00  0.00     0.002 C 
HETATM   23  C   UNL     1       8.607  21.965  53.630  1.00  0.00     0.002 C 
HETATM   24  C   UNL     1       7.693  22.906  52.844  1.00  0.00     0.025 C 
ENDBRANCH  17  20
ENDBRANCH  15  16
ENDBRANCH   6  15
BRANCH   5  25
HETATM   25  C   UNL     1       4.429  27.772  50.050  1.00  0.00    -0.030 A 
HETATM   26  C   UNL     1       3.132  28.248  49.802  1.00  0.00     0.012 A 
HETATM   27  C   UNL     1       2.399  27.781  48.708  1.00  0.00     0.037 A 
HETATM   28  C   UNL     1       2.942  26.838  47.835  1.00  0.00     0.068 A 
HETATM   29  C   UNL     1       4.228  26.352  48.073  1.00  0.00     0.037 A 
HETATM   30  C   UNL     1       4.963  26.814  49.172  1.00  0.00     0.012 A 
BRANCH  28  31
HETATM   31  O   UNL     1       2.122  26.474  46.804  1.00  0.00    -0.356 OA
HETATM   32  C   UNL     1       0.912  27.206  46.661  1.00  0.00     0.210 C 
ENDBRANCH  28  31
ENDBRANCH   5  25
TORSDOF 5
ENDMDL
MODEL 10
REMARK VINA RESULT:      -7.9      3.506      5.249
REMARK  5 active torsions:
REMARK  status: ('A' for Active; 'I' for Inactive)
REMARK    1  A    between atoms: C_5  and  C_6 
REMARK    2  A    between atoms: C_9  and  O_10 
REMARK    3  A    between atoms: N_14  and  C_15 
REMARK    4  A    between atoms: C_15  and  C_16 
REMARK       I    between atoms: C_16  and  N_17 
REMARK    5  A    between atoms: N_17  and  C_18 
ROOT
HETATM    1  C   UNL     1       9.379  28.719  57.003  1.00  0.00     0.156 C 
HETATM    2  N   UNL     1       7.959  28.857  56.784  1.00  0.00    -0.346 N 
HETATM    3  C   UNL     1       7.148  29.757  57.388  1.00  0.00     0.113 A 
HETATM    4  C   UNL     1       5.869  29.611  56.920  1.00  0.00     0.014 A 
HETATM    5  C   UNL     1       4.971  30.607  57.559  1.00  0.00     0.158 C 
HETATM    6  N   UNL     1       5.975  31.402  58.308  1.00  0.00    -0.325 N 
HETATM    7  C   UNL     1       7.253  30.847  58.301  1.00  0.00     0.272 C 
HETATM    8  O   UNL     1       8.229  31.230  58.923  1.00  0.00    -0.266 OA
HETATM    9  C   UNL     1       5.873  28.598  55.943  1.00  0.00     0.002 A 
HETATM   10  C   UNL     1       7.205  28.141  55.859  1.00  0.00     0.045 A 
HETATM   11  C   UNL     1       4.904  28.043  55.087  1.00  0.00     0.014 A 
HETATM   12  C   UNL     1       5.279  27.056  54.169  1.00  0.00     0.001 A 
HETATM   13  C   UNL     1       6.599  26.618  54.098  1.00  0.00     0.002 A 
HETATM   14  C   UNL     1       7.582  27.148  54.940  1.00  0.00     0.030 A 
ENDROOT
BRANCH   6  15
HETATM   15  C   UNL     1       5.628  32.629  58.999  1.00  0.00     0.229 C 
BRANCH  15  16
HETATM   16  C   UNL     1       5.413  32.461  60.497  1.00  0.00     0.235 C 
HETATM   17  N   UNL     1       6.528  32.694  61.279  1.00  0.00    -0.355 N 
HETATM   18  H   UNL     1       7.343  33.083  60.813  1.00  0.00     0.162 HD
HETATM   19  O   UNL     1       4.295  32.252  60.968  1.00  0.00    -0.272 OA
BRANCH  17  20
HETATM   20  C   UNL     1       6.370  32.911  62.701  1.00  0.00     0.084 C 
HETATM   21  C   UNL     1       7.642  32.670  63.501  1.00  0.00     0.025 C 
HETATM   22  C   UNL     1       7.334  33.355  64.826  1.00  0.00     0.002 C 
HETATM   23  C   UNL     1       6.541  34.602  64.450  1.00  0.00     0.002 C 
HETATM   24  C   UNL     1       6.014  34.363  63.034  1.00  0.00     0.025 C 
ENDBRANCH  17  20
ENDBRANCH  15  16
ENDBRANCH   6  15
BRANCH   5  25
HETATM   25  C   UNL     1       4.248  31.351  56.466  1.00  0.00    -0.030 A 
HETATM   26  C   UNL     1       2.860  31.190  56.335  1.00  0.00     0.012 A 
HETATM   27  C   UNL     1       2.154  31.869  55.338  1.00  0.00     0.037 A 
HETATM   28  C   UNL     1       2.813  32.727  54.458  1.00  0.00     0.068 A 
HETATM   29  C   UNL     1       4.193  32.892  54.573  1.00  0.00     0.037 A 
HETATM   30  C   UNL     1       4.903  32.208  55.567  1.00  0.00     0.012 A 
BRANCH  28  31
HETATM   31  O   UNL     1       2.004  33.334  53.539  1.00  0.00    -0.356 OA
HETATM   32  C   UNL     1       2.014  32.796  52.223  1.00  0.00     0.210 C 
ENDBRANCH  28  31
ENDBRANCH   5  25
TORSDOF 5
ENDMDL
