MODEL 1
REMARK VINA RESULT:      -9.4      0.000      0.000
REMARK  5 active torsions:
REMARK  status: ('A' for Active; 'I' for Inactive)
REMARK    1  A    between atoms: C_2  and  C_3 
REMARK    2  A    between atoms: C_2  and  C_18 
REMARK       I    between atoms: C_3  and  N_4 
REMARK    3  A    between atoms: N_4  and  C_5 
REMARK    4  A    between atoms: C_7  and  C_8 
REMARK    5  A    between atoms: C_18  and  C_19 
ROOT
HETATM    1  C   UNL     1       6.138  27.122  55.790  1.00  0.00     0.226 C 
HETATM    2  N   UNL     1       7.352  26.612  55.350  1.00  0.00    -0.327 N 
HETATM    3  O   UNL     1       5.045  26.844  55.308  1.00  0.00    -0.273 OA
HETATM    4  H   UNL     1       8.188  27.092  55.659  1.00  0.00     0.169 HD
ENDROOT
BRANCH   2   5
HETATM    5  C   UNL     1       7.551  25.565  54.424  1.00  0.00     0.035 A 
HETATM    6  C   UNL     1       7.845  24.248  54.797  1.00  0.00     0.042 A 
HETATM    7  C   UNL     1       8.071  23.247  53.834  1.00  0.00    -0.021 A 
HETATM    8  C   UNL     1       7.979  23.597  52.479  1.00  0.00     0.012 A 
HETATM    9  C   UNL     1       7.691  24.908  52.097  1.00  0.00     0.003 A 
HETATM   10  C   UNL     1       7.489  25.890  53.066  1.00  0.00     0.029 A 
BRANCH   7  11
HETATM   11  C   UNL     1       8.414  21.881  54.218  1.00  0.00     0.010 A 
HETATM   12  C   UNL     1       8.474  20.688  53.453  1.00  0.00     0.152 A 
HETATM   13  N   UNL     1       8.846  19.623  54.169  1.00  0.00    -0.187 NA
HETATM   14  N   UNL     1       9.028  20.125  55.399  1.00  0.00    -0.289 N 
HETATM   15  H   UNL     1       9.324  19.496  56.138  1.00  0.00     0.188 HD
HETATM   16  C   UNL     1       8.784  21.465  55.481  1.00  0.00     0.123 A 
ENDBRANCH   7  11
ENDBRANCH   2   5
BRANCH   1  17
HETATM   17  C   UNL     1       6.310  28.141  56.924  1.00  0.00     0.078 C 
HETATM   18  C   UNL     1       6.174  29.572  56.402  1.00  0.00     0.020 C 
BRANCH  17  19
HETATM   19  C   UNL     1       7.591  27.917  57.757  1.00  0.00     0.052 C 
BRANCH  19  20
HETATM   20  C   UNL     1       8.614  29.031  57.782  1.00  0.00    -0.057 A 
HETATM   21  C   UNL     1       8.555  30.036  58.759  1.00  0.00     0.007 A 
HETATM   22  C   UNL     1       9.508  31.056  58.789  1.00  0.00     0.001 A 
HETATM   23  C   UNL     1      10.536  31.080  57.850  1.00  0.00     0.000 A 
HETATM   24  C   UNL     1      10.612  30.084  56.881  1.00  0.00     0.001 A 
HETATM   25  C   UNL     1       9.658  29.064  56.848  1.00  0.00     0.007 A 
ENDBRANCH  19  20
ENDBRANCH  17  19
ENDBRANCH   1  17
TORSDOF 5
ENDMDL
MODEL 2
REMARK VINA RESULT:      -9.1      2.959      8.683
REMARK  5 active torsions:
REMARK  status: ('A' for Active; 'I' for Inactive)
REMARK    1  A    between atoms: C_2  and  C_3 
REMARK    2  A    between atoms: C_2  and  C_18 
REMARK       I    between atoms: C_3  and  N_4 
REMARK    3  A    between atoms: N_4  and  C_5 
REMARK    4  A    between atoms: C_7  and  C_8 
REMARK    5  A    between atoms: C_18  and  C_19 
ROOT
HETATM    1  C   UNL     1       7.913  26.298  57.037  1.00  0.00     0.226 C 
HETATM    2  N   UNL     1       8.144  27.572  56.534  1.00  0.00    -0.327 N 
HETATM    3  O   UNL     1       8.293  25.897  58.131  1.00  0.00    -0.273 OA
HETATM    4  H   UNL     1       7.997  27.704  55.541  1.00  0.00     0.169 HD
ENDROOT
BRANCH   2   5
HETATM    5  C   UNL     1       8.672  28.680  57.231  1.00  0.00     0.035 A 
HETATM    6  C   UNL     1       7.989  29.348  58.254  1.00  0.00     0.042 A 
HETATM    7  C   UNL     1       8.545  30.471  58.894  1.00  0.00    -0.021 A 
HETATM    8  C   UNL     1       9.817  30.903  58.491  1.00  0.00     0.012 A 
HETATM    9  C   UNL     1      10.504  30.247  57.469  1.00  0.00     0.003 A 
HETATM   10  C   UNL     1       9.928  29.146  56.834  1.00  0.00     0.029 A 
BRANCH   7  11
HETATM   11  C   UNL     1       7.821  31.192  59.936  1.00  0.00     0.010 A 
HETATM   12  C   UNL     1       6.700  32.057  59.860  1.00  0.00     0.152 A 
HETATM   13  N   UNL     1       6.312  32.521  61.051  1.00  0.00    -0.187 NA
HETATM   14  N   UNL     1       7.182  31.957  61.902  1.00  0.00    -0.289 N 
HETATM   15  H   UNL     1       7.090  32.159  62.891  1.00  0.00     0.188 HD
HETATM   16  C   UNL     1       8.102  31.157  61.288  1.00  0.00     0.123 A 
ENDBRANCH   7  11
ENDBRANCH   2   5
BRANCH   1  17
HETATM   17  C   UNL     1       7.172  25.401  56.035  1.00  0.00     0.078 C 
HETATM   18  C   UNL     1       5.734  25.879  55.828  1.00  0.00     0.020 C 
BRANCH  17  19
HETATM   19  C   UNL     1       7.270  23.898  56.374  1.00  0.00     0.052 C 
BRANCH  19  20
HETATM   20  C   UNL     1       7.530  22.938  55.234  1.00  0.00    -0.057 A 
HETATM   21  C   UNL     1       7.631  23.403  53.915  1.00  0.00     0.007 A 
HETATM   22  C   UNL     1       7.884  22.517  52.865  1.00  0.00     0.001 A 
HETATM   23  C   UNL     1       8.049  21.158  53.122  1.00  0.00     0.000 A 
HETATM   24  C   UNL     1       7.960  20.684  54.428  1.00  0.00     0.001 A 
HETATM   25  C   UNL     1       7.705  21.570  55.478  1.00  0.00     0.007 A 
ENDBRANCH  19  20
ENDBRANCH  17  19
ENDBRANCH   1  17
TORSDOF 5
ENDMDL
MODEL 3
REMARK VINA RESULT:      -9.0      2.261      8.097
REMARK  5 active torsions:
REMARK  status: ('A' for Active; 'I' for Inactive)
REMARK    1  A    between atoms: C_2  and  C_3 
REMARK    2  A    between atoms: C_2  and  C_18 
REMARK       I    between atoms: C_3  and  N_4 
REMARK    3  A    between atoms: N_4  and  C_5 
REMARK    4  A    between atoms: C_7  and  C_8 
REMARK    5  A    between atoms: C_18  and  C_19 
ROOT
HETATM    1  C   UNL     1       7.265  26.226  53.889  1.00  0.00     0.226 C 
HETATM    2  N   UNL     1       7.297  26.268  55.277  1.00  0.00    -0.327 N 
HETATM    3  O   UNL     1       6.893  27.146  53.169  1.00  0.00    -0.273 OA
HETATM    4  H   UNL     1       7.387  25.383  55.758  1.00  0.00     0.169 HD
ENDROOT
BRANCH   2   5
HETATM    5  C   UNL     1       7.103  27.399  56.100  1.00  0.00     0.035 A 
HETATM    6  C   UNL     1       8.130  28.276  56.465  1.00  0.00     0.042 A 
HETATM    7  C   UNL     1       7.892  29.370  57.317  1.00  0.00    -0.021 A 
HETATM    8  C   UNL     1       6.586  29.573  57.787  1.00  0.00     0.012 A 
HETATM    9  C   UNL     1       5.556  28.701  57.433  1.00  0.00     0.003 A 
HETATM   10  C   UNL     1       5.816  27.612  56.601  1.00  0.00     0.029 A 
BRANCH   7  11
HETATM   11  C   UNL     1       8.968  30.266  57.730  1.00  0.00     0.010 A 
HETATM   12  C   UNL     1       8.978  31.343  58.652  1.00  0.00     0.152 A 
HETATM   13  N   UNL     1      10.176  31.923  58.770  1.00  0.00    -0.187 NA
HETATM   14  N   UNL     1      10.944  31.221  57.924  1.00  0.00    -0.289 N 
HETATM   15  H   UNL     1      11.922  31.475  57.837  1.00  0.00     0.188 HD
HETATM   16  C   UNL     1      10.272  30.224  57.279  1.00  0.00     0.123 A 
ENDBRANCH   7  11
ENDBRANCH   2   5
BRANCH   1  17
HETATM   17  C   UNL     1       7.688  24.858  53.337  1.00  0.00     0.078 C 
HETATM   18  C   UNL     1       7.781  24.886  51.811  1.00  0.00     0.020 C 
BRANCH  17  19
HETATM   19  C   UNL     1       6.829  23.692  53.873  1.00  0.00     0.052 C 
BRANCH  19  20
HETATM   20  C   UNL     1       7.533  22.392  54.190  1.00  0.00    -0.057 A 
HETATM   21  C   UNL     1       7.741  21.995  55.519  1.00  0.00     0.007 A 
HETATM   22  C   UNL     1       8.379  20.787  55.811  1.00  0.00     0.001 A 
HETATM   23  C   UNL     1       8.810  19.958  54.778  1.00  0.00     0.000 A 
HETATM   24  C   UNL     1       8.602  20.335  53.455  1.00  0.00     0.001 A 
HETATM   25  C   UNL     1       7.966  21.543  53.163  1.00  0.00     0.007 A 
ENDBRANCH  19  20
ENDBRANCH  17  19
ENDBRANCH   1  17
TORSDOF 5
ENDMDL
MODEL 4
REMARK VINA RESULT:      -8.7      4.299      7.528
REMARK  5 active torsions:
REMARK  status: ('A' for Active; 'I' for Inactive)
REMARK    1  A    between atoms: C_2  and  C_3 
REMARK    2  A    between atoms: C_2  and  C_18 
REMARK       I    between atoms: C_3  and  N_4 
REMARK    3  A    between atoms: N_4  and  C_5 
REMARK    4  A    between atoms: C_7  and  C_8 
REMARK    5  A    between atoms: C_18  and  C_19 
ROOT
HETATM    1  C   UNL     1       5.811  26.294  54.048  1.00  0.00     0.226 C 
HETATM    2  N   UNL     1       6.269  26.402  52.741  1.00  0.00    -0.327 N 
HETATM    3  O   UNL     1       4.826  26.871  54.495  1.00  0.00    -0.273 OA
HETATM    4  H   UNL     1       7.211  26.080  52.560  1.00  0.00     0.169 HD
ENDROOT
BRANCH   2   5
HETATM    5  C   UNL     1       5.610  27.018  51.655  1.00  0.00     0.035 A 
HETATM    6  C   UNL     1       4.963  26.306  50.639  1.00  0.00     0.042 A 
HETATM    7  C   UNL     1       4.350  26.966  49.557  1.00  0.00    -0.021 A 
HETATM    8  C   UNL     1       4.390  28.368  49.527  1.00  0.00     0.012 A 
HETATM    9  C   UNL     1       5.037  29.086  50.533  1.00  0.00     0.003 A 
HETATM   10  C   UNL     1       5.654  28.413  51.587  1.00  0.00     0.029 A 
BRANCH   7  11
HETATM   11  C   UNL     1       3.706  26.226  48.476  1.00  0.00     0.010 A 
HETATM   12  C   UNL     1       3.244  26.653  47.206  1.00  0.00     0.152 A 
HETATM   13  N   UNL     1       2.713  25.664  46.480  1.00  0.00    -0.187 NA
HETATM   14  N   UNL     1       2.832  24.595  47.281  1.00  0.00    -0.289 N 
HETATM   15  H   UNL     1       2.495  23.699  46.943  1.00  0.00     0.188 HD
HETATM   16  C   UNL     1       3.416  24.877  48.481  1.00  0.00     0.123 A 
ENDBRANCH   7  11
ENDBRANCH   2   5
BRANCH   1  17
HETATM   17  C   UNL     1       6.720  25.412  54.913  1.00  0.00     0.078 C 
HETATM   18  C   UNL     1       7.285  26.199  56.097  1.00  0.00     0.020 C 
BRANCH  17  19
HETATM   19  C   UNL     1       7.807  24.673  54.102  1.00  0.00     0.052 C 
BRANCH  19  20
HETATM   20  C   UNL     1       7.844  23.164  54.192  1.00  0.00    -0.057 A 
HETATM   21  C   UNL     1       7.944  22.379  53.034  1.00  0.00     0.007 A 
HETATM   22  C   UNL     1       7.992  20.986  53.121  1.00  0.00     0.001 A 
HETATM   23  C   UNL     1       7.950  20.361  54.365  1.00  0.00     0.000 A 
HETATM   24  C   UNL     1       7.860  21.128  55.522  1.00  0.00     0.001 A 
HETATM   25  C   UNL     1       7.809  22.521  55.437  1.00  0.00     0.007 A 
ENDBRANCH  19  20
ENDBRANCH  17  19
ENDBRANCH   1  17
TORSDOF 5
ENDMDL
MODEL 5
REMARK VINA RESULT:      -8.6      1.512      2.077
REMARK  5 active torsions:
REMARK  status: ('A' for Active; 'I' for Inactive)
REMARK    1  A    between atoms: C_2  and  C_3 
REMARK    2  A    between atoms: C_2  and  C_18 
REMARK       I    between atoms: C_3  and  N_4 
REMARK    3  A    between atoms: N_4  and  C_5 
REMARK    4  A    between atoms: C_7  and  C_8 
REMARK    5  A    between atoms: C_18  and  C_19 
ROOT
HETATM    1  C   UNL     1       7.509  27.247  56.562  1.00  0.00     0.226 C 
HETATM    2  N   UNL     1       6.733  26.447  55.733  1.00  0.00    -0.327 N 
HETATM    3  O   UNL     1       8.724  27.149  56.695  1.00  0.00    -0.273 OA
HETATM    4  H   UNL     1       5.734  26.461  55.890  1.00  0.00     0.169 HD
ENDROOT
BRANCH   2   5
HETATM    5  C   UNL     1       7.191  25.526  54.767  1.00  0.00     0.035 A 
HETATM    6  C   UNL     1       7.475  24.185  55.050  1.00  0.00     0.042 A 
HETATM    7  C   UNL     1       7.965  23.314  54.059  1.00  0.00    -0.021 A 
HETATM    8  C   UNL     1       8.151  23.820  52.764  1.00  0.00     0.012 A 
HETATM    9  C   UNL     1       7.875  25.157  52.473  1.00  0.00     0.003 A 
HETATM   10  C   UNL     1       7.408  26.009  53.473  1.00  0.00     0.029 A 
BRANCH   7  11
HETATM   11  C   UNL     1       8.297  21.925  54.359  1.00  0.00     0.010 A 
HETATM   12  C   UNL     1       8.500  20.813  53.503  1.00  0.00     0.152 A 
HETATM   13  N   UNL     1       8.805  19.691  54.162  1.00  0.00    -0.187 NA
HETATM   14  N   UNL     1       8.801  20.076  55.446  1.00  0.00    -0.289 N 
HETATM   15  H   UNL     1       9.012  19.384  56.158  1.00  0.00     0.188 HD
HETATM   16  C   UNL     1       8.503  21.397  55.617  1.00  0.00     0.123 A 
ENDBRANCH   7  11
ENDBRANCH   2   5
BRANCH   1  17
HETATM   17  C   UNL     1       6.665  28.247  57.364  1.00  0.00     0.078 C 
HETATM   18  C   UNL     1       5.175  28.074  57.063  1.00  0.00     0.020 C 
BRANCH  17  19
HETATM   19  C   UNL     1       7.148  29.706  57.222  1.00  0.00     0.052 C 
BRANCH  19  20
HETATM   20  C   UNL     1       7.436  30.476  58.492  1.00  0.00    -0.057 A 
HETATM   21  C   UNL     1       8.519  30.127  59.311  1.00  0.00     0.007 A 
HETATM   22  C   UNL     1       8.792  30.848  60.477  1.00  0.00     0.001 A 
HETATM   23  C   UNL     1       7.991  31.930  60.832  1.00  0.00     0.000 A 
HETATM   24  C   UNL     1       6.918  32.293  60.023  1.00  0.00     0.001 A 
HETATM   25  C   UNL     1       6.643  31.571  58.859  1.00  0.00     0.007 A 
ENDBRANCH  19  20
ENDBRANCH  17  19
ENDBRANCH   1  17
TORSDOF 5
ENDMDL
MODEL 6
REMARK VINA RESULT:      -8.4      3.116      5.948
REMARK  5 active torsions:
REMARK  status: ('A' for Active; 'I' for Inactive)
REMARK    1  A    between atoms: C_2  and  C_3 
REMARK    2  A    between atoms: C_2  and  C_18 
REMARK       I    between atoms: C_3  and  N_4 
REMARK    3  A    between atoms: N_4  and  C_5 
REMARK    4  A    between atoms: C_7  and  C_8 
REMARK    5  A    between atoms: C_18  and  C_19 
ROOT
HETATM    1  C   UNL     1       6.810  27.320  53.601  1.00  0.00     0.226 C 
HETATM    2  N   UNL     1       6.360  26.216  54.312  1.00  0.00    -0.327 N 
HETATM    3  O   UNL     1       7.946  27.778  53.663  1.00  0.00    -0.273 OA
HETATM    4  H   UNL     1       5.358  26.085  54.364  1.00  0.00     0.169 HD
ENDROOT
BRANCH   2   5
HETATM    5  C   UNL     1       7.139  25.316  55.071  1.00  0.00     0.035 A 
HETATM    6  C   UNL     1       7.437  24.012  54.658  1.00  0.00     0.042 A 
HETATM    7  C   UNL     1       8.188  23.140  55.468  1.00  0.00    -0.021 A 
HETATM    8  C   UNL     1       8.648  23.615  56.705  1.00  0.00     0.012 A 
HETATM    9  C   UNL     1       8.352  24.911  57.128  1.00  0.00     0.003 A 
HETATM   10  C   UNL     1       7.591  25.754  56.318  1.00  0.00     0.029 A 
BRANCH   7  11
HETATM   11  C   UNL     1       8.470  21.768  55.057  1.00  0.00     0.010 A 
HETATM   12  C   UNL     1       8.451  21.160  53.776  1.00  0.00     0.152 A 
HETATM   13  N   UNL     1       8.785  19.866  53.804  1.00  0.00    -0.187 NA
HETATM   14  N   UNL     1       9.021  19.635  55.103  1.00  0.00    -0.289 N 
HETATM   15  H   UNL     1       9.301  18.702  55.384  1.00  0.00     0.188 HD
HETATM   16  C   UNL     1       8.846  20.735  55.892  1.00  0.00     0.123 A 
ENDBRANCH   7  11
ENDBRANCH   2   5
BRANCH   1  17
HETATM   17  C   UNL     1       5.701  27.965  52.759  1.00  0.00     0.078 C 
HETATM   18  C   UNL     1       4.756  28.791  53.635  1.00  0.00     0.020 C 
BRANCH  17  19
HETATM   19  C   UNL     1       4.962  26.959  51.850  1.00  0.00     0.052 C 
BRANCH  19  20
HETATM   20  C   UNL     1       4.984  27.214  50.360  1.00  0.00    -0.057 A 
HETATM   21  C   UNL     1       4.545  26.233  49.458  1.00  0.00     0.007 A 
HETATM   22  C   UNL     1       4.553  26.476  48.083  1.00  0.00     0.001 A 
HETATM   23  C   UNL     1       4.992  27.703  47.592  1.00  0.00     0.000 A 
HETATM   24  C   UNL     1       5.422  28.689  48.476  1.00  0.00     0.001 A 
HETATM   25  C   UNL     1       5.416  28.446  49.852  1.00  0.00     0.007 A 
ENDBRANCH  19  20
ENDBRANCH  17  19
ENDBRANCH   1  17
TORSDOF 5
ENDMDL
MODEL 7
REMARK VINA RESULT:      -8.3      2.654      8.536
REMARK  5 active torsions:
REMARK  status: ('A' for Active; 'I' for Inactive)
REMARK    1  A    between atoms: C_2  and  C_3 
REMARK    2  A    between atoms: C_2  and  C_18 
REMARK       I    between atoms: C_3  and  N_4 
REMARK    3  A    between atoms: N_4  and  C_5 
REMARK    4  A    between atoms: C_7  and  C_8 
REMARK    5  A    between atoms: C_18  and  C_19 
ROOT
HETATM    1  C   UNL     1       7.090  26.328  54.446  1.00  0.00     0.226 C 
HETATM    2  N   UNL     1       6.674  26.542  55.754  1.00  0.00    -0.327 N 
HETATM    3  O   UNL     1       7.577  27.185  53.716  1.00  0.00    -0.273 OA
HETATM    4  H   UNL     1       6.076  25.836  56.163  1.00  0.00     0.169 HD
ENDROOT
BRANCH   2   5
HETATM    5  C   UNL     1       6.896  27.693  56.541  1.00  0.00     0.035 A 
HETATM    6  C   UNL     1       5.910  28.648  56.810  1.00  0.00     0.042 A 
HETATM    7  C   UNL     1       6.192  29.798  57.571  1.00  0.00    -0.021 A 
HETATM    8  C   UNL     1       7.492  29.960  58.071  1.00  0.00     0.012 A 
HETATM    9  C   UNL     1       8.484  29.015  57.804  1.00  0.00     0.003 A 
HETATM   10  C   UNL     1       8.189  27.892  57.032  1.00  0.00     0.029 A 
BRANCH   7  11
HETATM   11  C   UNL     1       5.176  30.815  57.824  1.00  0.00     0.010 A 
HETATM   12  C   UNL     1       3.871  30.977  57.293  1.00  0.00     0.152 A 
HETATM   13  N   UNL     1       3.231  32.041  57.787  1.00  0.00    -0.187 NA
HETATM   14  N   UNL     1       4.121  32.569  58.639  1.00  0.00    -0.289 N 
HETATM   15  H   UNL     1       3.860  33.405  59.153  1.00  0.00     0.188 HD
HETATM   16  C   UNL     1       5.296  31.877  58.698  1.00  0.00     0.123 A 
ENDBRANCH   7  11
ENDBRANCH   2   5
BRANCH   1  17
HETATM   17  C   UNL     1       6.813  24.895  53.973  1.00  0.00     0.078 C 
HETATM   18  C   UNL     1       5.465  24.803  53.255  1.00  0.00     0.020 C 
BRANCH  17  19
HETATM   19  C   UNL     1       6.980  23.841  55.090  1.00  0.00     0.052 C 
BRANCH  19  20
HETATM   20  C   UNL     1       7.583  22.507  54.710  1.00  0.00    -0.057 A 
HETATM   21  C   UNL     1       7.889  22.213  53.373  1.00  0.00     0.007 A 
HETATM   22  C   UNL     1       8.458  20.986  53.026  1.00  0.00     0.001 A 
HETATM   23  C   UNL     1       8.736  20.041  54.011  1.00  0.00     0.000 A 
HETATM   24  C   UNL     1       8.445  20.323  55.343  1.00  0.00     0.001 A 
HETATM   25  C   UNL     1       7.874  21.549  55.690  1.00  0.00     0.007 A 
ENDBRANCH  19  20
ENDBRANCH  17  19
ENDBRANCH   1  17
TORSDOF 5
ENDMDL
MODEL 8
REMARK VINA RESULT:      -8.3      2.762      8.282
REMARK  5 active torsions:
REMARK  status: ('A' for Active; 'I' for Inactive)
REMARK    1  A    between atoms: C_2  and  C_3 
REMARK    2  A    between atoms: C_2  and  C_18 
REMARK       I    between atoms: C_3  and  N_4 
REMARK    3  A    between atoms: N_4  and  C_5 
REMARK    4  A    between atoms: C_7  and  C_8 
REMARK    5  A    between atoms: C_18  and  C_19 
ROOT
HETATM    1  C   UNL     1       6.322  26.067  54.702  1.00  0.00     0.226 C 
HETATM    2  N   UNL     1       6.307  27.450  54.566  1.00  0.00    -0.327 N 
HETATM    3  O   UNL     1       6.138  25.465  55.754  1.00  0.00    -0.273 OA
HETATM    4  H   UNL     1       6.706  27.828  53.717  1.00  0.00     0.169 HD
ENDROOT
BRANCH   2   5
HETATM    5  C   UNL     1       5.901  28.396  55.532  1.00  0.00     0.035 A 
HETATM    6  C   UNL     1       6.795  29.119  56.329  1.00  0.00     0.042 A 
HETATM    7  C   UNL     1       6.339  30.026  57.304  1.00  0.00    -0.021 A 
HETATM    8  C   UNL     1       4.956  30.203  57.451  1.00  0.00     0.012 A 
HETATM    9  C   UNL     1       4.056  29.483  56.664  1.00  0.00     0.003 A 
HETATM   10  C   UNL     1       4.528  28.575  55.715  1.00  0.00     0.029 A 
BRANCH   7  11
HETATM   11  C   UNL     1       7.268  30.755  58.163  1.00  0.00     0.010 A 
HETATM   12  C   UNL     1       7.078  31.905  58.970  1.00  0.00     0.152 A 
HETATM   13  N   UNL     1       8.181  32.272  59.629  1.00  0.00    -0.187 NA
HETATM   14  N   UNL     1       9.087  31.359  59.250  1.00  0.00    -0.289 N 
HETATM   15  H   UNL     1      10.026  31.425  59.628  1.00  0.00     0.188 HD
HETATM   16  C   UNL     1       8.593  30.434  58.376  1.00  0.00     0.123 A 
ENDBRANCH   7  11
ENDBRANCH   2   5
BRANCH   1  17
HETATM   17  C   UNL     1       6.663  25.355  53.386  1.00  0.00     0.078 C 
HETATM   18  C   UNL     1       5.493  24.495  52.908  1.00  0.00     0.020 C 
BRANCH  17  19
HETATM   19  C   UNL     1       8.001  24.587  53.438  1.00  0.00     0.052 C 
BRANCH  19  20
HETATM   20  C   UNL     1       7.955  23.125  53.821  1.00  0.00    -0.057 A 
HETATM   21  C   UNL     1       8.024  22.124  52.841  1.00  0.00     0.007 A 
HETATM   22  C   UNL     1       7.995  20.774  53.197  1.00  0.00     0.001 A 
HETATM   23  C   UNL     1       7.905  20.407  54.538  1.00  0.00     0.000 A 
HETATM   24  C   UNL     1       7.846  21.390  55.522  1.00  0.00     0.001 A 
HETATM   25  C   UNL     1       7.872  22.740  55.166  1.00  0.00     0.007 A 
ENDBRANCH  19  20
ENDBRANCH  17  19
ENDBRANCH   1  17
TORSDOF 5
ENDMDL
MODEL 9
REMARK VINA RESULT:      -8.2      3.027      8.650
REMARK  5 active torsions:
REMARK  status: ('A' for Active; 'I' for Inactive)
REMARK    1  A    between atoms: C_2  and  C_3 
REMARK    2  A    between atoms: C_2  and  C_18 
REMARK       I    between atoms: C_3  and  N_4 
REMARK    3  A    between atoms: N_4  and  C_5 
REMARK    4  A    between atoms: C_7  and  C_8 
REMARK    5  A    between atoms: C_18  and  C_19 
ROOT
HETATM    1  C   UNL     1       7.551  26.371  56.983  1.00  0.00     0.226 C 
HETATM    2  N   UNL     1       7.176  27.590  56.433  1.00  0.00    -0.327 N 
HETATM    3  O   UNL     1       7.845  26.196  58.161  1.00  0.00    -0.273 OA
HETATM    4  H   UNL     1       7.195  27.659  55.423  1.00  0.00     0.169 HD
ENDROOT
BRANCH   2   5
HETATM    5  C   UNL     1       6.879  28.783  57.126  1.00  0.00     0.035 A 
HETATM    6  C   UNL     1       7.727  29.352  58.083  1.00  0.00     0.042 A 
HETATM    7  C   UNL     1       7.369  30.525  58.775  1.00  0.00    -0.021 A 
HETATM    8  C   UNL     1       6.138  31.125  58.470  1.00  0.00     0.012 A 
HETATM    9  C   UNL     1       5.284  30.562  57.521  1.00  0.00     0.003 A 
HETATM   10  C   UNL     1       5.649  29.390  56.860  1.00  0.00     0.029 A 
BRANCH   7  11
HETATM   11  C   UNL     1       8.233  31.101  59.800  1.00  0.00     0.010 A 
HETATM   12  C   UNL     1       8.058  31.223  61.202  1.00  0.00     0.152 A 
HETATM   13  N   UNL     1       9.094  31.808  61.812  1.00  0.00    -0.187 NA
HETATM   14  N   UNL     1       9.941  32.065  60.805  1.00  0.00    -0.289 N 
HETATM   15  H   UNL     1      10.824  32.516  61.020  1.00  0.00     0.188 HD
HETATM   16  C   UNL     1       9.475  31.665  59.586  1.00  0.00     0.123 A 
ENDBRANCH   7  11
ENDBRANCH   2   5
BRANCH   1  17
HETATM   17  C   UNL     1       7.627  25.255  55.933  1.00  0.00     0.078 C 
HETATM   18  C   UNL     1       6.228  24.830  55.482  1.00  0.00     0.020 C 
BRANCH  17  19
HETATM   19  C   UNL     1       8.512  24.067  56.368  1.00  0.00     0.052 C 
BRANCH  19  20
HETATM   20  C   UNL     1       8.399  22.783  55.578  1.00  0.00    -0.057 A 
HETATM   21  C   UNL     1       8.607  22.774  54.191  1.00  0.00     0.007 A 
HETATM   22  C   UNL     1       8.515  21.584  53.465  1.00  0.00     0.001 A 
HETATM   23  C   UNL     1       8.223  20.388  54.116  1.00  0.00     0.000 A 
HETATM   24  C   UNL     1       8.022  20.381  55.494  1.00  0.00     0.001 A 
HETATM   25  C   UNL     1       8.112  21.571  56.220  1.00  0.00     0.007 A 
ENDBRANCH  19  20
ENDBRANCH  17  19
ENDBRANCH   1  17
TORSDOF 5
ENDMDL
MODEL 10
REMARK VINA RESULT:      -8.2      6.161      9.130
REMARK  5 active torsions:
REMARK  status: ('A' for Active; 'I' for Inactive)
REMARK    1  A    between atoms: C_2  and  C_3 
REMARK    2  A    between atoms: C_2  and  C_18 
REMARK       I    between atoms: C_3  and  N_4 
REMARK    3  A    between atoms: N_4  and  C_5 
REMARK    4  A    between atoms: C_7  and  C_8 
REMARK    5  A    between atoms: C_18  and  C_19 
ROOT
HETATM    1  C   UNL     1       5.397  26.581  51.304  1.00  0.00     0.226 C 
HETATM    2  N   UNL     1       5.183  26.487  49.935  1.00  0.00    -0.327 N 
HETATM    3  O   UNL     1       5.322  27.617  51.956  1.00  0.00    -0.273 OA
HETATM    4  H   UNL     1       5.507  25.644  49.479  1.00  0.00     0.169 HD
ENDROOT
BRANCH   2   5
HETATM    5  C   UNL     1       4.665  27.487  49.084  1.00  0.00     0.035 A 
HETATM    6  C   UNL     1       3.404  27.414  48.482  1.00  0.00     0.042 A 
HETATM    7  C   UNL     1       2.948  28.422  47.611  1.00  0.00    -0.021 A 
HETATM    8  C   UNL     1       3.788  29.519  47.368  1.00  0.00     0.012 A 
HETATM    9  C   UNL     1       5.049  29.598  47.960  1.00  0.00     0.003 A 
HETATM   10  C   UNL     1       5.490  28.581  48.805  1.00  0.00     0.029 A 
BRANCH   7  11
HETATM   11  C   UNL     1       1.649  28.332  46.952  1.00  0.00     0.010 A 
HETATM   12  C   UNL     1       0.835  27.210  46.652  1.00  0.00     0.152 A 
HETATM   13  N   UNL     1      -0.309  27.538  46.044  1.00  0.00    -0.187 NA
HETATM   14  N   UNL     1      -0.238  28.873  45.951  1.00  0.00    -0.289 N 
HETATM   15  H   UNL     1      -1.010  29.368  45.518  1.00  0.00     0.188 HD
HETATM   16  C   UNL     1       0.909  29.395  46.476  1.00  0.00     0.123 A 
ENDBRANCH   7  11
ENDBRANCH   2   5
BRANCH   1  17
HETATM   17  C   UNL     1       5.811  25.239  51.923  1.00  0.00     0.078 C 
HETATM   18  C   UNL     1       4.889  24.862  53.084  1.00  0.00     0.020 C 
BRANCH  17  19
HETATM   19  C   UNL     1       7.309  25.172  52.289  1.00  0.00     0.052 C 
BRANCH  19  20
HETATM   20  C   UNL     1       7.757  24.055  53.205  1.00  0.00    -0.057 A 
HETATM   21  C   UNL     1       7.884  22.743  52.728  1.00  0.00     0.007 A 
HETATM   22  C   UNL     1       8.310  21.715  53.572  1.00  0.00     0.001 A 
HETATM   23  C   UNL     1       8.624  21.988  54.902  1.00  0.00     0.000 A 
HETATM   24  C   UNL     1       8.512  23.288  55.387  1.00  0.00     0.001 A 
HETATM   25  C   UNL     1       8.083  24.316  54.543  1.00  0.00     0.007 A 
ENDBRANCH  19  20
ENDBRANCH  17  19
ENDBRANCH   1  17
TORSDOF 5
ENDMDL
