MODEL 1
REMARK VINA RESULT:      -9.4      0.000      0.000
REMARK  7 active torsions:
REMARK  status: ('A' for Active; 'I' for Inactive)
REMARK    1  A    between atoms: C_2  and  O_3 
REMARK    2  A    between atoms: O_3  and  C_4 
REMARK    3  A    between atoms: C_4  and  C_5 
REMARK    4  A    between atoms: C_6  and  C_7 
REMARK    5  A    between atoms: C_18  and  S_19 
REMARK    6  A    between atoms: S_19  and  C_20 
REMARK    7  A    between atoms: C_20  and  C_21 
ROOT
HETATM    1  C   UNL     1       5.858  29.675  56.960  1.00  0.00     0.070 C 
HETATM    2  C   UNL     1       6.899  28.902  57.774  1.00  0.00     0.203 C 
HETATM    3  N   UNL     1       7.279  27.661  57.095  1.00  0.00    -0.082 N 
HETATM    4  C   UNL     1       7.016  27.403  55.779  1.00  0.00     0.726 A 
HETATM    5  N   UNL     1       6.337  28.316  55.057  1.00  0.00    -0.192 N 
HETATM    6  N   UNL     1       7.852  26.607  57.699  1.00  0.00    -0.128 NA
HETATM    7  C   UNL     1       7.964  25.757  56.670  1.00  0.00     0.226 A 
HETATM    8  N   UNL     1       7.474  26.216  55.470  1.00  0.00    -0.035 NA
HETATM    9  C   UNL     1       5.667  29.393  55.644  1.00  0.00     0.037 C 
HETATM   10  C   UNL     1       4.771  30.172  54.711  1.00  0.00     0.070 C 
HETATM   11  H   UNL     1       6.065  28.067  54.109  1.00  0.00     0.184 HD
ENDROOT
BRANCH   7  12
HETATM   12  S   UNL     1       8.648  24.176  56.904  1.00  0.00    -0.083 SA
BRANCH  12  13
HETATM   13  C   UNL     1       7.296  23.135  56.292  1.00  0.00     0.123 C 
BRANCH  13  14
HETATM   14  C   UNL     1       7.787  22.170  55.237  1.00  0.00    -0.027 A 
HETATM   15  C   UNL     1       7.618  22.393  53.860  1.00  0.00     0.041 A 
HETATM   16 CL   UNL     1       6.859  23.818  53.247  1.00  0.00    -0.084 Cl
HETATM   17  C   UNL     1       8.063  21.450  52.927  1.00  0.00     0.024 A 
HETATM   18  C   UNL     1       8.674  20.270  53.353  1.00  0.00     0.002 A 
HETATM   19  C   UNL     1       8.841  20.031  54.713  1.00  0.00     0.001 A 
HETATM   20  C   UNL     1       8.402  20.970  55.647  1.00  0.00     0.009 A 
ENDBRANCH  13  14
ENDBRANCH  12  13
ENDBRANCH   7  12
BRANCH   2  21
HETATM   21  C   UNL     1       8.156  29.729  58.058  1.00  0.00    -0.026 A 
HETATM   22  C   UNL     1       8.318  30.342  59.312  1.00  0.00     0.033 A 
HETATM   23  C   UNL     1       9.447  31.117  59.580  1.00  0.00     0.034 A 
HETATM   24 CL   UNL     1       9.624  31.868  61.118  1.00  0.00    -0.084 Cl
HETATM   25  C   UNL     1      10.431  31.292  58.610  1.00  0.00     0.024 A 
HETATM   26  C   UNL     1      10.288  30.687  57.363  1.00  0.00     0.002 A 
HETATM   27  C   UNL     1       9.160  29.910  57.088  1.00  0.00     0.010 A 
ENDBRANCH   2  21
BRANCH   1  28
HETATM   28  C   UNL     1       5.106  30.654  57.789  1.00  0.00     0.293 C 
HETATM   29  O   UNL     1       4.005  30.414  58.260  1.00  0.00    -0.259 OA
BRANCH  28  30
HETATM   30  O   UNL     1       5.729  31.854  57.851  1.00  0.00    -0.318 OA
BRANCH  30  31
HETATM   31  C   UNL     1       5.131  32.828  58.720  1.00  0.00     0.174 C 
HETATM   32  C   UNL     1       5.810  32.828  60.078  1.00  0.00     0.034 C 
ENDBRANCH  30  31
ENDBRANCH  28  30
ENDBRANCH   1  28
TORSDOF 7
ENDMDL
MODEL 2
REMARK VINA RESULT:      -9.1      1.234      1.546
REMARK  7 active torsions:
REMARK  status: ('A' for Active; 'I' for Inactive)
REMARK    1  A    between atoms: C_2  and  O_3 
REMARK    2  A    between atoms: O_3  and  C_4 
REMARK    3  A    between atoms: C_4  and  C_5 
REMARK    4  A    between atoms: C_6  and  C_7 
REMARK    5  A    between atoms: C_18  and  S_19 
REMARK    6  A    between atoms: S_19  and  C_20 
REMARK    7  A    between atoms: C_20  and  C_21 
ROOT
HETATM    1  C   UNL     1       5.413  30.969  56.805  1.00  0.00     0.070 C 
HETATM    2  C   UNL     1       6.152  29.808  57.477  1.00  0.00     0.203 C 
HETATM    3  N   UNL     1       6.020  28.579  56.691  1.00  0.00    -0.082 N 
HETATM    4  C   UNL     1       5.607  28.550  55.389  1.00  0.00     0.726 A 
HETATM    5  N   UNL     1       5.261  29.704  54.787  1.00  0.00    -0.192 N 
HETATM    6  N   UNL     1       6.211  27.341  57.176  1.00  0.00    -0.128 NA
HETATM    7  C   UNL     1       5.950  26.602  56.090  1.00  0.00     0.226 A 
HETATM    8  N   UNL     1       5.589  27.311  54.968  1.00  0.00    -0.035 NA
HETATM    9  C   UNL     1       5.058  30.892  55.495  1.00  0.00     0.037 C 
HETATM   10  C   UNL     1       4.450  32.017  54.694  1.00  0.00     0.070 C 
HETATM   11  H   UNL     1       4.864  29.654  53.852  1.00  0.00     0.184 HD
ENDROOT
BRANCH   7  12
HETATM   12  S   UNL     1       6.033  24.867  56.164  1.00  0.00    -0.083 SA
BRANCH  12  13
HETATM   13  C   UNL     1       7.695  24.586  55.497  1.00  0.00     0.123 C 
BRANCH  13  14
HETATM   14  C   UNL     1       7.796  23.227  54.843  1.00  0.00    -0.027 A 
HETATM   15  C   UNL     1       7.878  23.054  53.451  1.00  0.00     0.041 A 
HETATM   16 CL   UNL     1       7.906  24.393  52.359  1.00  0.00    -0.084 Cl
HETATM   17  C   UNL     1       7.937  21.770  52.896  1.00  0.00     0.024 A 
HETATM   18  C   UNL     1       7.907  20.645  53.719  1.00  0.00     0.002 A 
HETATM   19  C   UNL     1       7.817  20.799  55.099  1.00  0.00     0.001 A 
HETATM   20  C   UNL     1       7.761  22.077  55.656  1.00  0.00     0.009 A 
ENDBRANCH  13  14
ENDBRANCH  12  13
ENDBRANCH   7  12
BRANCH   2  21
HETATM   21  C   UNL     1       7.636  30.108  57.703  1.00  0.00    -0.026 A 
HETATM   22  C   UNL     1       8.034  30.846  58.831  1.00  0.00     0.033 A 
HETATM   23  C   UNL     1       9.380  31.147  59.041  1.00  0.00     0.034 A 
HETATM   24 CL   UNL     1       9.847  32.060  60.422  1.00  0.00    -0.084 Cl
HETATM   25  C   UNL     1      10.350  30.718  58.138  1.00  0.00     0.024 A 
HETATM   26  C   UNL     1       9.973  29.981  57.017  1.00  0.00     0.002 A 
HETATM   27  C   UNL     1       8.627  29.677  56.800  1.00  0.00     0.010 A 
ENDBRANCH   2  21
BRANCH   1  28
HETATM   28  C   UNL     1       5.113  32.072  57.756  1.00  0.00     0.293 C 
HETATM   29  O   UNL     1       5.569  33.198  57.629  1.00  0.00    -0.259 OA
BRANCH  28  30
HETATM   30  O   UNL     1       4.386  31.647  58.816  1.00  0.00    -0.318 OA
BRANCH  30  31
HETATM   31  C   UNL     1       4.202  32.600  59.874  1.00  0.00     0.174 C 
HETATM   32  C   UNL     1       5.281  32.446  60.931  1.00  0.00     0.034 C 
ENDBRANCH  30  31
ENDBRANCH  28  30
ENDBRANCH   1  28
TORSDOF 7
ENDMDL
MODEL 3
REMARK VINA RESULT:      -8.8      1.913      2.600
REMARK  7 active torsions:
REMARK  status: ('A' for Active; 'I' for Inactive)
REMARK    1  A    between atoms: C_2  and  O_3 
REMARK    2  A    between atoms: O_3  and  C_4 
REMARK    3  A    between atoms: C_4  and  C_5 
REMARK    4  A    between atoms: C_6  and  C_7 
REMARK    5  A    between atoms: C_18  and  S_19 
REMARK    6  A    between atoms: S_19  and  C_20 
REMARK    7  A    between atoms: C_20  and  C_21 
ROOT
HETATM    1  C   UNL     1       4.571  30.252  55.572  1.00  0.00     0.070 C 
HETATM    2  C   UNL     1       5.288  28.938  55.895  1.00  0.00     0.203 C 
HETATM    3  N   UNL     1       5.326  28.061  54.722  1.00  0.00    -0.082 N 
HETATM    4  C   UNL     1       5.080  28.485  53.446  1.00  0.00     0.726 A 
HETATM    5  N   UNL     1       4.745  29.774  53.240  1.00  0.00    -0.192 N 
HETATM    6  N   UNL     1       5.527  26.733  54.770  1.00  0.00    -0.128 NA
HETATM    7  C   UNL     1       5.446  26.420  53.470  1.00  0.00     0.226 A 
HETATM    8  N   UNL     1       5.187  27.472  52.625  1.00  0.00    -0.035 NA
HETATM    9  C   UNL     1       4.386  30.635  54.281  1.00  0.00     0.037 C 
HETATM   10  C   UNL     1       3.817  31.963  53.844  1.00  0.00     0.070 C 
HETATM   11  H   UNL     1       4.469  30.050  52.300  1.00  0.00     0.184 HD
ENDROOT
BRANCH   7  12
HETATM   12  S   UNL     1       5.620  24.770  52.950  1.00  0.00    -0.083 SA
BRANCH  12  13
HETATM   13  C   UNL     1       7.365  24.479  53.346  1.00  0.00     0.123 C 
BRANCH  13  14
HETATM   14  C   UNL     1       7.576  23.081  53.882  1.00  0.00    -0.027 A 
HETATM   15  C   UNL     1       7.552  22.778  55.253  1.00  0.00     0.041 A 
HETATM   16 CL   UNL     1       7.242  23.980  56.455  1.00  0.00    -0.084 Cl
HETATM   17  C   UNL     1       7.786  21.471  55.697  1.00  0.00     0.024 A 
HETATM   18  C   UNL     1       8.056  20.454  54.782  1.00  0.00     0.002 A 
HETATM   19  C   UNL     1       8.091  20.740  53.421  1.00  0.00     0.001 A 
HETATM   20  C   UNL     1       7.855  22.041  52.974  1.00  0.00     0.009 A 
ENDBRANCH  13  14
ENDBRANCH  12  13
ENDBRANCH   7  12
BRANCH   2  21
HETATM   21  C   UNL     1       6.712  29.156  56.411  1.00  0.00    -0.026 A 
HETATM   22  C   UNL     1       6.920  29.507  57.756  1.00  0.00     0.033 A 
HETATM   23  C   UNL     1       8.210  29.730  58.237  1.00  0.00     0.034 A 
HETATM   24 CL   UNL     1       8.444  30.169  59.884  1.00  0.00    -0.084 Cl
HETATM   25  C   UNL     1       9.312  29.607  57.394  1.00  0.00     0.024 A 
HETATM   26  C   UNL     1       9.124  29.254  56.059  1.00  0.00     0.002 A 
HETATM   27  C   UNL     1       7.835  29.030  55.569  1.00  0.00     0.010 A 
ENDBRANCH   2  21
BRANCH   1  28
HETATM   28  C   UNL     1       4.091  30.948  56.795  1.00  0.00     0.293 C 
HETATM   29  O   UNL     1       3.113  30.578  57.427  1.00  0.00    -0.259 OA
BRANCH  28  30
HETATM   30  O   UNL     1       4.786  32.083  57.041  1.00  0.00    -0.318 OA
BRANCH  30  31
HETATM   31  C   UNL     1       4.523  32.721  58.300  1.00  0.00     0.174 C 
HETATM   32  C   UNL     1       5.717  32.596  59.228  1.00  0.00     0.034 C 
ENDBRANCH  30  31
ENDBRANCH  28  30
ENDBRANCH   1  28
TORSDOF 7
ENDMDL
MODEL 4
REMARK VINA RESULT:      -8.7      5.379      7.949
REMARK  7 active torsions:
REMARK  status: ('A' for Active; 'I' for Inactive)
REMARK    1  A    between atoms: C_2  and  O_3 
REMARK    2  A    between atoms: O_3  and  C_4 
REMARK    3  A    between atoms: C_4  and  C_5 
REMARK    4  A    between atoms: C_6  and  C_7 
REMARK    5  A    between atoms: C_18  and  S_19 
REMARK    6  A    between atoms: S_19  and  C_20 
REMARK    7  A    between atoms: C_20  and  C_21 
ROOT
HETATM    1  C   UNL     1       4.747  30.095  50.847  1.00  0.00     0.070 C 
HETATM    2  C   UNL     1       5.259  28.657  50.723  1.00  0.00     0.203 C 
HETATM    3  N   UNL     1       5.082  27.928  51.981  1.00  0.00    -0.082 N 
HETATM    4  C   UNL     1       4.267  28.347  52.995  1.00  0.00     0.726 A 
HETATM    5  N   UNL     1       3.608  29.515  52.863  1.00  0.00    -0.192 N 
HETATM    6  N   UNL     1       5.754  26.814  52.317  1.00  0.00    -0.128 NA
HETATM    7  C   UNL     1       5.252  26.576  53.535  1.00  0.00     0.226 A 
HETATM    8  N   UNL     1       4.325  27.488  53.980  1.00  0.00    -0.035 NA
HETATM    9  C   UNL     1       3.910  30.442  51.861  1.00  0.00     0.037 C 
HETATM   10  C   UNL     1       3.238  31.785  52.010  1.00  0.00     0.070 C 
HETATM   11  H   UNL     1       3.084  29.860  53.664  1.00  0.00     0.184 HD
ENDROOT
BRANCH   7  12
HETATM   12  S   UNL     1       5.806  25.214  54.465  1.00  0.00    -0.083 SA
BRANCH  12  13
HETATM   13  C   UNL     1       7.434  24.941  53.716  1.00  0.00     0.123 C 
BRANCH  13  14
HETATM   14  C   UNL     1       7.899  23.519  53.928  1.00  0.00    -0.027 A 
HETATM   15  C   UNL     1       8.553  23.096  55.098  1.00  0.00     0.041 A 
HETATM   16 CL   UNL     1       8.854  24.167  56.420  1.00  0.00    -0.084 Cl
HETATM   17  C   UNL     1       8.992  21.774  55.230  1.00  0.00     0.024 A 
HETATM   18  C   UNL     1       8.793  20.859  54.196  1.00  0.00     0.002 A 
HETATM   19  C   UNL     1       8.155  21.264  53.028  1.00  0.00     0.001 A 
HETATM   20  C   UNL     1       7.713  22.581  52.894  1.00  0.00     0.009 A 
ENDBRANCH  13  14
ENDBRANCH  12  13
ENDBRANCH   7  12
BRANCH   2  21
HETATM   21  C   UNL     1       4.578  27.886  49.590  1.00  0.00    -0.026 A 
HETATM   22  C   UNL     1       3.188  27.993  49.411  1.00  0.00     0.033 A 
HETATM   23  C   UNL     1       2.549  27.280  48.397  1.00  0.00     0.034 A 
HETATM   24 CL   UNL     1       0.845  27.414  48.199  1.00  0.00    -0.084 Cl
HETATM   25  C   UNL     1       3.278  26.454  47.544  1.00  0.00     0.024 A 
HETATM   26  C   UNL     1       4.658  26.341  47.704  1.00  0.00     0.002 A 
HETATM   27  C   UNL     1       5.305  27.052  48.718  1.00  0.00     0.010 A 
ENDBRANCH   2  21
BRANCH   1  28
HETATM   28  C   UNL     1       5.318  30.990  49.807  1.00  0.00     0.293 C 
HETATM   29  O   UNL     1       6.464  31.412  49.853  1.00  0.00    -0.259 OA
BRANCH  28  30
HETATM   30  O   UNL     1       4.393  31.363  48.892  1.00  0.00    -0.318 OA
BRANCH  30  31
HETATM   31  C   UNL     1       4.831  31.375  47.524  1.00  0.00     0.174 C 
HETATM   32  C   UNL     1       4.063  30.355  46.704  1.00  0.00     0.034 C 
ENDBRANCH  30  31
ENDBRANCH  28  30
ENDBRANCH   1  28
TORSDOF 7
ENDMDL
MODEL 5
REMARK VINA RESULT:      -8.7      4.346      6.622
REMARK  7 active torsions:
REMARK  status: ('A' for Active; 'I' for Inactive)
REMARK    1  A    between atoms: C_2  and  O_3 
REMARK    2  A    between atoms: O_3  and  C_4 
REMARK    3  A    between atoms: C_4  and  C_5 
REMARK    4  A    between atoms: C_6  and  C_7 
REMARK    5  A    between atoms: C_18  and  S_19 
REMARK    6  A    between atoms: S_19  and  C_20 
REMARK    7  A    between atoms: C_20  and  C_21 
ROOT
HETATM    1  C   UNL     1       6.758  26.073  55.919  1.00  0.00     0.070 C 
HETATM    2  C   UNL     1       7.292  27.151  54.971  1.00  0.00     0.203 C 
HETATM    3  N   UNL     1       6.193  27.835  54.286  1.00  0.00    -0.082 N 
HETATM    4  C   UNL     1       4.888  27.772  54.687  1.00  0.00     0.726 A 
HETATM    5  N   UNL     1       4.569  27.011  55.752  1.00  0.00    -0.192 N 
HETATM    6  N   UNL     1       6.325  28.534  53.145  1.00  0.00    -0.128 NA
HETATM    7  C   UNL     1       5.059  28.919  52.939  1.00  0.00     0.226 A 
HETATM    8  N   UNL     1       4.150  28.483  53.874  1.00  0.00    -0.035 NA
HETATM    9  C   UNL     1       5.455  26.084  56.309  1.00  0.00     0.037 C 
HETATM   10  C   UNL     1       4.850  25.160  57.338  1.00  0.00     0.070 C 
HETATM   11  H   UNL     1       3.584  26.896  55.978  1.00  0.00     0.184 HD
ENDROOT
BRANCH   7  12
HETATM   12  S   UNL     1       4.643  29.869  51.543  1.00  0.00    -0.083 SA
BRANCH  12  13
HETATM   13  C   UNL     1       5.636  29.043  50.272  1.00  0.00     0.123 C 
BRANCH  13  14
HETATM   14  C   UNL     1       4.768  28.195  49.370  1.00  0.00    -0.027 A 
HETATM   15  C   UNL     1       4.604  26.811  49.549  1.00  0.00     0.041 A 
HETATM   16 CL   UNL     1       5.359  25.957  50.848  1.00  0.00    -0.084 Cl
HETATM   17  C   UNL     1       3.814  26.068  48.665  1.00  0.00     0.024 A 
HETATM   18  C   UNL     1       3.187  26.691  47.587  1.00  0.00     0.002 A 
HETATM   19  C   UNL     1       3.346  28.059  47.391  1.00  0.00     0.001 A 
HETATM   20  C   UNL     1       4.130  28.805  48.272  1.00  0.00     0.009 A 
ENDBRANCH  13  14
ENDBRANCH  12  13
ENDBRANCH   7  12
BRANCH   2  21
HETATM   21  C   UNL     1       8.165  28.184  55.687  1.00  0.00    -0.026 A 
HETATM   22  C   UNL     1       7.847  28.575  56.999  1.00  0.00     0.033 A 
HETATM   23  C   UNL     1       8.621  29.532  57.658  1.00  0.00     0.034 A 
HETATM   24 CL   UNL     1       8.211  30.006  59.260  1.00  0.00    -0.084 Cl
HETATM   25  C   UNL     1       9.719  30.111  57.027  1.00  0.00     0.024 A 
HETATM   26  C   UNL     1      10.050  29.731  55.728  1.00  0.00     0.002 A 
HETATM   27  C   UNL     1       9.280  28.774  55.062  1.00  0.00     0.010 A 
ENDBRANCH   2  21
BRANCH   1  28
HETATM   28  C   UNL     1       7.791  25.060  56.261  1.00  0.00     0.293 C 
HETATM   29  O   UNL     1       8.256  24.942  57.385  1.00  0.00    -0.259 OA
BRANCH  28  30
HETATM   30  O   UNL     1       8.223  24.386  55.170  1.00  0.00    -0.318 OA
BRANCH  30  31
HETATM   31  C   UNL     1       7.361  23.340  54.695  1.00  0.00     0.174 C 
HETATM   32  C   UNL     1       7.355  23.294  53.178  1.00  0.00     0.034 C 
ENDBRANCH  30  31
ENDBRANCH  28  30
ENDBRANCH   1  28
TORSDOF 7
ENDMDL
MODEL 6
REMARK VINA RESULT:      -8.6      5.528      7.326
REMARK  7 active torsions:
REMARK  status: ('A' for Active; 'I' for Inactive)
REMARK    1  A    between atoms: C_2  and  O_3 
REMARK    2  A    between atoms: O_3  and  C_4 
REMARK    3  A    between atoms: C_4  and  C_5 
REMARK    4  A    between atoms: C_6  and  C_7 
REMARK    5  A    between atoms: C_18  and  S_19 
REMARK    6  A    between atoms: S_19  and  C_20 
REMARK    7  A    between atoms: C_20  and  C_21 
ROOT
HETATM    1  C   UNL     1       3.641  28.413  49.493  1.00  0.00     0.070 C 
HETATM    2  C   UNL     1       3.574  28.494  51.020  1.00  0.00     0.203 C 
HETATM    3  N   UNL     1       4.528  27.569  51.636  1.00  0.00    -0.082 N 
HETATM    4  C   UNL     1       5.564  26.984  50.963  1.00  0.00     0.726 A 
HETATM    5  N   UNL     1       5.710  27.232  49.646  1.00  0.00    -0.192 N 
HETATM    6  N   UNL     1       4.451  27.127  52.903  1.00  0.00    -0.128 NA
HETATM    7  C   UNL     1       5.514  26.313  52.950  1.00  0.00     0.226 A 
HETATM    8  N   UNL     1       6.231  26.211  51.781  1.00  0.00    -0.035 NA
HETATM    9  C   UNL     1       4.715  27.848  48.881  1.00  0.00     0.037 C 
HETATM   10  C   UNL     1       4.955  27.831  47.390  1.00  0.00     0.070 C 
HETATM   11  H   UNL     1       6.424  26.714  49.140  1.00  0.00     0.184 HD
ENDROOT
BRANCH   7  12
HETATM   12  S   UNL     1       5.889  25.437  54.404  1.00  0.00    -0.083 SA
BRANCH  12  13
HETATM   13  C   UNL     1       7.608  24.965  54.074  1.00  0.00     0.123 C 
BRANCH  13  14
HETATM   14  C   UNL     1       7.779  23.464  54.121  1.00  0.00    -0.027 A 
HETATM   15  C   UNL     1       7.968  22.755  55.319  1.00  0.00     0.041 A 
HETATM   16 CL   UNL     1       7.986  23.540  56.859  1.00  0.00    -0.084 Cl
HETATM   17  C   UNL     1       8.154  21.368  55.303  1.00  0.00     0.024 A 
HETATM   18  C   UNL     1       8.163  20.673  54.095  1.00  0.00     0.002 A 
HETATM   19  C   UNL     1       7.986  21.362  52.899  1.00  0.00     0.001 A 
HETATM   20  C   UNL     1       7.797  22.744  52.911  1.00  0.00     0.009 A 
ENDBRANCH  13  14
ENDBRANCH  12  13
ENDBRANCH   7  12
BRANCH   2  21
HETATM   21  C   UNL     1       3.829  29.909  51.546  1.00  0.00    -0.026 A 
HETATM   22  C   UNL     1       3.134  30.367  52.678  1.00  0.00     0.033 A 
HETATM   23  C   UNL     1       3.339  31.662  53.156  1.00  0.00     0.034 A 
HETATM   24 CL   UNL     1       2.472  32.210  54.538  1.00  0.00    -0.084 Cl
HETATM   25  C   UNL     1       4.236  32.518  52.522  1.00  0.00     0.024 A 
HETATM   26  C   UNL     1       4.937  32.077  51.401  1.00  0.00     0.002 A 
HETATM   27  C   UNL     1       4.736  30.782  50.915  1.00  0.00     0.010 A 
ENDBRANCH   2  21
BRANCH   1  28
HETATM   28  C   UNL     1       2.413  28.945  48.844  1.00  0.00     0.293 C 
HETATM   29  O   UNL     1       2.361  30.055  48.337  1.00  0.00    -0.259 OA
BRANCH  28  30
HETATM   30  O   UNL     1       1.357  28.112  48.993  1.00  0.00    -0.318 OA
BRANCH  30  31
HETATM   31  C   UNL     1       1.236  27.070  48.012  1.00  0.00     0.174 C 
HETATM   32  C   UNL     1       0.561  27.589  46.755  1.00  0.00     0.034 C 
ENDBRANCH  30  31
ENDBRANCH  28  30
ENDBRANCH   1  28
TORSDOF 7
ENDMDL
MODEL 7
REMARK VINA RESULT:      -8.5      5.670      7.388
REMARK  7 active torsions:
REMARK  status: ('A' for Active; 'I' for Inactive)
REMARK    1  A    between atoms: C_2  and  O_3 
REMARK    2  A    between atoms: O_3  and  C_4 
REMARK    3  A    between atoms: C_4  and  C_5 
REMARK    4  A    between atoms: C_6  and  C_7 
REMARK    5  A    between atoms: C_18  and  S_19 
REMARK    6  A    between atoms: S_19  and  C_20 
REMARK    7  A    between atoms: C_20  and  C_21 
ROOT
HETATM    1  C   UNL     1       3.452  27.856  49.276  1.00  0.00     0.070 C 
HETATM    2  C   UNL     1       3.778  28.395  50.671  1.00  0.00     0.203 C 
HETATM    3  N   UNL     1       4.632  27.460  51.408  1.00  0.00    -0.082 N 
HETATM    4  C   UNL     1       5.321  26.435  50.822  1.00  0.00     0.726 A 
HETATM    5  N   UNL     1       5.192  26.236  49.496  1.00  0.00    -0.192 N 
HETATM    6  N   UNL     1       4.772  27.448  52.744  1.00  0.00    -0.128 NA
HETATM    7  C   UNL     1       5.614  26.418  52.899  1.00  0.00     0.226 A 
HETATM    8  N   UNL     1       5.985  25.780  51.739  1.00  0.00    -0.035 NA
HETATM    9  C   UNL     1       4.198  26.856  48.733  1.00  0.00     0.037 C 
HETATM   10  C   UNL     1       4.057  26.337  47.323  1.00  0.00     0.070 C 
HETATM   11  H   UNL     1       5.633  25.413  49.093  1.00  0.00     0.184 HD
ENDROOT
BRANCH   7  12
HETATM   12  S   UNL     1       6.133  25.936  54.487  1.00  0.00    -0.083 SA
BRANCH  12  13
HETATM   13  C   UNL     1       7.759  25.231  54.105  1.00  0.00     0.123 C 
BRANCH  13  14
HETATM   14  C   UNL     1       7.735  23.723  54.206  1.00  0.00    -0.027 A 
HETATM   15  C   UNL     1       7.755  23.040  55.433  1.00  0.00     0.041 A 
HETATM   16 CL   UNL     1       7.773  23.872  56.948  1.00  0.00    -0.084 Cl
HETATM   17  C   UNL     1       7.764  21.641  55.469  1.00  0.00     0.024 A 
HETATM   18  C   UNL     1       7.763  20.906  54.283  1.00  0.00     0.002 A 
HETATM   19  C   UNL     1       7.752  21.568  53.060  1.00  0.00     0.001 A 
HETATM   20  C   UNL     1       7.739  22.963  53.020  1.00  0.00     0.009 A 
ENDBRANCH  13  14
ENDBRANCH  12  13
ENDBRANCH   7  12
BRANCH   2  21
HETATM   21  C   UNL     1       4.452  29.769  50.627  1.00  0.00    -0.026 A 
HETATM   22  C   UNL     1       3.944  30.820  51.410  1.00  0.00     0.033 A 
HETATM   23  C   UNL     1       4.534  32.083  51.366  1.00  0.00     0.034 A 
HETATM   24 CL   UNL     1       3.892  33.361  52.324  1.00  0.00    -0.084 Cl
HETATM   25  C   UNL     1       5.635  32.322  50.547  1.00  0.00     0.024 A 
HETATM   26  C   UNL     1       6.154  31.290  49.769  1.00  0.00     0.002 A 
HETATM   27  C   UNL     1       5.569  30.022  49.807  1.00  0.00     0.010 A 
ENDBRANCH   2  21
BRANCH   1  28
HETATM   28  C   UNL     1       2.248  28.500  48.688  1.00  0.00     0.293 C 
HETATM   29  O   UNL     1       1.111  28.125  48.932  1.00  0.00    -0.259 OA
BRANCH  28  30
HETATM   30  O   UNL     1       2.571  29.451  47.781  1.00  0.00    -0.318 OA
BRANCH  30  31
HETATM   31  C   UNL     1       2.125  30.783  48.080  1.00  0.00     0.174 C 
HETATM   32  C   UNL     1       3.133  31.810  47.596  1.00  0.00     0.034 C 
ENDBRANCH  30  31
ENDBRANCH  28  30
ENDBRANCH   1  28
TORSDOF 7
ENDMDL
MODEL 8
REMARK VINA RESULT:      -8.2      2.166      2.970
REMARK  7 active torsions:
REMARK  status: ('A' for Active; 'I' for Inactive)
REMARK    1  A    between atoms: C_2  and  O_3 
REMARK    2  A    between atoms: O_3  and  C_4 
REMARK    3  A    between atoms: C_4  and  C_5 
REMARK    4  A    between atoms: C_6  and  C_7 
REMARK    5  A    between atoms: C_18  and  S_19 
REMARK    6  A    between atoms: S_19  and  C_20 
REMARK    7  A    between atoms: C_20  and  C_21 
ROOT
HETATM    1  C   UNL     1       4.755  32.156  57.085  1.00  0.00     0.070 C 
HETATM    2  C   UNL     1       5.288  30.978  57.905  1.00  0.00     0.203 C 
HETATM    3  N   UNL     1       5.367  29.764  57.088  1.00  0.00    -0.082 N 
HETATM    4  C   UNL     1       5.313  29.761  55.723  1.00  0.00     0.726 A 
HETATM    5  N   UNL     1       5.141  30.929  55.074  1.00  0.00    -0.192 N 
HETATM    6  N   UNL     1       5.420  28.516  57.582  1.00  0.00    -0.128 NA
HETATM    7  C   UNL     1       5.455  27.799  56.452  1.00  0.00     0.226 A 
HETATM    8  N   UNL     1       5.405  28.530  55.288  1.00  0.00    -0.035 NA
HETATM    9  C   UNL     1       4.759  32.105  55.726  1.00  0.00     0.037 C 
HETATM   10  C   UNL     1       4.386  33.249  54.815  1.00  0.00     0.070 C 
HETATM   11  H   UNL     1       5.004  30.899  54.066  1.00  0.00     0.184 HD
ENDROOT
BRANCH   7  12
HETATM   12  S   UNL     1       5.512  26.062  56.511  1.00  0.00    -0.083 SA
BRANCH  12  13
HETATM   13  C   UNL     1       7.273  25.777  56.188  1.00  0.00     0.123 C 
BRANCH  13  14
HETATM   14  C   UNL     1       7.467  24.802  55.050  1.00  0.00    -0.027 A 
HETATM   15  C   UNL     1       7.551  25.203  53.706  1.00  0.00     0.041 A 
HETATM   16 CL   UNL     1       7.475  26.865  53.237  1.00  0.00    -0.084 Cl
HETATM   17  C   UNL     1       7.698  24.254  52.688  1.00  0.00     0.024 A 
HETATM   18  C   UNL     1       7.754  22.895  52.994  1.00  0.00     0.002 A 
HETATM   19  C   UNL     1       7.664  22.481  54.320  1.00  0.00     0.001 A 
HETATM   20  C   UNL     1       7.520  23.424  55.338  1.00  0.00     0.009 A 
ENDBRANCH  13  14
ENDBRANCH  12  13
ENDBRANCH   7  12
BRANCH   2  21
HETATM   21  C   UNL     1       6.660  31.263  58.522  1.00  0.00    -0.026 A 
HETATM   22  C   UNL     1       7.818  30.754  57.911  1.00  0.00     0.033 A 
HETATM   23  C   UNL     1       9.074  30.987  58.472  1.00  0.00     0.034 A 
HETATM   24 CL   UNL     1      10.481  30.346  57.716  1.00  0.00    -0.084 Cl
HETATM   25  C   UNL     1       9.199  31.730  59.644  1.00  0.00     0.024 A 
HETATM   26  C   UNL     1       8.061  32.247  60.259  1.00  0.00     0.002 A 
HETATM   27  C   UNL     1       6.800  32.017  59.704  1.00  0.00     0.010 A 
ENDBRANCH   2  21
BRANCH   1  28
HETATM   28  C   UNL     1       4.215  33.243  57.943  1.00  0.00     0.293 C 
HETATM   29  O   UNL     1       4.772  34.323  58.072  1.00  0.00    -0.259 OA
BRANCH  28  30
HETATM   30  O   UNL     1       3.123  32.848  58.638  1.00  0.00    -0.318 OA
BRANCH  30  31
HETATM   31  C   UNL     1       3.178  33.043  60.060  1.00  0.00     0.174 C 
HETATM   32  C   UNL     1       2.150  34.068  60.503  1.00  0.00     0.034 C 
ENDBRANCH  30  31
ENDBRANCH  28  30
ENDBRANCH   1  28
TORSDOF 7
ENDMDL
MODEL 9
REMARK VINA RESULT:      -8.0      4.400      6.584
REMARK  7 active torsions:
REMARK  status: ('A' for Active; 'I' for Inactive)
REMARK    1  A    between atoms: C_2  and  O_3 
REMARK    2  A    between atoms: O_3  and  C_4 
REMARK    3  A    between atoms: C_4  and  C_5 
REMARK    4  A    between atoms: C_6  and  C_7 
REMARK    5  A    between atoms: C_18  and  S_19 
REMARK    6  A    between atoms: S_19  and  C_20 
REMARK    7  A    between atoms: C_20  and  C_21 
ROOT
HETATM    1  C   UNL     1       6.831  26.213  56.591  1.00  0.00     0.070 C 
HETATM    2  C   UNL     1       7.437  27.357  55.773  1.00  0.00     0.203 C 
HETATM    3  N   UNL     1       6.548  27.743  54.674  1.00  0.00    -0.082 N 
HETATM    4  C   UNL     1       5.231  27.386  54.599  1.00  0.00     0.726 A 
HETATM    5  N   UNL     1       4.711  26.603  55.565  1.00  0.00    -0.192 N 
HETATM    6  N   UNL     1       6.939  28.418  53.580  1.00  0.00    -0.128 NA
HETATM    7  C   UNL     1       5.785  28.488  52.903  1.00  0.00     0.226 A 
HETATM    8  N   UNL     1       4.710  27.877  53.504  1.00  0.00    -0.035 NA
HETATM    9  C   UNL     1       5.505  25.929  56.498  1.00  0.00     0.037 C 
HETATM   10  C   UNL     1       4.772  24.920  57.348  1.00  0.00     0.070 C 
HETATM   11  H   UNL     1       3.759  26.267  55.444  1.00  0.00     0.184 HD
ENDROOT
BRANCH   7  12
HETATM   12  S   UNL     1       5.721  29.270  51.351  1.00  0.00    -0.083 SA
BRANCH  12  13
HETATM   13  C   UNL     1       3.929  29.325  51.081  1.00  0.00     0.123 C 
BRANCH  13  14
HETATM   14  C   UNL     1       3.510  28.345  50.010  1.00  0.00    -0.027 A 
HETATM   15  C   UNL     1       2.281  28.432  49.335  1.00  0.00     0.041 A 
HETATM   16 CL   UNL     1       1.148  29.699  49.648  1.00  0.00    -0.084 Cl
HETATM   17  C   UNL     1       1.928  27.478  48.374  1.00  0.00     0.024 A 
HETATM   18  C   UNL     1       2.790  26.422  48.080  1.00  0.00     0.002 A 
HETATM   19  C   UNL     1       4.007  26.317  48.746  1.00  0.00     0.001 A 
HETATM   20  C   UNL     1       4.364  27.268  49.703  1.00  0.00     0.009 A 
ENDBRANCH  13  14
ENDBRANCH  12  13
ENDBRANCH   7  12
BRANCH   2  21
HETATM   21  C   UNL     1       7.751  28.588  56.626  1.00  0.00    -0.026 A 
HETATM   22  C   UNL     1       6.710  29.440  57.030  1.00  0.00     0.033 A 
HETATM   23  C   UNL     1       6.982  30.578  57.790  1.00  0.00     0.034 A 
HETATM   24 CL   UNL     1       5.695  31.616  58.268  1.00  0.00    -0.084 Cl
HETATM   25  C   UNL     1       8.289  30.886  58.162  1.00  0.00     0.024 A 
HETATM   26  C   UNL     1       9.333  30.048  57.774  1.00  0.00     0.002 A 
HETATM   27  C   UNL     1       9.068  28.907  57.012  1.00  0.00     0.010 A 
ENDBRANCH   2  21
BRANCH   1  28
HETATM   28  C   UNL     1       7.854  25.483  57.384  1.00  0.00     0.293 C 
HETATM   29  O   UNL     1       8.035  25.683  58.576  1.00  0.00    -0.259 OA
BRANCH  28  30
HETATM   30  O   UNL     1       8.619  24.677  56.611  1.00  0.00    -0.318 OA
BRANCH  30  31
HETATM   31  C   UNL     1       8.316  23.275  56.672  1.00  0.00     0.174 C 
HETATM   32  C   UNL     1       7.948  22.743  55.299  1.00  0.00     0.034 C 
ENDBRANCH  30  31
ENDBRANCH  28  30
ENDBRANCH   1  28
TORSDOF 7
ENDMDL
MODEL 10
REMARK VINA RESULT:      -7.9      4.698      7.568
REMARK  7 active torsions:
REMARK  status: ('A' for Active; 'I' for Inactive)
REMARK    1  A    between atoms: C_2  and  O_3 
REMARK    2  A    between atoms: O_3  and  C_4 
REMARK    3  A    between atoms: C_4  and  C_5 
REMARK    4  A    between atoms: C_6  and  C_7 
REMARK    5  A    between atoms: C_18  and  S_19 
REMARK    6  A    between atoms: S_19  and  C_20 
REMARK    7  A    between atoms: C_20  and  C_21 
ROOT
HETATM    1  C   UNL     1       3.915  31.272  51.703  1.00  0.00     0.070 C 
HETATM    2  C   UNL     1       4.464  29.851  51.547  1.00  0.00     0.203 C 
HETATM    3  N   UNL     1       4.475  29.150  52.834  1.00  0.00    -0.082 N 
HETATM    4  C   UNL     1       3.779  29.567  53.933  1.00  0.00     0.726 A 
HETATM    5  N   UNL     1       3.064  30.706  53.860  1.00  0.00    -0.192 N 
HETATM    6  N   UNL     1       5.228  28.071  53.106  1.00  0.00    -0.128 NA
HETATM    7  C   UNL     1       4.894  27.848  54.383  1.00  0.00     0.226 A 
HETATM    8  N   UNL     1       3.995  28.737  54.922  1.00  0.00    -0.035 NA
HETATM    9  C   UNL     1       3.200  31.616  52.807  1.00  0.00     0.037 C 
HETATM   10  C   UNL     1       2.499  32.937  53.010  1.00  0.00     0.070 C 
HETATM   11  H   UNL     1       2.632  31.053  54.714  1.00  0.00     0.184 HD
ENDROOT
BRANCH   7  12
HETATM   12  S   UNL     1       5.613  26.533  55.265  1.00  0.00    -0.083 SA
BRANCH  12  13
HETATM   13  C   UNL     1       7.222  26.419  54.437  1.00  0.00     0.123 C 
BRANCH  13  14
HETATM   14  C   UNL     1       7.631  24.978  54.238  1.00  0.00    -0.027 A 
HETATM   15  C   UNL     1       8.204  24.200  55.258  1.00  0.00     0.041 A 
HETATM   16 CL   UNL     1       8.461  24.818  56.851  1.00  0.00    -0.084 Cl
HETATM   17  C   UNL     1       8.595  22.879  55.011  1.00  0.00     0.024 A 
HETATM   18  C   UNL     1       8.429  22.320  53.744  1.00  0.00     0.002 A 
HETATM   19  C   UNL     1       7.870  23.081  52.721  1.00  0.00     0.001 A 
HETATM   20  C   UNL     1       7.476  24.397  52.964  1.00  0.00     0.009 A 
ENDBRANCH  13  14
ENDBRANCH  12  13
ENDBRANCH   7  12
BRANCH   2  21
HETATM   21  C   UNL     1       3.676  29.025  50.527  1.00  0.00    -0.026 A 
HETATM   22  C   UNL     1       4.353  28.122  49.690  1.00  0.00     0.033 A 
HETATM   23  C   UNL     1       3.653  27.378  48.740  1.00  0.00     0.034 A 
HETATM   24 CL   UNL     1       4.500  26.284  47.717  1.00  0.00    -0.084 Cl
HETATM   25  C   UNL     1       2.273  27.516  48.609  1.00  0.00     0.024 A 
HETATM   26  C   UNL     1       1.586  28.403  49.435  1.00  0.00     0.002 A 
HETATM   27  C   UNL     1       2.280  29.153  50.388  1.00  0.00     0.010 A 
ENDBRANCH   2  21
BRANCH   1  28
HETATM   28  C   UNL     1       4.315  32.159  50.579  1.00  0.00     0.293 C 
HETATM   29  O   UNL     1       3.521  32.574  49.749  1.00  0.00    -0.259 OA
BRANCH  28  30
HETATM   30  O   UNL     1       5.655  32.341  50.526  1.00  0.00    -0.318 OA
BRANCH  30  31
HETATM   31  C   UNL     1       6.276  32.078  49.258  1.00  0.00     0.174 C 
HETATM   32  C   UNL     1       6.668  33.374  48.572  1.00  0.00     0.034 C 
ENDBRANCH  30  31
ENDBRANCH  28  30
ENDBRANCH   1  28
TORSDOF 7
ENDMDL
