MODEL 1
REMARK VINA RESULT:      -9.1      0.000      0.000
REMARK  4 active torsions:
REMARK  status: ('A' for Active; 'I' for Inactive)
REMARK    1  A    between atoms: C_3  and  N_4 
REMARK       I    between atoms: N_4  and  C_5 
REMARK    2  A    between atoms: C_5  and  C_6 
REMARK    3  A    between atoms: C_7  and  C_8 
REMARK    4  A    between atoms: C_16  and  C_17 
ROOT
HETATM    1  C   UNL     1       7.582  24.685  51.961  1.00  0.00     0.003 A 
HETATM    2  C   UNL     1       7.403  25.721  52.879  1.00  0.00     0.029 A 
HETATM    3  C   UNL     1       7.552  25.483  54.244  1.00  0.00     0.035 A 
HETATM    4  C   UNL     1       7.876  24.186  54.677  1.00  0.00     0.042 A 
HETATM    5  C   UNL     1       8.057  23.131  53.766  1.00  0.00    -0.021 A 
HETATM    6  C   UNL     1       7.909  23.401  52.399  1.00  0.00     0.012 A 
ENDROOT
BRANCH   3   7
HETATM    7  N   UNL     1       7.423  26.479  55.234  1.00  0.00    -0.327 N 
HETATM    8  C   UNL     1       7.745  27.816  55.129  1.00  0.00     0.227 C 
HETATM    9  O   UNL     1       8.133  28.409  54.133  1.00  0.00    -0.273 OA
HETATM   10  H   UNL     1       7.071  26.168  56.129  1.00  0.00     0.169 HD
BRANCH   8  11
HETATM   11  C   UNL     1       7.601  28.557  56.419  1.00  0.00     0.089 A 
HETATM   12  C   UNL     1       8.758  28.593  57.408  1.00  0.00     0.057 A 
HETATM   13  C   UNL     1       7.511  27.788  57.702  1.00  0.00     0.027 A 
BRANCH  12  14
HETATM   14  C   UNL     1       8.967  29.871  58.197  1.00  0.00     0.057 A 
HETATM   15  O   UNL     1       8.145  30.307  59.193  1.00  0.00    -0.327 OA
HETATM   16  C   UNL     1       8.668  31.469  59.661  1.00  0.00     0.142 A 
HETATM   17  C   UNL     1       9.815  31.790  58.975  1.00  0.00     0.027 A 
HETATM   18  C   UNL     1      10.009  30.757  58.025  1.00  0.00     0.035 A 
ENDBRANCH  12  14
ENDBRANCH   8  11
ENDBRANCH   3   7
BRANCH   5  19
HETATM   19  C   UNL     1       8.399  21.796  54.246  1.00  0.00     0.010 A 
HETATM   20  C   UNL     1       8.570  20.575  53.546  1.00  0.00     0.152 A 
HETATM   21  N   UNL     1       8.894  19.555  54.346  1.00  0.00    -0.187 NA
HETATM   22  N   UNL     1       8.931  20.114  55.564  1.00  0.00    -0.289 N 
HETATM   23  H   UNL     1       9.161  19.525  56.358  1.00  0.00     0.188 HD
HETATM   24  C   UNL     1       8.645  21.449  55.558  1.00  0.00     0.123 A 
ENDBRANCH   5  19
TORSDOF 4
ENDMDL
MODEL 2
REMARK VINA RESULT:      -8.6      3.891      7.005
REMARK  4 active torsions:
REMARK  status: ('A' for Active; 'I' for Inactive)
REMARK    1  A    between atoms: C_3  and  N_4 
REMARK       I    between atoms: N_4  and  C_5 
REMARK    2  A    between atoms: C_5  and  C_6 
REMARK    3  A    between atoms: C_7  and  C_8 
REMARK    4  A    between atoms: C_16  and  C_17 
ROOT
HETATM    1  C   UNL     1       7.905  25.066  56.569  1.00  0.00     0.003 A 
HETATM    2  C   UNL     1       7.253  25.833  55.603  1.00  0.00     0.029 A 
HETATM    3  C   UNL     1       6.957  25.287  54.355  1.00  0.00     0.035 A 
HETATM    4  C   UNL     1       7.332  23.960  54.088  1.00  0.00     0.042 A 
HETATM    5  C   UNL     1       7.993  23.174  55.048  1.00  0.00    -0.021 A 
HETATM    6  C   UNL     1       8.271  23.746  56.296  1.00  0.00     0.012 A 
ENDROOT
BRANCH   3   7
HETATM    7  N   UNL     1       6.270  25.979  53.337  1.00  0.00    -0.327 N 
HETATM    8  C   UNL     1       5.040  25.673  52.793  1.00  0.00     0.227 C 
HETATM    9  O   UNL     1       4.275  24.786  53.143  1.00  0.00    -0.273 OA
HETATM   10  H   UNL     1       6.747  26.782  52.951  1.00  0.00     0.169 HD
BRANCH   8  11
HETATM   11  C   UNL     1       4.674  26.550  51.639  1.00  0.00     0.089 A 
HETATM   12  C   UNL     1       5.125  26.182  50.233  1.00  0.00     0.057 A 
HETATM   13  C   UNL     1       5.740  27.357  50.963  1.00  0.00     0.027 A 
BRANCH  12  14
HETATM   14  C   UNL     1       4.177  26.488  49.089  1.00  0.00     0.057 A 
HETATM   15  O   UNL     1       3.941  27.737  48.594  1.00  0.00    -0.327 OA
HETATM   16  C   UNL     1       3.053  27.600  47.577  1.00  0.00     0.142 A 
HETATM   17  C   UNL     1       2.710  26.279  47.412  1.00  0.00     0.027 A 
HETATM   18  C   UNL     1       3.436  25.558  48.393  1.00  0.00     0.035 A 
ENDBRANCH  12  14
ENDBRANCH   8  11
ENDBRANCH   3   7
BRANCH   5  19
HETATM   19  C   UNL     1       8.365  21.798  54.742  1.00  0.00     0.010 A 
HETATM   20  C   UNL     1       8.306  21.069  53.526  1.00  0.00     0.152 A 
HETATM   21  N   UNL     1       8.751  19.816  53.646  1.00  0.00    -0.187 NA
HETATM   22  N   UNL     1       9.098  19.730  54.938  1.00  0.00    -0.289 N 
HETATM   23  H   UNL     1       9.474  18.850  55.279  1.00  0.00     0.188 HD
HETATM   24  C   UNL     1       8.890  20.886  55.634  1.00  0.00     0.123 A 
ENDBRANCH   5  19
TORSDOF 4
ENDMDL
MODEL 3
REMARK VINA RESULT:      -8.5      2.755      8.182
REMARK  4 active torsions:
REMARK  status: ('A' for Active; 'I' for Inactive)
REMARK    1  A    between atoms: C_3  and  N_4 
REMARK       I    between atoms: N_4  and  C_5 
REMARK    2  A    between atoms: C_5  and  C_6 
REMARK    3  A    between atoms: C_7  and  C_8 
REMARK    4  A    between atoms: C_16  and  C_17 
ROOT
HETATM    1  C   UNL     1       5.313  29.057  57.404  1.00  0.00     0.003 A 
HETATM    2  C   UNL     1       5.411  27.802  56.801  1.00  0.00     0.029 A 
HETATM    3  C   UNL     1       6.659  27.286  56.455  1.00  0.00     0.035 A 
HETATM    4  C   UNL     1       7.808  28.051  56.716  1.00  0.00     0.042 A 
HETATM    5  C   UNL     1       7.726  29.318  57.320  1.00  0.00    -0.021 A 
HETATM    6  C   UNL     1       6.460  29.808  57.664  1.00  0.00     0.012 A 
ENDROOT
BRANCH   3   7
HETATM    7  N   UNL     1       6.850  26.014  55.876  1.00  0.00    -0.327 N 
HETATM    8  C   UNL     1       6.745  25.672  54.544  1.00  0.00     0.227 C 
HETATM    9  O   UNL     1       6.541  26.422  53.600  1.00  0.00    -0.273 OA
HETATM   10  H   UNL     1       7.071  25.265  56.518  1.00  0.00     0.169 HD
BRANCH   8  11
HETATM   11  C   UNL     1       6.887  24.204  54.302  1.00  0.00     0.089 A 
HETATM   12  C   UNL     1       8.270  23.590  54.143  1.00  0.00     0.057 A 
HETATM   13  C   UNL     1       7.338  23.721  52.957  1.00  0.00     0.027 A 
BRANCH  12  14
HETATM   14  C   UNL     1       8.491  22.200  54.709  1.00  0.00     0.057 A 
HETATM   15  O   UNL     1       8.747  21.932  56.021  1.00  0.00    -0.327 OA
HETATM   16  C   UNL     1       8.870  20.584  56.134  1.00  0.00     0.142 A 
HETATM   17  C   UNL     1       8.700  19.982  54.910  1.00  0.00     0.027 A 
HETATM   18  C   UNL     1       8.457  21.028  53.985  1.00  0.00     0.035 A 
ENDBRANCH  12  14
ENDBRANCH   8  11
ENDBRANCH   3   7
BRANCH   5  19
HETATM   19  C   UNL     1       8.938  30.086  57.583  1.00  0.00     0.010 A 
HETATM   20  C   UNL     1       9.160  31.211  58.417  1.00  0.00     0.152 A 
HETATM   21  N   UNL     1      10.427  31.633  58.399  1.00  0.00    -0.187 NA
HETATM   22  N   UNL     1      11.027  30.783  57.553  1.00  0.00    -0.289 N 
HETATM   23  H   UNL     1      12.018  30.904  57.371  1.00  0.00     0.188 HD
HETATM   24  C   UNL     1      10.183  29.840  57.041  1.00  0.00     0.123 A 
ENDBRANCH   5  19
TORSDOF 4
ENDMDL
MODEL 4
REMARK VINA RESULT:      -8.5      3.140      8.704
REMARK  4 active torsions:
REMARK  status: ('A' for Active; 'I' for Inactive)
REMARK    1  A    between atoms: C_3  and  N_4 
REMARK       I    between atoms: N_4  and  C_5 
REMARK    2  A    between atoms: C_5  and  C_6 
REMARK    3  A    between atoms: C_7  and  C_8 
REMARK    4  A    between atoms: C_16  and  C_17 
ROOT
HETATM    1  C   UNL     1       5.051  29.169  57.094  1.00  0.00     0.003 A 
HETATM    2  C   UNL     1       5.574  27.930  56.724  1.00  0.00     0.029 A 
HETATM    3  C   UNL     1       6.913  27.631  56.970  1.00  0.00     0.035 A 
HETATM    4  C   UNL     1       7.724  28.599  57.586  1.00  0.00     0.042 A 
HETATM    5  C   UNL     1       7.214  29.854  57.962  1.00  0.00    -0.021 A 
HETATM    6  C   UNL     1       5.863  30.124  57.711  1.00  0.00     0.012 A 
ENDROOT
BRANCH   3   7
HETATM    7  N   UNL     1       7.511  26.392  56.660  1.00  0.00    -0.327 N 
HETATM    8  C   UNL     1       7.602  25.787  55.424  1.00  0.00     0.227 C 
HETATM    9  O   UNL     1       7.247  26.245  54.347  1.00  0.00    -0.273 OA
HETATM   10  H   UNL     1       7.902  25.883  57.442  1.00  0.00     0.169 HD
BRANCH   8  11
HETATM   11  C   UNL     1       8.189  24.414  55.485  1.00  0.00     0.089 A 
HETATM   12  C   UNL     1       7.286  23.195  55.358  1.00  0.00     0.057 A 
HETATM   13  C   UNL     1       7.924  23.554  56.683  1.00  0.00     0.027 A 
BRANCH  12  14
HETATM   14  C   UNL     1       7.835  21.988  54.621  1.00  0.00     0.057 A 
HETATM   15  O   UNL     1       8.399  20.905  55.227  1.00  0.00    -0.327 OA
HETATM   16  C   UNL     1       8.752  20.038  54.243  1.00  0.00     0.142 A 
HETATM   17  C   UNL     1       8.426  20.552  53.010  1.00  0.00     0.027 A 
HETATM   18  C   UNL     1       7.834  21.816  53.254  1.00  0.00     0.035 A 
ENDBRANCH  12  14
ENDBRANCH   8  11
ENDBRANCH   3   7
BRANCH   5  19
HETATM   19  C   UNL     1       8.080  30.836  58.605  1.00  0.00     0.010 A 
HETATM   20  C   UNL     1       9.437  31.171  58.369  1.00  0.00     0.152 A 
HETATM   21  N   UNL     1       9.882  32.144  59.169  1.00  0.00    -0.187 NA
HETATM   22  N   UNL     1       8.815  32.437  59.926  1.00  0.00    -0.289 N 
HETATM   23  H   UNL     1       8.908  33.164  60.628  1.00  0.00     0.188 HD
HETATM   24  C   UNL     1       7.715  31.687  59.627  1.00  0.00     0.123 A 
ENDBRANCH   5  19
TORSDOF 4
ENDMDL
MODEL 5
REMARK VINA RESULT:      -8.4      3.207      8.831
REMARK  4 active torsions:
REMARK  status: ('A' for Active; 'I' for Inactive)
REMARK    1  A    between atoms: C_3  and  N_4 
REMARK       I    between atoms: N_4  and  C_5 
REMARK    2  A    between atoms: C_5  and  C_6 
REMARK    3  A    between atoms: C_7  and  C_8 
REMARK    4  A    between atoms: C_16  and  C_17 
ROOT
HETATM    1  C   UNL     1      10.471  29.998  57.251  1.00  0.00     0.003 A 
HETATM    2  C   UNL     1       9.957  28.834  56.675  1.00  0.00     0.029 A 
HETATM    3  C   UNL     1       8.699  28.364  57.046  1.00  0.00     0.035 A 
HETATM    4  C   UNL     1       7.964  29.075  58.011  1.00  0.00     0.042 A 
HETATM    5  C   UNL     1       8.468  30.246  58.603  1.00  0.00    -0.021 A 
HETATM    6  C   UNL     1       9.732  30.700  58.205  1.00  0.00     0.012 A 
ENDROOT
BRANCH   3   7
HETATM    7  N   UNL     1       8.092  27.219  56.490  1.00  0.00    -0.327 N 
HETATM    8  C   UNL     1       7.961  25.973  57.065  1.00  0.00     0.227 C 
HETATM    9  O   UNL     1       8.279  25.642  58.198  1.00  0.00    -0.273 OA
HETATM   10  H   UNL     1       7.729  27.325  55.552  1.00  0.00     0.169 HD
BRANCH   8  11
HETATM   11  C   UNL     1       7.378  24.956  56.137  1.00  0.00     0.089 A 
HETATM   12  C   UNL     1       8.195  24.446  54.959  1.00  0.00     0.057 A 
HETATM   13  C   UNL     1       7.009  25.361  54.742  1.00  0.00     0.027 A 
BRANCH  12  14
HETATM   14  C   UNL     1       8.034  22.989  54.570  1.00  0.00     0.057 A 
HETATM   15  O   UNL     1       7.946  21.958  55.459  1.00  0.00    -0.327 OA
HETATM   16  C   UNL     1       7.796  20.821  54.733  1.00  0.00     0.142 A 
HETATM   17  C   UNL     1       7.792  21.105  53.388  1.00  0.00     0.027 A 
HETATM   18  C   UNL     1       7.948  22.509  53.281  1.00  0.00     0.035 A 
ENDBRANCH  12  14
ENDBRANCH   8  11
ENDBRANCH   3   7
BRANCH   5  19
HETATM   19  C   UNL     1       7.679  30.964  59.597  1.00  0.00     0.010 A 
HETATM   20  C   UNL     1       7.899  31.169  60.983  1.00  0.00     0.152 A 
HETATM   21  N   UNL     1       6.941  31.899  61.562  1.00  0.00    -0.187 NA
HETATM   22  N   UNL     1       6.099  32.165  60.553  1.00  0.00    -0.289 N 
HETATM   23  H   UNL     1       5.271  32.719  60.749  1.00  0.00     0.188 HD
HETATM   24  C   UNL     1       6.495  31.632  59.360  1.00  0.00     0.123 A 
ENDBRANCH   5  19
TORSDOF 4
ENDMDL
MODEL 6
REMARK VINA RESULT:      -8.2      5.317     10.979
REMARK  4 active torsions:
REMARK  status: ('A' for Active; 'I' for Inactive)
REMARK    1  A    between atoms: C_3  and  N_4 
REMARK       I    between atoms: N_4  and  C_5 
REMARK    2  A    between atoms: C_5  and  C_6 
REMARK    3  A    between atoms: C_7  and  C_8 
REMARK    4  A    between atoms: C_16  and  C_17 
ROOT
HETATM    1  C   UNL     1       8.097  32.720  63.633  1.00  0.00     0.003 A 
HETATM    2  C   UNL     1       8.316  32.005  62.455  1.00  0.00     0.029 A 
HETATM    3  C   UNL     1       7.261  31.756  61.578  1.00  0.00     0.035 A 
HETATM    4  C   UNL     1       5.979  32.228  61.905  1.00  0.00     0.042 A 
HETATM    5  C   UNL     1       5.740  32.947  63.089  1.00  0.00    -0.021 A 
HETATM    6  C   UNL     1       6.820  33.190  63.947  1.00  0.00     0.012 A 
ENDROOT
BRANCH   3   7
HETATM    7  N   UNL     1       7.402  31.074  60.352  1.00  0.00    -0.327 N 
HETATM    8  C   UNL     1       8.162  31.449  59.263  1.00  0.00     0.227 C 
HETATM    9  O   UNL     1       8.917  32.407  59.181  1.00  0.00    -0.273 OA
HETATM   10  H   UNL     1       6.869  30.220  60.258  1.00  0.00     0.169 HD
BRANCH   8  11
HETATM   11  C   UNL     1       7.975  30.553  58.081  1.00  0.00     0.089 A 
HETATM   12  C   UNL     1       7.911  29.045  58.274  1.00  0.00     0.057 A 
HETATM   13  C   UNL     1       9.115  29.693  57.624  1.00  0.00     0.027 A 
BRANCH  12  14
HETATM   14  C   UNL     1       6.971  28.261  57.379  1.00  0.00     0.057 A 
HETATM   15  O   UNL     1       5.613  28.255  57.503  1.00  0.00    -0.327 OA
HETATM   16  C   UNL     1       5.128  27.454  56.519  1.00  0.00     0.142 A 
HETATM   17  C   UNL     1       6.157  26.941  55.766  1.00  0.00     0.027 A 
HETATM   18  C   UNL     1       7.351  27.462  56.323  1.00  0.00     0.035 A 
ENDBRANCH  12  14
ENDBRANCH   8  11
ENDBRANCH   3   7
BRANCH   5  19
HETATM   19  C   UNL     1       4.398  33.429  63.398  1.00  0.00     0.010 A 
HETATM   20  C   UNL     1       3.208  33.417  62.627  1.00  0.00     0.152 A 
HETATM   21  N   UNL     1       2.164  33.950  63.268  1.00  0.00    -0.187 NA
HETATM   22  N   UNL     1       2.677  34.309  64.454  1.00  0.00    -0.289 N 
HETATM   23  H   UNL     1       2.062  34.748  65.132  1.00  0.00     0.188 HD
HETATM   24  C   UNL     1       4.005  34.018  64.582  1.00  0.00     0.123 A 
ENDBRANCH   5  19
TORSDOF 4
ENDMDL
MODEL 7
REMARK VINA RESULT:      -8.1      3.202      8.283
REMARK  4 active torsions:
REMARK  status: ('A' for Active; 'I' for Inactive)
REMARK    1  A    between atoms: C_3  and  N_4 
REMARK       I    between atoms: N_4  and  C_5 
REMARK    2  A    between atoms: C_5  and  C_6 
REMARK    3  A    between atoms: C_7  and  C_8 
REMARK    4  A    between atoms: C_16  and  C_17 
ROOT
HETATM    1  C   UNL     1       4.488  30.011  54.789  1.00  0.00     0.003 A 
HETATM    2  C   UNL     1       4.794  28.819  54.132  1.00  0.00     0.029 A 
HETATM    3  C   UNL     1       5.781  27.973  54.637  1.00  0.00     0.035 A 
HETATM    4  C   UNL     1       6.462  28.345  55.808  1.00  0.00     0.042 A 
HETATM    5  C   UNL     1       6.167  29.544  56.480  1.00  0.00    -0.021 A 
HETATM    6  C   UNL     1       5.166  30.371  55.955  1.00  0.00     0.012 A 
ENDROOT
BRANCH   3   7
HETATM    7  N   UNL     1       6.127  26.735  54.056  1.00  0.00    -0.327 N 
HETATM    8  C   UNL     1       5.900  25.474  54.565  1.00  0.00     0.227 C 
HETATM    9  O   UNL     1       5.285  25.185  55.582  1.00  0.00    -0.273 OA
HETATM   10  H   UNL     1       6.616  26.785  53.172  1.00  0.00     0.169 HD
BRANCH   8  11
HETATM   11  C   UNL     1       6.518  24.389  53.742  1.00  0.00     0.089 A 
HETATM   12  C   UNL     1       7.879  23.828  54.126  1.00  0.00     0.057 A 
HETATM   13  C   UNL     1       7.717  24.699  52.899  1.00  0.00     0.027 A 
BRANCH  12  14
HETATM   14  C   UNL     1       8.116  22.346  53.904  1.00  0.00     0.057 A 
HETATM   15  O   UNL     1       8.025  21.722  52.696  1.00  0.00    -0.327 OA
HETATM   16  C   UNL     1       8.317  20.412  52.902  1.00  0.00     0.142 A 
HETATM   17  C   UNL     1       8.590  20.184  54.230  1.00  0.00     0.027 A 
HETATM   18  C   UNL     1       8.457  21.436  54.881  1.00  0.00     0.035 A 
ENDBRANCH  12  14
ENDBRANCH   8  11
ENDBRANCH   3   7
BRANCH   5  19
HETATM   19  C   UNL     1       6.888  29.899  57.697  1.00  0.00     0.010 A 
HETATM   20  C   UNL     1       8.016  29.302  58.316  1.00  0.00     0.152 A 
HETATM   21  N   UNL     1       8.395  29.931  59.431  1.00  0.00    -0.187 NA
HETATM   22  N   UNL     1       7.513  30.934  59.538  1.00  0.00    -0.289 N 
HETATM   23  H   UNL     1       7.597  31.568  60.328  1.00  0.00     0.188 HD
HETATM   24  C   UNL     1       6.595  30.961  58.528  1.00  0.00     0.123 A 
ENDBRANCH   5  19
TORSDOF 4
ENDMDL
MODEL 8
REMARK VINA RESULT:      -8.0      8.407     14.006
REMARK  4 active torsions:
REMARK  status: ('A' for Active; 'I' for Inactive)
REMARK    1  A    between atoms: C_3  and  N_4 
REMARK       I    between atoms: N_4  and  C_5 
REMARK    2  A    between atoms: C_5  and  C_6 
REMARK    3  A    between atoms: C_7  and  C_8 
REMARK    4  A    between atoms: C_16  and  C_17 
ROOT
HETATM    1  C   UNL     1       4.177  34.223  66.173  1.00  0.00     0.003 A 
HETATM    2  C   UNL     1       4.983  33.731  65.146  1.00  0.00     0.029 A 
HETATM    3  C   UNL     1       6.354  33.574  65.345  1.00  0.00     0.035 A 
HETATM    4  C   UNL     1       6.906  33.927  66.588  1.00  0.00     0.042 A 
HETATM    5  C   UNL     1       6.109  34.427  67.631  1.00  0.00    -0.021 A 
HETATM    6  C   UNL     1       4.733  34.566  67.407  1.00  0.00     0.012 A 
ENDROOT
BRANCH   3   7
HETATM    7  N   UNL     1       7.234  33.051  64.375  1.00  0.00    -0.327 N 
HETATM    8  C   UNL     1       7.207  33.265  63.012  1.00  0.00     0.227 C 
HETATM    9  O   UNL     1       6.460  34.010  62.394  1.00  0.00    -0.273 OA
HETATM   10  H   UNL     1       7.956  32.434  64.720  1.00  0.00     0.169 HD
BRANCH   8  11
HETATM   11  C   UNL     1       8.215  32.448  62.270  1.00  0.00     0.089 A 
HETATM   12  C   UNL     1       7.755  31.433  61.233  1.00  0.00     0.057 A 
HETATM   13  C   UNL     1       8.329  30.982  62.559  1.00  0.00     0.027 A 
BRANCH  12  14
HETATM   14  C   UNL     1       8.618  31.250  59.999  1.00  0.00     0.057 A 
HETATM   15  O   UNL     1       9.586  32.122  59.597  1.00  0.00    -0.327 OA
HETATM   16  C   UNL     1      10.140  31.607  58.469  1.00  0.00     0.142 A 
HETATM   17  C   UNL     1       9.537  30.418  58.137  1.00  0.00     0.027 A 
HETATM   18  C   UNL     1       8.549  30.186  59.126  1.00  0.00     0.035 A 
ENDBRANCH  12  14
ENDBRANCH   8  11
ENDBRANCH   3   7
BRANCH   5  19
HETATM   19  C   UNL     1       6.711  34.779  68.912  1.00  0.00     0.010 A 
HETATM   20  C   UNL     1       8.063  35.017  69.267  1.00  0.00     0.152 A 
HETATM   21  N   UNL     1       8.218  35.328  70.558  1.00  0.00    -0.187 NA
HETATM   22  N   UNL     1       6.968  35.289  71.039  1.00  0.00    -0.289 N 
HETATM   23  H   UNL     1       6.824  35.494  72.024  1.00  0.00     0.188 HD
HETATM   24  C   UNL     1       6.032  34.969  70.098  1.00  0.00     0.123 A 
ENDBRANCH   5  19
TORSDOF 4
ENDMDL
MODEL 9
REMARK VINA RESULT:      -8.0      3.034      8.524
REMARK  4 active torsions:
REMARK  status: ('A' for Active; 'I' for Inactive)
REMARK    1  A    between atoms: C_3  and  N_4 
REMARK       I    between atoms: N_4  and  C_5 
REMARK    2  A    between atoms: C_5  and  C_6 
REMARK    3  A    between atoms: C_7  and  C_8 
REMARK    4  A    between atoms: C_16  and  C_17 
ROOT
HETATM    1  C   UNL     1       8.613  29.202  57.707  1.00  0.00     0.003 A 
HETATM    2  C   UNL     1       8.653  27.917  57.163  1.00  0.00     0.029 A 
HETATM    3  C   UNL     1       7.494  27.337  56.650  1.00  0.00     0.035 A 
HETATM    4  C   UNL     1       6.291  28.061  56.698  1.00  0.00     0.042 A 
HETATM    5  C   UNL     1       6.233  29.354  57.245  1.00  0.00    -0.021 A 
HETATM    6  C   UNL     1       7.414  29.917  57.746  1.00  0.00     0.012 A 
ENDROOT
BRANCH   3   7
HETATM    7  N   UNL     1       7.453  26.060  56.052  1.00  0.00    -0.327 N 
HETATM    8  C   UNL     1       7.194  25.758  54.731  1.00  0.00     0.227 C 
HETATM    9  O   UNL     1       7.025  26.544  53.810  1.00  0.00    -0.273 OA
HETATM   10  H   UNL     1       7.615  25.278  56.671  1.00  0.00     0.169 HD
BRANCH   8  11
HETATM   11  C   UNL     1       7.104  24.288  54.472  1.00  0.00     0.089 A 
HETATM   12  C   UNL     1       8.259  23.563  53.799  1.00  0.00     0.057 A 
HETATM   13  C   UNL     1       6.957  23.798  53.064  1.00  0.00     0.027 A 
BRANCH  12  14
HETATM   14  C   UNL     1       8.560  22.147  54.253  1.00  0.00     0.057 A 
HETATM   15  O   UNL     1       9.110  21.823  55.458  1.00  0.00    -0.327 OA
HETATM   16  C   UNL     1       9.210  20.470  55.497  1.00  0.00     0.142 A 
HETATM   17  C   UNL     1       8.736  19.918  54.331  1.00  0.00     0.027 A 
HETATM   18  C   UNL     1       8.316  21.004  53.523  1.00  0.00     0.035 A 
ENDBRANCH  12  14
ENDBRANCH   8  11
ENDBRANCH   3   7
BRANCH   5  19
HETATM   19  C   UNL     1       4.970  30.083  57.276  1.00  0.00     0.010 A 
HETATM   20  C   UNL     1       4.534  31.149  58.103  1.00  0.00     0.152 A 
HETATM   21  N   UNL     1       3.296  31.561  57.816  1.00  0.00    -0.187 NA
HETATM   22  N   UNL     1       2.928  30.762  56.805  1.00  0.00    -0.289 N 
HETATM   23  H   UNL     1       2.003  30.885  56.406  1.00  0.00     0.188 HD
HETATM   24  C   UNL     1       3.891  29.864  56.444  1.00  0.00     0.123 A 
ENDBRANCH   5  19
TORSDOF 4
ENDMDL
MODEL 10
REMARK VINA RESULT:      -7.8      4.172      6.843
REMARK  4 active torsions:
REMARK  status: ('A' for Active; 'I' for Inactive)
REMARK    1  A    between atoms: C_3  and  N_4 
REMARK       I    between atoms: N_4  and  C_5 
REMARK    2  A    between atoms: C_5  and  C_6 
REMARK    3  A    between atoms: C_7  and  C_8 
REMARK    4  A    between atoms: C_16  and  C_17 
ROOT
HETATM    1  C   UNL     1       6.341  24.849  55.561  1.00  0.00     0.003 A 
HETATM    2  C   UNL     1       6.027  25.549  54.395  1.00  0.00     0.029 A 
HETATM    3  C   UNL     1       6.328  25.005  53.147  1.00  0.00     0.035 A 
HETATM    4  C   UNL     1       6.956  23.750  53.086  1.00  0.00     0.042 A 
HETATM    5  C   UNL     1       7.282  23.033  54.250  1.00  0.00    -0.021 A 
HETATM    6  C   UNL     1       6.961  23.600  55.490  1.00  0.00     0.012 A 
ENDROOT
BRANCH   3   7
HETATM    7  N   UNL     1       6.014  25.628  51.922  1.00  0.00    -0.327 N 
HETATM    8  C   UNL     1       5.898  26.980  51.671  1.00  0.00     0.227 C 
HETATM    9  O   UNL     1       6.120  27.899  52.446  1.00  0.00    -0.273 OA
HETATM   10  H   UNL     1       5.835  25.008  51.144  1.00  0.00     0.169 HD
BRANCH   8  11
HETATM   11  C   UNL     1       5.425  27.281  50.286  1.00  0.00     0.089 A 
HETATM   12  C   UNL     1       3.964  27.633  50.042  1.00  0.00     0.057 A 
HETATM   13  C   UNL     1       4.528  26.304  49.587  1.00  0.00     0.027 A 
BRANCH  12  14
HETATM   14  C   UNL     1       3.660  28.665  48.973  1.00  0.00     0.057 A 
HETATM   15  O   UNL     1       3.536  28.388  47.644  1.00  0.00    -0.327 OA
HETATM   16  C   UNL     1       3.251  29.559  47.019  1.00  0.00     0.142 A 
HETATM   17  C   UNL     1       3.194  30.588  47.928  1.00  0.00     0.027 A 
HETATM   18  C   UNL     1       3.461  30.011  49.195  1.00  0.00     0.035 A 
ENDBRANCH  12  14
ENDBRANCH   8  11
ENDBRANCH   3   7
BRANCH   5  19
HETATM   19  C   UNL     1       7.929  21.729  54.153  1.00  0.00     0.010 A 
HETATM   20  C   UNL     1       8.175  20.897  53.032  1.00  0.00     0.152 A 
HETATM   21  N   UNL     1       8.811  19.766  53.350  1.00  0.00    -0.187 NA
HETATM   22  N   UNL     1       8.975  19.863  54.677  1.00  0.00    -0.289 N 
HETATM   23  H   UNL     1       9.444  19.104  55.161  1.00  0.00     0.188 HD
HETATM   24  C   UNL     1       8.469  21.016  55.204  1.00  0.00     0.123 A 
ENDBRANCH   5  19
TORSDOF 4
ENDMDL
