MODEL 1
REMARK VINA RESULT:      -7.7      0.000      0.000
REMARK  10 active torsions:
REMARK  status: ('A' for Active; 'I' for Inactive)
REMARK    1  A    between atoms: C_3  and  C_4 
REMARK    2  A    between atoms: C_4  and  C_5 
REMARK       I    between atoms: C_5  and  N_6 
REMARK    3  A    between atoms: N_6  and  C_7 
REMARK    4  A    between atoms: C_7  and  C_8 
REMARK    5  A    between atoms: C_8  and  O_9 
REMARK    6  A    between atoms: C_15  and  N_16 
REMARK       I    between atoms: N_16  and  C_17 
REMARK    7  A    between atoms: C_17  and  C_18 
REMARK    8  A    between atoms: C_26  and  C_27 
REMARK    9  A    between atoms: C_27  and  O_28 
REMARK   10  A    between atoms: C_30  and  O_31 
ROOT
HETATM    1  C   UNL     1       4.559  25.428  56.903  1.00  0.00     0.016 C 
HETATM    2  C   UNL     1       5.910  26.087  56.477  1.00  0.00    -0.030 C 
HETATM    3  C   UNL     1       6.193  25.754  54.950  1.00  0.00     0.056 C 
HETATM    4  C   UNL     1       5.345  26.614  54.045  1.00  0.00     0.056 A 
HETATM    5  C   UNL     1       4.748  27.790  54.456  1.00  0.00     0.012 A 
HETATM    6  S   UNL     1       4.011  28.574  53.140  1.00  0.00    -0.055 SA
HETATM    7  C   UNL     1       4.425  27.240  52.157  1.00  0.00     0.173 A 
HETATM    8  N   UNL     1       5.114  26.279  52.719  1.00  0.00    -0.227 NA
HETATM    9  C   UNL     1       4.711  28.323  55.840  1.00  0.00     0.055 C 
HETATM   10  C   UNL     1       5.782  27.652  56.740  1.00  0.00     0.012 C 
HETATM   11  C   UNL     1       7.120  28.499  56.887  1.00  0.00     0.008 C 
HETATM   12  C   UNL     1       6.829  29.599  57.957  1.00  0.00     0.020 C 
HETATM   13  C   UNL     1       8.285  27.624  57.439  1.00  0.00     0.128 C 
HETATM   14  C   UNL     1       7.775  26.441  58.254  1.00  0.00     0.033 C 
HETATM   15  C   UNL     1       7.021  25.451  57.371  1.00  0.00     0.013 C 
ENDROOT
BRANCH   3  16
HETATM   16  C   UNL     1       6.055  24.257  54.613  1.00  0.00     0.114 C 
BRANCH  16  17
HETATM   17  C   UNL     1       7.406  23.635  54.333  1.00  0.00     0.218 C 
HETATM   18  N   UNL     1       7.725  22.563  55.127  1.00  0.00    -0.359 N 
HETATM   19  H   UNL     1       6.942  22.057  55.552  1.00  0.00     0.162 HD
HETATM   20  O   UNL     1       8.143  24.086  53.457  1.00  0.00    -0.274 OA
BRANCH  18  21
HETATM   21  C   UNL     1       8.981  21.859  54.946  1.00  0.00     0.148 C 
BRANCH  21  22
HETATM   22  C   UNL     1       8.886  20.345  55.161  1.00  0.00     0.186 C 
BRANCH  22  23
HETATM   23  O   UNL     1       8.968  19.614  53.934  1.00  0.00    -0.394 OA
HETATM   24  C   UNL     1       8.459  20.345  52.826  1.00  0.00     0.201 C 
ENDBRANCH  22  23
ENDBRANCH  21  22
ENDBRANCH  18  21
ENDBRANCH  16  17
ENDBRANCH   3  16
BRANCH  11  25
HETATM   25  C   UNL     1       7.572  29.280  55.622  1.00  0.00     0.176 C 
BRANCH  25  26
HETATM   26  O   UNL     1       8.893  29.778  55.708  1.00  0.00    -0.400 OA
HETATM   27  H   UNL     1       8.794  30.751  55.809  1.00  0.00     0.209 HD
ENDBRANCH  25  26
ENDBRANCH  11  25
BRANCH   7  28
HETATM   28  N   UNL     1       3.935  27.351  50.888  1.00  0.00    -0.305 N 
HETATM   29  C   UNL     1       4.670  27.881  49.853  1.00  0.00     0.231 C 
HETATM   30  O   UNL     1       5.794  28.365  49.966  1.00  0.00    -0.272 OA
HETATM   31  H   UNL     1       3.063  26.876  50.720  1.00  0.00     0.171 HD
BRANCH  29  32
HETATM   32  C   UNL     1       3.942  27.832  48.488  1.00  0.00     0.030 C 
HETATM   33  C   UNL     1       4.191  26.466  47.831  1.00  0.00     0.025 C 
HETATM   34  C   UNL     1       2.429  28.014  48.707  1.00  0.00     0.025 C 
HETATM   35  C   UNL     1       4.429  28.957  47.558  1.00  0.00     0.025 C 
ENDBRANCH  29  32
ENDBRANCH   7  28
BRANCH  13  36
HETATM   36  O   UNL     1       9.108  27.134  56.376  1.00  0.00    -0.395 OA
HETATM   37  H   UNL     1       9.052  26.161  56.379  1.00  0.00     0.210 HD
ENDBRANCH  13  36
TORSDOF 10
ENDMDL
MODEL 2
REMARK VINA RESULT:      -6.8      2.875      6.185
REMARK  10 active torsions:
REMARK  status: ('A' for Active; 'I' for Inactive)
REMARK    1  A    between atoms: C_3  and  C_4 
REMARK    2  A    between atoms: C_4  and  C_5 
REMARK       I    between atoms: C_5  and  N_6 
REMARK    3  A    between atoms: N_6  and  C_7 
REMARK    4  A    between atoms: C_7  and  C_8 
REMARK    5  A    between atoms: C_8  and  O_9 
REMARK    6  A    between atoms: C_15  and  N_16 
REMARK       I    between atoms: N_16  and  C_17 
REMARK    7  A    between atoms: C_17  and  C_18 
REMARK    8  A    between atoms: C_26  and  C_27 
REMARK    9  A    between atoms: C_27  and  O_28 
REMARK   10  A    between atoms: C_30  and  O_31 
ROOT
HETATM    1  C   UNL     1       8.496  28.540  54.589  1.00  0.00     0.016 C 
HETATM    2  C   UNL     1       7.517  27.499  55.220  1.00  0.00    -0.030 C 
HETATM    3  C   UNL     1       6.023  27.911  54.873  1.00  0.00     0.056 C 
HETATM    4  C   UNL     1       5.683  27.551  53.446  1.00  0.00     0.056 A 
HETATM    5  C   UNL     1       6.397  26.629  52.706  1.00  0.00     0.012 A 
HETATM    6  S   UNL     1       5.639  26.355  51.209  1.00  0.00    -0.055 SA
HETATM    7  C   UNL     1       4.501  27.567  51.601  1.00  0.00     0.173 A 
HETATM    8  N   UNL     1       4.610  28.125  52.781  1.00  0.00    -0.227 NA
HETATM    9  C   UNL     1       7.660  25.963  53.107  1.00  0.00     0.055 C 
HETATM   10  C   UNL     1       7.900  26.068  54.636  1.00  0.00     0.012 C 
HETATM   11  C   UNL     1       7.441  24.780  55.449  1.00  0.00     0.008 C 
HETATM   12  C   UNL     1       8.583  23.726  55.285  1.00  0.00     0.020 C 
HETATM   13  C   UNL     1       7.320  25.086  56.972  1.00  0.00     0.128 C 
HETATM   14  C   UNL     1       8.208  26.251  57.394  1.00  0.00     0.033 C 
HETATM   15  C   UNL     1       7.736  27.558  56.765  1.00  0.00     0.013 C 
ENDROOT
BRANCH   3  16
HETATM   16  C   UNL     1       5.706  29.386  55.183  1.00  0.00     0.114 C 
BRANCH  16  17
HETATM   17  C   UNL     1       4.579  29.501  56.186  1.00  0.00     0.218 C 
HETATM   18  N   UNL     1       4.534  30.690  56.870  1.00  0.00    -0.359 N 
HETATM   19  H   UNL     1       4.984  31.494  56.424  1.00  0.00     0.162 HD
HETATM   20  O   UNL     1       3.784  28.577  56.357  1.00  0.00    -0.274 OA
BRANCH  18  21
HETATM   21  C   UNL     1       3.487  30.940  57.844  1.00  0.00     0.148 C 
BRANCH  21  22
HETATM   22  C   UNL     1       3.886  31.916  58.955  1.00  0.00     0.186 C 
BRANCH  22  23
HETATM   23  O   UNL     1       2.753  32.446  59.649  1.00  0.00    -0.394 OA
HETATM   24  C   UNL     1       3.068  33.607  60.406  1.00  0.00     0.201 C 
ENDBRANCH  22  23
ENDBRANCH  21  22
ENDBRANCH  18  21
ENDBRANCH  16  17
ENDBRANCH   3  16
BRANCH  11  25
HETATM   25  C   UNL     1       6.162  24.069  54.929  1.00  0.00     0.176 C 
BRANCH  25  26
HETATM   26  O   UNL     1       4.985  24.837  55.084  1.00  0.00    -0.400 OA
HETATM   27  H   UNL     1       4.789  25.190  54.188  1.00  0.00     0.209 HD
ENDBRANCH  25  26
ENDBRANCH  11  25
BRANCH   7  28
HETATM   28  N   UNL     1       3.628  27.817  50.583  1.00  0.00    -0.305 N 
HETATM   29  C   UNL     1       3.934  28.647  49.529  1.00  0.00     0.231 C 
HETATM   30  O   UNL     1       4.974  29.293  49.424  1.00  0.00    -0.272 OA
HETATM   31  H   UNL     1       2.807  27.234  50.567  1.00  0.00     0.171 HD
BRANCH  29  32
HETATM   32  C   UNL     1       2.823  28.717  48.453  1.00  0.00     0.030 C 
HETATM   33  C   UNL     1       2.442  27.292  48.027  1.00  0.00     0.025 C 
HETATM   34  C   UNL     1       1.582  29.413  49.041  1.00  0.00     0.025 C 
HETATM   35  C   UNL     1       3.288  29.523  47.227  1.00  0.00     0.025 C 
ENDBRANCH  29  32
ENDBRANCH   7  28
BRANCH  13  36
HETATM   36  O   UNL     1       5.967  25.383  57.330  1.00  0.00    -0.395 OA
HETATM   37  H   UNL     1       5.544  24.551  57.613  1.00  0.00     0.210 HD
ENDBRANCH  13  36
TORSDOF 10
ENDMDL
MODEL 3
REMARK VINA RESULT:      -6.7      7.427     10.794
REMARK  10 active torsions:
REMARK  status: ('A' for Active; 'I' for Inactive)
REMARK    1  A    between atoms: C_3  and  C_4 
REMARK    2  A    between atoms: C_4  and  C_5 
REMARK       I    between atoms: C_5  and  N_6 
REMARK    3  A    between atoms: N_6  and  C_7 
REMARK    4  A    between atoms: C_7  and  C_8 
REMARK    5  A    between atoms: C_8  and  O_9 
REMARK    6  A    between atoms: C_15  and  N_16 
REMARK       I    between atoms: N_16  and  C_17 
REMARK    7  A    between atoms: C_17  and  C_18 
REMARK    8  A    between atoms: C_26  and  C_27 
REMARK    9  A    between atoms: C_27  and  O_28 
REMARK   10  A    between atoms: C_30  and  O_31 
ROOT
HETATM    1  C   UNL     1       2.667  33.902  63.514  1.00  0.00     0.016 C 
HETATM    2  C   UNL     1       3.927  34.788  63.252  1.00  0.00    -0.030 C 
HETATM    3  C   UNL     1       5.046  33.908  62.548  1.00  0.00     0.056 C 
HETATM    4  C   UNL     1       4.730  33.706  61.085  1.00  0.00     0.056 A 
HETATM    5  C   UNL     1       3.855  34.509  60.380  1.00  0.00     0.012 A 
HETATM    6  S   UNL     1       3.867  34.096  58.730  1.00  0.00    -0.055 SA
HETATM    7  C   UNL     1       4.928  32.808  59.096  1.00  0.00     0.173 A 
HETATM    8  N   UNL     1       5.315  32.692  60.342  1.00  0.00    -0.227 NA
HETATM    9  C   UNL     1       2.991  35.577  60.940  1.00  0.00     0.055 C 
HETATM   10  C   UNL     1       3.467  36.017  62.349  1.00  0.00     0.012 C 
HETATM   11  C   UNL     1       4.376  37.322  62.343  1.00  0.00     0.008 C 
HETATM   12  C   UNL     1       3.400  38.537  62.232  1.00  0.00     0.020 C 
HETATM   13  C   UNL     1       5.149  37.480  63.686  1.00  0.00     0.128 C 
HETATM   14  C   UNL     1       4.438  36.783  64.840  1.00  0.00     0.033 C 
HETATM   15  C   UNL     1       4.434  35.269  64.648  1.00  0.00     0.013 C 
ENDROOT
BRANCH   3  16
HETATM   16  C   UNL     1       5.318  32.572  63.265  1.00  0.00     0.114 C 
BRANCH  16  17
HETATM   17  C   UNL     1       6.793  32.239  63.253  1.00  0.00     0.218 C 
HETATM   18  N   UNL     1       7.169  31.313  62.312  1.00  0.00    -0.359 N 
HETATM   19  H   UNL     1       6.555  31.209  61.499  1.00  0.00     0.162 HD
HETATM   20  O   UNL     1       7.571  32.770  64.046  1.00  0.00    -0.274 OA
BRANCH  18  21
HETATM   21  C   UNL     1       8.561  30.923  62.177  1.00  0.00     0.148 C 
BRANCH  21  22
HETATM   22  C   UNL     1       9.392  31.861  61.298  1.00  0.00     0.186 C 
BRANCH  22  23
HETATM   23  O   UNL     1       8.659  32.338  60.165  1.00  0.00    -0.394 OA
HETATM   24  C   UNL     1       8.760  31.471  59.043  1.00  0.00     0.201 C 
ENDBRANCH  22  23
ENDBRANCH  21  22
ENDBRANCH  18  21
ENDBRANCH  16  17
ENDBRANCH   3  16
BRANCH  11  25
HETATM   25  C   UNL     1       5.340  37.472  61.134  1.00  0.00     0.176 C 
BRANCH  25  26
HETATM   26  O   UNL     1       6.045  38.698  61.122  1.00  0.00    -0.400 OA
HETATM   27  H   UNL     1       5.429  39.352  61.523  1.00  0.00     0.209 HD
ENDBRANCH  25  26
ENDBRANCH  11  25
BRANCH   7  28
HETATM   28  N   UNL     1       5.209  32.034  58.007  1.00  0.00    -0.305 N 
HETATM   29  C   UNL     1       4.388  31.011  57.594  1.00  0.00     0.231 C 
HETATM   30  O   UNL     1       3.374  30.643  58.182  1.00  0.00    -0.272 OA
HETATM   31  H   UNL     1       5.970  32.359  57.433  1.00  0.00     0.171 HD
BRANCH  29  32
HETATM   32  C   UNL     1       4.864  30.323  56.291  1.00  0.00     0.030 C 
HETATM   33  C   UNL     1       4.548  31.233  55.095  1.00  0.00     0.025 C 
HETATM   34  C   UNL     1       6.386  30.095  56.358  1.00  0.00     0.025 C 
HETATM   35  C   UNL     1       4.183  28.956  56.104  1.00  0.00     0.025 C 
ENDBRANCH  29  32
ENDBRANCH   7  28
BRANCH  13  36
HETATM   36  O   UNL     1       6.477  36.961  63.579  1.00  0.00    -0.395 OA
HETATM   37  H   UNL     1       6.702  36.909  62.631  1.00  0.00     0.210 HD
ENDBRANCH  13  36
TORSDOF 10
ENDMDL
MODEL 4
REMARK VINA RESULT:      -6.4      3.107      8.625
REMARK  10 active torsions:
REMARK  status: ('A' for Active; 'I' for Inactive)
REMARK    1  A    between atoms: C_3  and  C_4 
REMARK    2  A    between atoms: C_4  and  C_5 
REMARK       I    between atoms: C_5  and  N_6 
REMARK    3  A    between atoms: N_6  and  C_7 
REMARK    4  A    between atoms: C_7  and  C_8 
REMARK    5  A    between atoms: C_8  and  O_9 
REMARK    6  A    between atoms: C_15  and  N_16 
REMARK       I    between atoms: N_16  and  C_17 
REMARK    7  A    between atoms: C_17  and  C_18 
REMARK    8  A    between atoms: C_26  and  C_27 
REMARK    9  A    between atoms: C_27  and  O_28 
REMARK   10  A    between atoms: C_30  and  O_31 
ROOT
HETATM    1  C   UNL     1       6.157  31.538  49.398  1.00  0.00     0.016 C 
HETATM    2  C   UNL     1       4.681  31.043  49.261  1.00  0.00    -0.030 C 
HETATM    3  C   UNL     1       4.609  29.504  49.644  1.00  0.00     0.056 C 
HETATM    4  C   UNL     1       4.663  29.320  51.142  1.00  0.00     0.056 A 
HETATM    5  C   UNL     1       4.381  30.329  52.042  1.00  0.00     0.012 A 
HETATM    6  S   UNL     1       4.380  29.726  53.631  1.00  0.00    -0.055 SA
HETATM    7  C   UNL     1       4.877  28.210  53.020  1.00  0.00     0.173 A 
HETATM    8  N   UNL     1       4.994  28.103  51.720  1.00  0.00    -0.227 NA
HETATM    9  C   UNL     1       4.130  31.755  51.717  1.00  0.00     0.055 C 
HETATM   10  C   UNL     1       3.784  31.947  50.217  1.00  0.00     0.012 C 
HETATM   11  C   UNL     1       2.223  32.029  49.922  1.00  0.00     0.008 C 
HETATM   12  C   UNL     1       1.786  33.488  50.268  1.00  0.00     0.020 C 
HETATM   13  C   UNL     1       1.921  31.810  48.410  1.00  0.00     0.128 C 
HETATM   14  C   UNL     1       3.109  32.181  47.530  1.00  0.00     0.033 C 
HETATM   15  C   UNL     1       4.282  31.233  47.763  1.00  0.00     0.013 C 
ENDROOT
BRANCH   3  16
HETATM   16  C   UNL     1       5.662  28.642  48.923  1.00  0.00     0.114 C 
BRANCH  16  17
HETATM   17  C   UNL     1       5.012  27.494  48.183  1.00  0.00     0.218 C 
HETATM   18  N   UNL     1       3.868  27.006  48.764  1.00  0.00    -0.359 N 
HETATM   19  H   UNL     1       3.362  27.643  49.387  1.00  0.00     0.162 HD
HETATM   20  O   UNL     1       5.500  27.048  47.145  1.00  0.00    -0.274 OA
BRANCH  18  21
HETATM   21  C   UNL     1       3.130  25.921  48.143  1.00  0.00     0.148 C 
BRANCH  21  22
HETATM   22  C   UNL     1       2.325  26.338  46.910  1.00  0.00     0.186 C 
BRANCH  22  23
HETATM   23  O   UNL     1       1.690  27.609  47.077  1.00  0.00    -0.394 OA
HETATM   24  C   UNL     1       0.308  27.580  46.743  1.00  0.00     0.201 C 
ENDBRANCH  22  23
ENDBRANCH  21  22
ENDBRANCH  18  21
ENDBRANCH  16  17
ENDBRANCH   3  16
BRANCH  11  25
HETATM   25  C   UNL     1       1.318  31.122  50.800  1.00  0.00     0.176 C 
BRANCH  25  26
HETATM   26  O   UNL     1      -0.064  31.296  50.554  1.00  0.00    -0.400 OA
HETATM   27  H   UNL     1      -0.227  30.861  49.688  1.00  0.00     0.209 HD
ENDBRANCH  25  26
ENDBRANCH  11  25
BRANCH   7  28
HETATM   28  N   UNL     1       5.122  27.300  54.007  1.00  0.00    -0.305 N 
HETATM   29  C   UNL     1       6.369  27.128  54.563  1.00  0.00     0.231 C 
HETATM   30  O   UNL     1       7.388  27.708  54.197  1.00  0.00    -0.272 OA
HETATM   31  H   UNL     1       4.305  26.876  54.414  1.00  0.00     0.171 HD
BRANCH  29  32
HETATM   32  C   UNL     1       6.393  26.099  55.720  1.00  0.00     0.030 C 
HETATM   33  C   UNL     1       6.396  24.680  55.135  1.00  0.00     0.025 C 
HETATM   34  C   UNL     1       7.670  26.299  56.557  1.00  0.00     0.025 C 
HETATM   35  C   UNL     1       5.179  26.280  56.649  1.00  0.00     0.025 C 
ENDBRANCH  29  32
ENDBRANCH   7  28
BRANCH  13  36
HETATM   36  O   UNL     1       1.559  30.450  48.150  1.00  0.00    -0.395 OA
HETATM   37  H   UNL     1       2.347  29.992  47.805  1.00  0.00     0.210 HD
ENDBRANCH  13  36
TORSDOF 10
ENDMDL
MODEL 5
REMARK VINA RESULT:      -6.4      7.197     10.883
REMARK  10 active torsions:
REMARK  status: ('A' for Active; 'I' for Inactive)
REMARK    1  A    between atoms: C_3  and  C_4 
REMARK    2  A    between atoms: C_4  and  C_5 
REMARK       I    between atoms: C_5  and  N_6 
REMARK    3  A    between atoms: N_6  and  C_7 
REMARK    4  A    between atoms: C_7  and  C_8 
REMARK    5  A    between atoms: C_8  and  O_9 
REMARK    6  A    between atoms: C_15  and  N_16 
REMARK       I    between atoms: N_16  and  C_17 
REMARK    7  A    between atoms: C_17  and  C_18 
REMARK    8  A    between atoms: C_26  and  C_27 
REMARK    9  A    between atoms: C_27  and  O_28 
REMARK   10  A    between atoms: C_30  and  O_31 
ROOT
HETATM    1  C   UNL     1       1.735  34.654  62.097  1.00  0.00     0.016 C 
HETATM    2  C   UNL     1       2.985  35.447  61.595  1.00  0.00    -0.030 C 
HETATM    3  C   UNL     1       4.219  34.454  61.478  1.00  0.00     0.056 C 
HETATM    4  C   UNL     1       4.107  33.601  60.236  1.00  0.00     0.056 A 
HETATM    5  C   UNL     1       3.304  33.927  59.161  1.00  0.00     0.012 A 
HETATM    6  S   UNL     1       3.549  32.833  57.883  1.00  0.00    -0.055 SA
HETATM    7  C   UNL     1       4.600  31.942  58.892  1.00  0.00     0.173 A 
HETATM    8  N   UNL     1       4.822  32.422  60.090  1.00  0.00    -0.227 NA
HETATM    9  C   UNL     1       2.334  35.047  59.093  1.00  0.00     0.055 C 
HETATM   10  C   UNL     1       2.603  36.105  60.196  1.00  0.00     0.012 C 
HETATM   11  C   UNL     1       3.456  37.352  59.697  1.00  0.00     0.008 C 
HETATM   12  C   UNL     1       2.458  38.297  58.955  1.00  0.00     0.020 C 
HETATM   13  C   UNL     1       4.037  38.155  60.899  1.00  0.00     0.128 C 
HETATM   14  C   UNL     1       3.207  37.974  62.164  1.00  0.00     0.033 C 
HETATM   15  C   UNL     1       3.285  36.537  62.671  1.00  0.00     0.013 C 
ENDROOT
BRANCH   3  16
HETATM   16  C   UNL     1       4.442  33.601  62.741  1.00  0.00     0.114 C 
BRANCH  16  17
HETATM   17  C   UNL     1       5.899  33.607  63.150  1.00  0.00     0.218 C 
HETATM   18  N   UNL     1       6.591  32.464  62.839  1.00  0.00    -0.359 N 
HETATM   19  H   UNL     1       6.216  31.892  62.076  1.00  0.00     0.162 HD
HETATM   20  O   UNL     1       6.393  34.577  63.724  1.00  0.00    -0.274 OA
BRANCH  18  21
HETATM   21  C   UNL     1       8.004  32.349  63.154  1.00  0.00     0.148 C 
BRANCH  21  22
HETATM   22  C   UNL     1       8.746  31.299  62.322  1.00  0.00     0.186 C 
BRANCH  22  23
HETATM   23  O   UNL     1       9.855  31.854  61.609  1.00  0.00    -0.394 OA
HETATM   24  C   UNL     1       9.576  32.051  60.228  1.00  0.00     0.201 C 
ENDBRANCH  22  23
ENDBRANCH  21  22
ENDBRANCH  18  21
ENDBRANCH  16  17
ENDBRANCH   3  16
BRANCH  11  25
HETATM   25  C   UNL     1       4.565  37.042  58.655  1.00  0.00     0.176 C 
BRANCH  25  26
HETATM   26  O   UNL     1       5.241  38.195  58.191  1.00  0.00    -0.400 OA
HETATM   27  H   UNL     1       5.003  38.266  57.240  1.00  0.00     0.209 HD
ENDBRANCH  25  26
ENDBRANCH  11  25
BRANCH   7  28
HETATM   28  N   UNL     1       5.050  30.797  58.301  1.00  0.00    -0.305 N 
HETATM   29  C   UNL     1       6.334  30.665  57.824  1.00  0.00     0.231 C 
HETATM   30  O   UNL     1       7.175  31.560  57.814  1.00  0.00    -0.272 OA
HETATM   31  H   UNL     1       4.437  30.002  58.378  1.00  0.00     0.171 HD
BRANCH  29  32
HETATM   32  C   UNL     1       6.645  29.253  57.268  1.00  0.00     0.030 C 
HETATM   33  C   UNL     1       7.735  28.600  58.130  1.00  0.00     0.025 C 
HETATM   34  C   UNL     1       5.373  28.387  57.327  1.00  0.00     0.025 C 
HETATM   35  C   UNL     1       7.109  29.324  55.803  1.00  0.00     0.025 C 
ENDBRANCH  29  32
ENDBRANCH   7  28
BRANCH  13  36
HETATM   36  O   UNL     1       5.387  37.767  61.171  1.00  0.00    -0.395 OA
HETATM   37  H   UNL     1       5.769  37.415  60.346  1.00  0.00     0.210 HD
ENDBRANCH  13  36
TORSDOF 10
ENDMDL
MODEL 6
REMARK VINA RESULT:      -6.4      2.236      7.327
REMARK  10 active torsions:
REMARK  status: ('A' for Active; 'I' for Inactive)
REMARK    1  A    between atoms: C_3  and  C_4 
REMARK    2  A    between atoms: C_4  and  C_5 
REMARK       I    between atoms: C_5  and  N_6 
REMARK    3  A    between atoms: N_6  and  C_7 
REMARK    4  A    between atoms: C_7  and  C_8 
REMARK    5  A    between atoms: C_8  and  O_9 
REMARK    6  A    between atoms: C_15  and  N_16 
REMARK       I    between atoms: N_16  and  C_17 
REMARK    7  A    between atoms: C_17  and  C_18 
REMARK    8  A    between atoms: C_26  and  C_27 
REMARK    9  A    between atoms: C_27  and  O_28 
REMARK   10  A    between atoms: C_30  and  O_31 
ROOT
HETATM    1  C   UNL     1       5.877  28.723  48.727  1.00  0.00     0.016 C 
HETATM    2  C   UNL     1       4.434  28.240  49.083  1.00  0.00    -0.030 C 
HETATM    3  C   UNL     1       4.484  27.397  50.427  1.00  0.00     0.056 C 
HETATM    4  C   UNL     1       4.610  28.304  51.627  1.00  0.00     0.056 A 
HETATM    5  C   UNL     1       4.296  29.649  51.599  1.00  0.00     0.012 A 
HETATM    6  S   UNL     1       4.401  30.317  53.158  1.00  0.00    -0.055 SA
HETATM    7  C   UNL     1       4.975  28.813  53.728  1.00  0.00     0.173 A 
HETATM    8  N   UNL     1       5.047  27.836  52.858  1.00  0.00    -0.227 NA
HETATM    9  C   UNL     1       3.935  30.445  50.400  1.00  0.00     0.055 C 
HETATM   10  C   UNL     1       3.517  29.535  49.215  1.00  0.00     0.012 C 
HETATM   11  C   UNL     1       1.943  29.356  49.066  1.00  0.00     0.008 C 
HETATM   12  C   UNL     1       1.421  30.637  48.340  1.00  0.00     0.020 C 
HETATM   13  C   UNL     1       1.596  28.142  48.152  1.00  0.00     0.128 C 
HETATM   14  C   UNL     1       2.719  27.824  47.173  1.00  0.00     0.033 C 
HETATM   15  C   UNL     1       3.964  27.330  47.905  1.00  0.00     0.013 C 
ENDROOT
BRANCH   3  16
HETATM   16  C   UNL     1       5.564  26.298  50.423  1.00  0.00     0.114 C 
BRANCH  16  17
HETATM   17  C   UNL     1       5.381  25.351  51.589  1.00  0.00     0.218 C 
HETATM   18  N   UNL     1       6.425  25.322  52.479  1.00  0.00    -0.359 N 
HETATM   19  H   UNL     1       7.030  26.148  52.505  1.00  0.00     0.162 HD
HETATM   20  O   UNL     1       4.364  24.667  51.697  1.00  0.00    -0.274 OA
BRANCH  18  21
HETATM   21  C   UNL     1       6.367  24.474  53.656  1.00  0.00     0.148 C 
BRANCH  21  22
HETATM   22  C   UNL     1       7.561  23.527  53.804  1.00  0.00     0.186 C 
BRANCH  22  23
HETATM   23  O   UNL     1       7.630  22.568  52.745  1.00  0.00    -0.394 OA
HETATM   24  C   UNL     1       8.050  21.285  53.193  1.00  0.00     0.201 C 
ENDBRANCH  22  23
ENDBRANCH  21  22
ENDBRANCH  18  21
ENDBRANCH  16  17
ENDBRANCH   3  16
BRANCH  11  25
HETATM   25  C   UNL     1       1.138  29.292  50.393  1.00  0.00     0.176 C 
BRANCH  25  26
HETATM   26  O   UNL     1       0.431  30.483  50.681  1.00  0.00    -0.400 OA
HETATM   27  H   UNL     1       1.007  31.209  50.355  1.00  0.00     0.209 HD
ENDBRANCH  25  26
ENDBRANCH  11  25
BRANCH   7  28
HETATM   28  N   UNL     1       5.322  28.848  55.047  1.00  0.00    -0.305 N 
HETATM   29  C   UNL     1       6.627  28.767  55.473  1.00  0.00     0.231 C 
HETATM   30  O   UNL     1       7.596  28.588  54.739  1.00  0.00    -0.272 OA
HETATM   31  H   UNL     1       4.580  29.097  55.681  1.00  0.00     0.171 HD
BRANCH  29  32
HETATM   32  C   UNL     1       6.788  28.909  57.007  1.00  0.00     0.030 C 
HETATM   33  C   UNL     1       5.469  29.418  57.608  1.00  0.00     0.025 C 
HETATM   34  C   UNL     1       7.118  27.535  57.617  1.00  0.00     0.025 C 
HETATM   35  C   UNL     1       7.931  29.877  57.358  1.00  0.00     0.025 C 
ENDBRANCH  29  32
ENDBRANCH   7  28
BRANCH  13  36
HETATM   36  O   UNL     1       1.318  26.975  48.933  1.00  0.00    -0.395 OA
HETATM   37  H   UNL     1       0.541  26.534  48.543  1.00  0.00     0.210 HD
ENDBRANCH  13  36
TORSDOF 10
ENDMDL
MODEL 7
REMARK VINA RESULT:      -6.3      5.537      8.571
REMARK  10 active torsions:
REMARK  status: ('A' for Active; 'I' for Inactive)
REMARK    1  A    between atoms: C_3  and  C_4 
REMARK    2  A    between atoms: C_4  and  C_5 
REMARK       I    between atoms: C_5  and  N_6 
REMARK    3  A    between atoms: N_6  and  C_7 
REMARK    4  A    between atoms: C_7  and  C_8 
REMARK    5  A    between atoms: C_8  and  O_9 
REMARK    6  A    between atoms: C_15  and  N_16 
REMARK       I    between atoms: N_16  and  C_17 
REMARK    7  A    between atoms: C_17  and  C_18 
REMARK    8  A    between atoms: C_26  and  C_27 
REMARK    9  A    between atoms: C_27  and  O_28 
REMARK   10  A    between atoms: C_30  and  O_31 
ROOT
HETATM    1  C   UNL     1       5.260  31.228  62.874  1.00  0.00     0.016 C 
HETATM    2  C   UNL     1       5.570  32.640  62.281  1.00  0.00    -0.030 C 
HETATM    3  C   UNL     1       6.449  32.473  60.969  1.00  0.00     0.056 C 
HETATM    4  C   UNL     1       5.595  32.035  59.803  1.00  0.00     0.056 A 
HETATM    5  C   UNL     1       4.222  32.178  59.771  1.00  0.00     0.012 A 
HETATM    6  S   UNL     1       3.613  31.731  58.248  1.00  0.00    -0.055 SA
HETATM    7  C   UNL     1       5.191  31.263  57.792  1.00  0.00     0.173 A 
HETATM    8  N   UNL     1       6.146  31.460  58.666  1.00  0.00    -0.227 NA
HETATM    9  C   UNL     1       3.357  32.631  60.887  1.00  0.00     0.055 C 
HETATM   10  C   UNL     1       4.176  33.352  61.989  1.00  0.00     0.012 C 
HETATM   11  C   UNL     1       4.157  34.939  61.871  1.00  0.00     0.008 C 
HETATM   12  C   UNL     1       2.802  35.409  62.492  1.00  0.00     0.020 C 
HETATM   13  C   UNL     1       5.294  35.583  62.719  1.00  0.00     0.128 C 
HETATM   14  C   UNL     1       5.722  34.688  63.876  1.00  0.00     0.033 C 
HETATM   15  C   UNL     1       6.385  33.411  63.367  1.00  0.00     0.013 C 
ENDROOT
BRANCH   3  16
HETATM   16  C   UNL     1       7.671  31.555  61.161  1.00  0.00     0.114 C 
BRANCH  16  17
HETATM   17  C   UNL     1       8.718  31.814  60.100  1.00  0.00     0.218 C 
HETATM   18  N   UNL     1       9.115  30.705  59.397  1.00  0.00    -0.359 N 
HETATM   19  H   UNL     1       8.460  29.918  59.371  1.00  0.00     0.162 HD
HETATM   20  O   UNL     1       9.165  32.945  59.911  1.00  0.00    -0.274 OA
BRANCH  18  21
HETATM   21  C   UNL     1      10.096  30.818  58.333  1.00  0.00     0.148 C 
BRANCH  21  22
HETATM   22  C   UNL     1       9.895  29.820  57.189  1.00  0.00     0.186 C 
BRANCH  22  23
HETATM   23  O   UNL     1       8.575  29.269  57.171  1.00  0.00    -0.394 OA
HETATM   24  C   UNL     1       8.573  27.850  57.260  1.00  0.00     0.201 C 
ENDBRANCH  22  23
ENDBRANCH  21  22
ENDBRANCH  18  21
ENDBRANCH  16  17
ENDBRANCH   3  16
BRANCH  11  25
HETATM   25  C   UNL     1       4.155  35.512  60.427  1.00  0.00     0.176 C 
BRANCH  25  26
HETATM   26  O   UNL     1       4.209  36.924  60.381  1.00  0.00    -0.400 OA
HETATM   27  H   UNL     1       4.650  37.192  61.217  1.00  0.00     0.209 HD
ENDBRANCH  25  26
ENDBRANCH  11  25
BRANCH   7  28
HETATM   28  N   UNL     1       5.234  30.699  56.550  1.00  0.00    -0.305 N 
HETATM   29  C   UNL     1       5.157  29.340  56.349  1.00  0.00     0.231 C 
HETATM   30  O   UNL     1       5.114  28.500  57.244  1.00  0.00    -0.272 OA
HETATM   31  H   UNL     1       5.164  31.345  55.781  1.00  0.00     0.171 HD
BRANCH  29  32
HETATM   32  C   UNL     1       5.144  28.935  54.855  1.00  0.00     0.030 C 
HETATM   33  C   UNL     1       4.346  27.633  54.692  1.00  0.00     0.025 C 
HETATM   34  C   UNL     1       4.467  30.044  54.029  1.00  0.00     0.025 C 
HETATM   35  C   UNL     1       6.574  28.743  54.319  1.00  0.00     0.025 C 
ENDBRANCH  29  32
ENDBRANCH   7  28
BRANCH  13  36
HETATM   36  O   UNL     1       6.438  35.871  61.909  1.00  0.00    -0.395 OA
HETATM   37  H   UNL     1       6.437  35.248  61.159  1.00  0.00     0.210 HD
ENDBRANCH  13  36
TORSDOF 10
ENDMDL
MODEL 8
REMARK VINA RESULT:      -6.3      4.373      7.438
REMARK  10 active torsions:
REMARK  status: ('A' for Active; 'I' for Inactive)
REMARK    1  A    between atoms: C_3  and  C_4 
REMARK    2  A    between atoms: C_4  and  C_5 
REMARK       I    between atoms: C_5  and  N_6 
REMARK    3  A    between atoms: N_6  and  C_7 
REMARK    4  A    between atoms: C_7  and  C_8 
REMARK    5  A    between atoms: C_8  and  O_9 
REMARK    6  A    between atoms: C_15  and  N_16 
REMARK       I    between atoms: N_16  and  C_17 
REMARK    7  A    between atoms: C_17  and  C_18 
REMARK    8  A    between atoms: C_26  and  C_27 
REMARK    9  A    between atoms: C_27  and  O_28 
REMARK   10  A    between atoms: C_30  and  O_31 
ROOT
HETATM    1  C   UNL     1       1.739  32.341  55.298  1.00  0.00     0.016 C 
HETATM    2  C   UNL     1       3.128  32.888  54.837  1.00  0.00    -0.030 C 
HETATM    3  C   UNL     1       4.260  31.859  55.260  1.00  0.00     0.056 C 
HETATM    4  C   UNL     1       4.281  30.669  54.330  1.00  0.00     0.056 A 
HETATM    5  C   UNL     1       3.711  30.679  53.072  1.00  0.00     0.012 A 
HETATM    6  S   UNL     1       4.066  29.235  52.248  1.00  0.00    -0.055 SA
HETATM    7  C   UNL     1       4.834  28.657  53.660  1.00  0.00     0.173 A 
HETATM    8  N   UNL     1       4.893  29.475  54.682  1.00  0.00    -0.227 NA
HETATM    9  C   UNL     1       2.882  31.761  52.488  1.00  0.00     0.055 C 
HETATM   10  C   UNL     1       3.058  33.096  53.259  1.00  0.00     0.012 C 
HETATM   11  C   UNL     1       4.102  34.093  52.589  1.00  0.00     0.008 C 
HETATM   12  C   UNL     1       3.345  34.802  51.422  1.00  0.00     0.020 C 
HETATM   13  C   UNL     1       4.544  35.204  53.588  1.00  0.00     0.128 C 
HETATM   14  C   UNL     1       3.494  35.457  54.663  1.00  0.00     0.033 C 
HETATM   15  C   UNL     1       3.343  34.245  55.579  1.00  0.00     0.013 C 
ENDROOT
BRANCH   3  16
HETATM   16  C   UNL     1       4.179  31.430  56.738  1.00  0.00     0.114 C 
BRANCH  16  17
HETATM   17  C   UNL     1       5.512  31.608  57.430  1.00  0.00     0.218 C 
HETATM   18  N   UNL     1       6.229  30.452  57.609  1.00  0.00    -0.359 N 
HETATM   19  H   UNL     1       6.015  29.675  56.977  1.00  0.00     0.162 HD
HETATM   20  O   UNL     1       5.893  32.719  57.799  1.00  0.00    -0.274 OA
BRANCH  18  21
HETATM   21  C   UNL     1       7.537  30.485  58.238  1.00  0.00     0.148 C 
BRANCH  21  22
HETATM   22  C   UNL     1       8.624  29.738  57.460  1.00  0.00     0.186 C 
BRANCH  22  23
HETATM   23  O   UNL     1       9.940  30.048  57.929  1.00  0.00    -0.394 OA
HETATM   24  C   UNL     1      10.949  29.724  56.982  1.00  0.00     0.201 C 
ENDBRANCH  22  23
ENDBRANCH  21  22
ENDBRANCH  18  21
ENDBRANCH  16  17
ENDBRANCH   3  16
BRANCH  11  25
HETATM   25  C   UNL     1       5.339  33.432  51.921  1.00  0.00     0.176 C 
BRANCH  25  26
HETATM   26  O   UNL     1       6.293  34.365  51.452  1.00  0.00    -0.400 OA
HETATM   27  H   UNL     1       6.445  34.977  52.206  1.00  0.00     0.209 HD
ENDBRANCH  25  26
ENDBRANCH  11  25
BRANCH   7  28
HETATM   28  N   UNL     1       5.266  27.369  53.533  1.00  0.00    -0.305 N 
HETATM   29  C   UNL     1       6.599  27.033  53.512  1.00  0.00     0.231 C 
HETATM   30  O   UNL     1       7.527  27.838  53.534  1.00  0.00    -0.272 OA
HETATM   31  H   UNL     1       4.551  26.665  53.616  1.00  0.00     0.171 HD
BRANCH  29  32
HETATM   32  C   UNL     1       6.852  25.507  53.442  1.00  0.00     0.030 C 
HETATM   33  C   UNL     1       7.294  25.004  54.824  1.00  0.00     0.025 C 
HETATM   34  C   UNL     1       5.550  24.789  53.042  1.00  0.00     0.025 C 
HETATM   35  C   UNL     1       7.926  25.170  52.394  1.00  0.00     0.025 C 
ENDBRANCH  29  32
ENDBRANCH   7  28
BRANCH  13  36
HETATM   36  O   UNL     1       5.782  34.865  54.219  1.00  0.00    -0.395 OA
HETATM   37  H   UNL     1       5.720  35.126  55.157  1.00  0.00     0.210 HD
ENDBRANCH  13  36
TORSDOF 10
ENDMDL
MODEL 9
REMARK VINA RESULT:      -6.2      4.230      8.614
REMARK  10 active torsions:
REMARK  status: ('A' for Active; 'I' for Inactive)
REMARK    1  A    between atoms: C_3  and  C_4 
REMARK    2  A    between atoms: C_4  and  C_5 
REMARK       I    between atoms: C_5  and  N_6 
REMARK    3  A    between atoms: N_6  and  C_7 
REMARK    4  A    between atoms: C_7  and  C_8 
REMARK    5  A    between atoms: C_8  and  O_9 
REMARK    6  A    between atoms: C_15  and  N_16 
REMARK       I    between atoms: N_16  and  C_17 
REMARK    7  A    between atoms: C_17  and  C_18 
REMARK    8  A    between atoms: C_26  and  C_27 
REMARK    9  A    between atoms: C_27  and  O_28 
REMARK   10  A    between atoms: C_30  and  O_31 
ROOT
HETATM    1  C   UNL     1       5.461  27.988  47.277  1.00  0.00     0.016 C 
HETATM    2  C   UNL     1       4.165  28.201  48.124  1.00  0.00    -0.030 C 
HETATM    3  C   UNL     1       4.539  28.967  49.464  1.00  0.00     0.056 C 
HETATM    4  C   UNL     1       4.757  30.438  49.200  1.00  0.00     0.056 A 
HETATM    5  C   UNL     1       4.286  31.085  48.075  1.00  0.00     0.012 A 
HETATM    6  S   UNL     1       4.571  32.757  48.188  1.00  0.00    -0.055 SA
HETATM    7  C   UNL     1       5.407  32.481  49.652  1.00  0.00     0.173 A 
HETATM    8  N   UNL     1       5.446  31.248  50.090  1.00  0.00    -0.227 NA
HETATM    9  C   UNL     1       3.638  30.452  46.900  1.00  0.00     0.055 C 
HETATM   10  C   UNL     1       3.137  29.020  47.226  1.00  0.00     0.012 C 
HETATM   11  C   UNL     1       1.593  28.949  47.602  1.00  0.00     0.008 C 
HETATM   12  C   UNL     1       0.809  28.976  46.251  1.00  0.00     0.020 C 
HETATM   13  C   UNL     1       1.243  27.603  48.304  1.00  0.00     0.128 C 
HETATM   14  C   UNL     1       2.216  26.492  47.927  1.00  0.00     0.033 C 
HETATM   15  C   UNL     1       3.615  26.780  48.464  1.00  0.00     0.013 C 
ENDROOT
BRANCH   3  16
HETATM   16  C   UNL     1       5.725  28.338  50.220  1.00  0.00     0.114 C 
BRANCH  16  17
HETATM   17  C   UNL     1       5.350  28.017  51.650  1.00  0.00     0.218 C 
HETATM   18  N   UNL     1       5.700  28.975  52.569  1.00  0.00    -0.359 N 
HETATM   19  H   UNL     1       5.830  29.927  52.213  1.00  0.00     0.162 HD
HETATM   20  O   UNL     1       4.780  26.965  51.936  1.00  0.00    -0.274 OA
BRANCH  18  21
HETATM   21  C   UNL     1       5.376  28.803  53.973  1.00  0.00     0.148 C 
BRANCH  21  22
HETATM   22  C   UNL     1       6.513  28.209  54.809  1.00  0.00     0.186 C 
BRANCH  22  23
HETATM   23  O   UNL     1       6.337  26.810  55.051  1.00  0.00    -0.394 OA
HETATM   24  C   UNL     1       7.287  26.010  54.358  1.00  0.00     0.201 C 
ENDBRANCH  22  23
ENDBRANCH  21  22
ENDBRANCH  18  21
ENDBRANCH  16  17
ENDBRANCH   3  16
BRANCH  11  25
HETATM   25  C   UNL     1       1.035  30.152  48.412  1.00  0.00     0.176 C 
BRANCH  25  26
HETATM   26  O   UNL     1       0.002  30.851  47.745  1.00  0.00    -0.400 OA
HETATM   27  H   UNL     1       0.139  30.661  46.791  1.00  0.00     0.209 HD
ENDBRANCH  25  26
ENDBRANCH  11  25
BRANCH   7  28
HETATM   28  N   UNL     1       5.963  33.619  50.161  1.00  0.00    -0.305 N 
HETATM   29  C   UNL     1       5.314  34.416  51.075  1.00  0.00     0.231 C 
HETATM   30  O   UNL     1       4.165  34.238  51.472  1.00  0.00    -0.272 OA
HETATM   31  H   UNL     1       6.938  33.753  49.950  1.00  0.00     0.171 HD
BRANCH  29  32
HETATM   32  C   UNL     1       6.168  35.608  51.573  1.00  0.00     0.030 C 
HETATM   33  C   UNL     1       7.147  36.026  50.466  1.00  0.00     0.025 C 
HETATM   34  C   UNL     1       5.248  36.797  51.902  1.00  0.00     0.025 C 
HETATM   35  C   UNL     1       6.947  35.238  52.847  1.00  0.00     0.025 C 
ENDBRANCH  29  32
ENDBRANCH   7  28
BRANCH  13  36
HETATM   36  O   UNL     1       1.239  27.751  49.727  1.00  0.00    -0.395 OA
HETATM   37  H   UNL     1       0.399  27.388  50.063  1.00  0.00     0.210 HD
ENDBRANCH  13  36
TORSDOF 10
ENDMDL
MODEL 10
REMARK VINA RESULT:      -6.2      2.740      7.632
REMARK  10 active torsions:
REMARK  status: ('A' for Active; 'I' for Inactive)
REMARK    1  A    between atoms: C_3  and  C_4 
REMARK    2  A    between atoms: C_4  and  C_5 
REMARK       I    between atoms: C_5  and  N_6 
REMARK    3  A    between atoms: N_6  and  C_7 
REMARK    4  A    between atoms: C_7  and  C_8 
REMARK    5  A    between atoms: C_8  and  O_9 
REMARK    6  A    between atoms: C_15  and  N_16 
REMARK       I    between atoms: N_16  and  C_17 
REMARK    7  A    between atoms: C_17  and  C_18 
REMARK    8  A    between atoms: C_26  and  C_27 
REMARK    9  A    between atoms: C_27  and  O_28 
REMARK   10  A    between atoms: C_30  and  O_31 
ROOT
HETATM    1  C   UNL     1       5.928  29.875  49.132  1.00  0.00     0.016 C 
HETATM    2  C   UNL     1       4.570  29.145  49.385  1.00  0.00    -0.030 C 
HETATM    3  C   UNL     1       4.538  28.605  50.878  1.00  0.00     0.056 C 
HETATM    4  C   UNL     1       4.258  29.727  51.850  1.00  0.00     0.056 A 
HETATM    5  C   UNL     1       3.694  30.931  51.477  1.00  0.00     0.012 A 
HETATM    6  S   UNL     1       3.375  31.886  52.847  1.00  0.00    -0.055 SA
HETATM    7  C   UNL     1       4.122  30.692  53.812  1.00  0.00     0.173 A 
HETATM    8  N   UNL     1       4.546  29.614  53.202  1.00  0.00    -0.227 NA
HETATM    9  C   UNL     1       3.408  31.380  50.093  1.00  0.00     0.055 C 
HETATM   10  C   UNL     1       3.405  30.192  49.095  1.00  0.00     0.012 C 
HETATM   11  C   UNL     1       1.953  29.626  48.774  1.00  0.00     0.008 C 
HETATM   12  C   UNL     1       1.330  30.590  47.715  1.00  0.00     0.020 C 
HETATM   13  C   UNL     1       2.028  28.215  48.118  1.00  0.00     0.128 C 
HETATM   14  C   UNL     1       3.353  27.989  47.399  1.00  0.00     0.033 C 
HETATM   15  C   UNL     1       4.514  27.945  48.388  1.00  0.00     0.013 C 
ENDROOT
BRANCH   3  16
HETATM   16  C   UNL     1       5.797  27.808  51.269  1.00  0.00     0.114 C 
BRANCH  16  17
HETATM   17  C   UNL     1       5.428  26.487  51.907  1.00  0.00     0.218 C 
HETATM   18  N   UNL     1       5.622  26.426  53.264  1.00  0.00    -0.359 N 
HETATM   19  H   UNL     1       5.634  27.318  53.767  1.00  0.00     0.162 HD
HETATM   20  O   UNL     1       4.995  25.554  51.231  1.00  0.00    -0.274 OA
BRANCH  18  21
HETATM   21  C   UNL     1       5.285  25.223  54.004  1.00  0.00     0.148 C 
BRANCH  21  22
HETATM   22  C   UNL     1       6.494  24.488  54.588  1.00  0.00     0.186 C 
BRANCH  22  23
HETATM   23  O   UNL     1       6.862  23.343  53.813  1.00  0.00    -0.394 OA
HETATM   24  C   UNL     1       7.862  23.635  52.845  1.00  0.00     0.201 C 
ENDBRANCH  22  23
ENDBRANCH  21  22
ENDBRANCH  18  21
ENDBRANCH  16  17
ENDBRANCH   3  16
BRANCH  11  25
HETATM   25  C   UNL     1       0.947  29.628  49.958  1.00  0.00     0.176 C 
BRANCH  25  26
HETATM   26  O   UNL     1       1.248  28.673  50.957  1.00  0.00    -0.400 OA
HETATM   27  H   UNL     1       2.143  28.918  51.283  1.00  0.00     0.209 HD
ENDBRANCH  25  26
ENDBRANCH  11  25
BRANCH   7  28
HETATM   28  N   UNL     1       4.206  31.055  55.125  1.00  0.00    -0.305 N 
HETATM   29  C   UNL     1       5.223  30.630  55.948  1.00  0.00     0.231 C 
HETATM   30  O   UNL     1       6.108  29.843  55.622  1.00  0.00    -0.272 OA
HETATM   31  H   UNL     1       3.568  31.779  55.414  1.00  0.00     0.171 HD
BRANCH  29  32
HETATM   32  C   UNL     1       5.158  31.232  57.373  1.00  0.00     0.030 C 
HETATM   33  C   UNL     1       3.921  30.682  58.098  1.00  0.00     0.025 C 
HETATM   34  C   UNL     1       6.419  30.828  58.159  1.00  0.00     0.025 C 
HETATM   35  C   UNL     1       5.097  32.769  57.325  1.00  0.00     0.025 C 
ENDBRANCH  29  32
ENDBRANCH   7  28
BRANCH  13  36
HETATM   36  O   UNL     1       1.849  27.184  49.093  1.00  0.00    -0.395 OA
HETATM   37  H   UNL     1       0.931  27.238  49.419  1.00  0.00     0.210 HD
ENDBRANCH  13  36
TORSDOF 10
ENDMDL
