MODEL 1
REMARK VINA RESULT:      -9.9      0.000      0.000
REMARK  8 active torsions:
REMARK  status: ('A' for Active; 'I' for Inactive)
REMARK    1  A    between atoms: C_3  and  N_4 
REMARK    2  A    between atoms: N_7  and  C_9 
REMARK    3  A    between atoms: C_9  and  C_10 
REMARK    4  A    between atoms: C_10  and  C_11 
REMARK    5  A    between atoms: C_11  and  N_12 
REMARK       I    between atoms: N_12  and  C_13 
REMARK    6  A    between atoms: C_13  and  C_14 
REMARK    7  A    between atoms: C_14  and  O_15 
REMARK    8  A    between atoms: O_15  and  C_16 
ROOT
HETATM    1  C   UNL     1       6.552  28.601  57.534  1.00  0.00     0.236 C 
ENDROOT
BRANCH   1   2
HETATM    2  N   UNL     1       6.585  27.114  57.247  1.00  0.00    -0.069 N 
HETATM    3  C   UNL     1       5.795  26.730  55.981  1.00  0.00     0.249 C 
HETATM    4  C   UNL     1       5.938  25.225  55.665  1.00  0.00     0.123 C 
HETATM    5  N   UNL     1       7.369  24.879  55.564  1.00  0.00    -0.280 NA
HETATM    6  C   UNL     1       8.121  25.132  56.804  1.00  0.00     0.123 C 
HETATM    7  C   UNL     1       8.044  26.634  57.143  1.00  0.00     0.249 C 
HETATM    8  H   UNL     1       6.157  26.613  58.037  1.00  0.00     0.280 HD
BRANCH   5   9
HETATM    9  C   UNL     1       7.604  23.660  54.904  1.00  0.00     0.018 A 
HETATM   10  C   UNL     1       7.748  23.636  53.497  1.00  0.00    -0.041 A 
HETATM   11  C   UNL     1       7.674  24.886  52.658  1.00  0.00     0.050 C 
HETATM   12  C   UNL     1       7.959  22.415  52.831  1.00  0.00     0.010 A 
HETATM   13  C   UNL     1       8.063  21.222  53.543  1.00  0.00     0.024 A 
HETATM   14  C   UNL     1       7.946  21.244  54.925  1.00  0.00     0.035 A 
HETATM   15  C   UNL     1       7.714  22.445  55.601  1.00  0.00     0.048 A 
HETATM   16 CL   UNL     1       8.079  19.780  55.818  1.00  0.00    -0.084 Cl
ENDBRANCH   5   9
ENDBRANCH   1   2
BRANCH   1  17
HETATM   17  C   UNL     1       7.903  29.118  58.003  1.00  0.00     0.047 C 
BRANCH  17  18
HETATM   18  C   UNL     1       7.814  30.617  58.300  1.00  0.00     0.124 C 
BRANCH  18  19
HETATM   19  N   UNL     1       7.760  30.895  59.714  1.00  0.00    -0.359 N 
HETATM   20  C   UNL     1       8.509  31.911  60.278  1.00  0.00     0.241 C 
HETATM   21  O   UNL     1       9.111  32.738  59.595  1.00  0.00    -0.271 OA
HETATM   22  H   UNL     1       7.405  30.196  60.363  1.00  0.00     0.162 HD
BRANCH  20  23
HETATM   23  C   UNL     1       8.546  31.912  61.809  1.00  0.00     0.278 C 
BRANCH  23  24
HETATM   24  O   UNL     1       7.243  31.666  62.333  1.00  0.00    -0.342 OA
BRANCH  24  25
HETATM   25  C   UNL     1       6.837  32.445  63.381  1.00  0.00     0.069 A 
HETATM   26  C   UNL     1       7.672  33.095  64.292  1.00  0.00     0.038 A 
HETATM   27  C   UNL     1       7.119  33.855  65.330  1.00  0.00     0.026 A 
HETATM   28  C   UNL     1       5.737  33.967  65.455  1.00  0.00     0.034 A 
HETATM   29 CL   UNL     1       5.063  34.902  66.731  1.00  0.00    -0.084 Cl
HETATM   30  C   UNL     1       4.898  33.323  64.550  1.00  0.00     0.026 A 
HETATM   31  C   UNL     1       5.451  32.562  63.517  1.00  0.00     0.038 A 
ENDBRANCH  24  25
ENDBRANCH  23  24
ENDBRANCH  20  23
ENDBRANCH  18  19
ENDBRANCH  17  18
ENDBRANCH   1  17
TORSDOF 8
ENDMDL
MODEL 2
REMARK VINA RESULT:      -9.2      1.825      2.609
REMARK  8 active torsions:
REMARK  status: ('A' for Active; 'I' for Inactive)
REMARK    1  A    between atoms: C_3  and  N_4 
REMARK    2  A    between atoms: N_7  and  C_9 
REMARK    3  A    between atoms: C_9  and  C_10 
REMARK    4  A    between atoms: C_10  and  C_11 
REMARK    5  A    between atoms: C_11  and  N_12 
REMARK       I    between atoms: N_12  and  C_13 
REMARK    6  A    between atoms: C_13  and  C_14 
REMARK    7  A    between atoms: C_14  and  O_15 
REMARK    8  A    between atoms: O_15  and  C_16 
ROOT
HETATM    1  C   UNL     1       5.138  29.448  54.809  1.00  0.00     0.236 C 
ENDROOT
BRANCH   1   2
HETATM    2  N   UNL     1       5.700  28.102  55.216  1.00  0.00    -0.069 N 
HETATM    3  C   UNL     1       4.864  26.919  54.691  1.00  0.00     0.249 C 
HETATM    4  C   UNL     1       5.524  25.566  55.038  1.00  0.00     0.123 C 
HETATM    5  N   UNL     1       6.909  25.551  54.525  1.00  0.00    -0.280 NA
HETATM    6  C   UNL     1       7.758  26.606  55.101  1.00  0.00     0.123 C 
HETATM    7  C   UNL     1       7.162  27.983  54.747  1.00  0.00     0.249 C 
HETATM    8  H   UNL     1       5.705  28.040  56.242  1.00  0.00     0.280 HD
BRANCH   5   9
HETATM    9  C   UNL     1       7.456  24.260  54.434  1.00  0.00     0.018 A 
HETATM   10  C   UNL     1       7.864  23.753  53.177  1.00  0.00    -0.041 A 
HETATM   11  C   UNL     1       7.748  24.559  51.908  1.00  0.00     0.050 C 
HETATM   12  C   UNL     1       8.390  22.452  53.078  1.00  0.00     0.010 A 
HETATM   13  C   UNL     1       8.549  21.659  54.211  1.00  0.00     0.024 A 
HETATM   14  C   UNL     1       8.172  22.160  55.449  1.00  0.00     0.035 A 
HETATM   15  C   UNL     1       7.627  23.442  55.562  1.00  0.00     0.048 A 
HETATM   16 CL   UNL     1       8.369  21.194  56.859  1.00  0.00    -0.084 Cl
ENDBRANCH   5   9
ENDBRANCH   1   2
BRANCH   1  17
HETATM   17  C   UNL     1       4.760  30.294  56.017  1.00  0.00     0.047 C 
BRANCH  17  18
HETATM   18  C   UNL     1       5.417  29.727  57.277  1.00  0.00     0.124 C 
BRANCH  18  19
HETATM   19  N   UNL     1       6.627  30.429  57.630  1.00  0.00    -0.359 N 
HETATM   20  C   UNL     1       7.705  29.771  58.189  1.00  0.00     0.241 C 
HETATM   21  O   UNL     1       7.766  28.544  58.247  1.00  0.00    -0.271 OA
HETATM   22  H   UNL     1       6.620  31.441  57.744  1.00  0.00     0.162 HD
BRANCH  20  23
HETATM   23  C   UNL     1       8.801  30.684  58.746  1.00  0.00     0.278 C 
BRANCH  23  24
HETATM   24  O   UNL     1       8.250  31.946  59.114  1.00  0.00    -0.342 OA
BRANCH  24  25
HETATM   25  C   UNL     1       8.103  32.194  60.451  1.00  0.00     0.069 A 
HETATM   26  C   UNL     1       9.046  31.925  61.445  1.00  0.00     0.038 A 
HETATM   27  C   UNL     1       8.758  32.220  62.783  1.00  0.00     0.026 A 
HETATM   28  C   UNL     1       7.532  32.784  63.126  1.00  0.00     0.034 A 
HETATM   29 CL   UNL     1       7.184  33.145  64.770  1.00  0.00    -0.084 Cl
HETATM   30  C   UNL     1       6.587  33.056  62.141  1.00  0.00     0.026 A 
HETATM   31  C   UNL     1       6.874  32.758  60.807  1.00  0.00     0.038 A 
ENDBRANCH  24  25
ENDBRANCH  23  24
ENDBRANCH  20  23
ENDBRANCH  18  19
ENDBRANCH  17  18
ENDBRANCH   1  17
TORSDOF 8
ENDMDL
MODEL 3
REMARK VINA RESULT:      -9.0      1.883      2.230
REMARK  8 active torsions:
REMARK  status: ('A' for Active; 'I' for Inactive)
REMARK    1  A    between atoms: C_3  and  N_4 
REMARK    2  A    between atoms: N_7  and  C_9 
REMARK    3  A    between atoms: C_9  and  C_10 
REMARK    4  A    between atoms: C_10  and  C_11 
REMARK    5  A    between atoms: C_11  and  N_12 
REMARK       I    between atoms: N_12  and  C_13 
REMARK    6  A    between atoms: C_13  and  C_14 
REMARK    7  A    between atoms: C_14  and  O_15 
REMARK    8  A    between atoms: O_15  and  C_16 
ROOT
HETATM    1  C   UNL     1       6.149  28.915  57.184  1.00  0.00     0.236 C 
ENDROOT
BRANCH   1   2
HETATM    2  N   UNL     1       6.248  27.417  56.985  1.00  0.00    -0.069 N 
HETATM    3  C   UNL     1       5.520  26.931  55.717  1.00  0.00     0.249 C 
HETATM    4  C   UNL     1       5.731  25.418  55.493  1.00  0.00     0.123 C 
HETATM    5  N   UNL     1       7.177  25.124  55.461  1.00  0.00    -0.280 NA
HETATM    6  C   UNL     1       7.873  25.476  56.708  1.00  0.00     0.123 C 
HETATM    7  C   UNL     1       7.728  26.991  56.958  1.00  0.00     0.249 C 
HETATM    8  H   UNL     1       5.811  26.945  57.787  1.00  0.00     0.280 HD
BRANCH   5   9
HETATM    9  C   UNL     1       7.481  23.880  54.881  1.00  0.00     0.018 A 
HETATM   10  C   UNL     1       7.752  23.795  53.494  1.00  0.00    -0.041 A 
HETATM   11  C   UNL     1       7.742  25.006  52.596  1.00  0.00     0.050 C 
HETATM   12  C   UNL     1       8.033  22.549  52.906  1.00  0.00     0.010 A 
HETATM   13  C   UNL     1       8.083  21.391  53.678  1.00  0.00     0.024 A 
HETATM   14  C   UNL     1       7.841  21.472  55.042  1.00  0.00     0.035 A 
HETATM   15  C   UNL     1       7.539  22.699  55.639  1.00  0.00     0.048 A 
HETATM   16 CL   UNL     1       7.907  20.051  56.009  1.00  0.00    -0.084 Cl
ENDBRANCH   5   9
ENDBRANCH   1   2
BRANCH   1  17
HETATM   17  C   UNL     1       7.386  29.480  57.866  1.00  0.00     0.047 C 
BRANCH  17  18
HETATM   18  C   UNL     1       7.113  30.907  58.345  1.00  0.00     0.124 C 
BRANCH  18  19
HETATM   19  N   UNL     1       5.759  31.082  58.811  1.00  0.00    -0.359 N 
HETATM   20  C   UNL     1       5.094  32.284  58.664  1.00  0.00     0.241 C 
HETATM   21  O   UNL     1       5.544  33.201  57.977  1.00  0.00    -0.271 OA
HETATM   22  H   UNL     1       5.364  30.440  59.496  1.00  0.00     0.162 HD
BRANCH  20  23
HETATM   23  C   UNL     1       3.776  32.393  59.435  1.00  0.00     0.278 C 
BRANCH  23  24
HETATM   24  O   UNL     1       3.814  33.510  60.319  1.00  0.00    -0.342 OA
BRANCH  24  25
HETATM   25  C   UNL     1       4.569  33.380  61.453  1.00  0.00     0.069 A 
HETATM   26  C   UNL     1       4.583  32.276  62.307  1.00  0.00     0.038 A 
HETATM   27  C   UNL     1       5.399  32.281  63.446  1.00  0.00     0.026 A 
HETATM   28  C   UNL     1       6.200  33.386  63.726  1.00  0.00     0.034 A 
HETATM   29 CL   UNL     1       7.199  33.387  65.125  1.00  0.00    -0.084 Cl
HETATM   30  C   UNL     1       6.191  34.490  62.879  1.00  0.00     0.026 A 
HETATM   31  C   UNL     1       5.374  34.485  61.746  1.00  0.00     0.038 A 
ENDBRANCH  24  25
ENDBRANCH  23  24
ENDBRANCH  20  23
ENDBRANCH  18  19
ENDBRANCH  17  18
ENDBRANCH   1  17
TORSDOF 8
ENDMDL
MODEL 4
REMARK VINA RESULT:      -9.0      1.489      2.327
REMARK  8 active torsions:
REMARK  status: ('A' for Active; 'I' for Inactive)
REMARK    1  A    between atoms: C_3  and  N_4 
REMARK    2  A    between atoms: N_7  and  C_9 
REMARK    3  A    between atoms: C_9  and  C_10 
REMARK    4  A    between atoms: C_10  and  C_11 
REMARK    5  A    between atoms: C_11  and  N_12 
REMARK       I    between atoms: N_12  and  C_13 
REMARK    6  A    between atoms: C_13  and  C_14 
REMARK    7  A    between atoms: C_14  and  O_15 
REMARK    8  A    between atoms: O_15  and  C_16 
ROOT
HETATM    1  C   UNL     1       5.534  29.825  55.768  1.00  0.00     0.236 C 
ENDROOT
BRANCH   1   2
HETATM    2  N   UNL     1       5.795  28.427  55.248  1.00  0.00    -0.069 N 
HETATM    3  C   UNL     1       7.255  28.214  54.806  1.00  0.00     0.249 C 
HETATM    4  C   UNL     1       7.506  26.751  54.379  1.00  0.00     0.123 C 
HETATM    5  N   UNL     1       7.111  25.846  55.477  1.00  0.00    -0.280 NA
HETATM    6  C   UNL     1       5.688  25.952  55.838  1.00  0.00     0.123 C 
HETATM    7  C   UNL     1       5.394  27.390  56.312  1.00  0.00     0.249 C 
HETATM    8  H   UNL     1       5.200  28.263  54.425  1.00  0.00     0.280 HD
BRANCH   5   9
HETATM    9  C   UNL     1       7.652  24.555  55.357  1.00  0.00     0.018 A 
HETATM   10  C   UNL     1       8.442  24.021  56.403  1.00  0.00    -0.041 A 
HETATM   11  C   UNL     1       8.723  24.787  57.671  1.00  0.00     0.050 C 
HETATM   12  C   UNL     1       9.005  22.738  56.277  1.00  0.00     0.010 A 
HETATM   13  C   UNL     1       8.768  21.963  55.144  1.00  0.00     0.024 A 
HETATM   14  C   UNL     1       7.975  22.473  54.126  1.00  0.00     0.035 A 
HETATM   15  C   UNL     1       7.426  23.754  54.225  1.00  0.00     0.048 A 
HETATM   16 CL   UNL     1       7.668  21.524  52.725  1.00  0.00    -0.084 Cl
ENDBRANCH   5   9
ENDBRANCH   1   2
BRANCH   1  17
HETATM   17  C   UNL     1       5.601  29.887  57.287  1.00  0.00     0.047 C 
BRANCH  17  18
HETATM   18  C   UNL     1       6.600  30.962  57.722  1.00  0.00     0.124 C 
BRANCH  18  19
HETATM   19  N   UNL     1       6.908  30.890  59.129  1.00  0.00    -0.359 N 
HETATM   20  C   UNL     1       8.064  31.446  59.644  1.00  0.00     0.241 C 
HETATM   21  O   UNL     1       8.791  32.179  58.976  1.00  0.00    -0.271 OA
HETATM   22  H   UNL     1       6.446  30.203  59.723  1.00  0.00     0.162 HD
BRANCH  20  23
HETATM   23  C   UNL     1       8.375  31.062  61.092  1.00  0.00     0.278 C 
BRANCH  23  24
HETATM   24  O   UNL     1       8.539  32.235  61.887  1.00  0.00    -0.342 OA
BRANCH  24  25
HETATM   25  C   UNL     1       7.516  32.556  62.737  1.00  0.00     0.069 A 
HETATM   26  C   UNL     1       6.153  32.457  62.457  1.00  0.00     0.038 A 
HETATM   27  C   UNL     1       5.209  32.834  63.421  1.00  0.00     0.026 A 
HETATM   28  C   UNL     1       5.628  33.305  64.662  1.00  0.00     0.034 A 
HETATM   29 CL   UNL     1       4.466  33.766  65.842  1.00  0.00    -0.084 Cl
HETATM   30  C   UNL     1       6.987  33.407  64.950  1.00  0.00     0.026 A 
HETATM   31  C   UNL     1       7.927  33.034  63.986  1.00  0.00     0.038 A 
ENDBRANCH  24  25
ENDBRANCH  23  24
ENDBRANCH  20  23
ENDBRANCH  18  19
ENDBRANCH  17  18
ENDBRANCH   1  17
TORSDOF 8
ENDMDL
MODEL 5
REMARK VINA RESULT:      -8.9      5.873      9.073
REMARK  8 active torsions:
REMARK  status: ('A' for Active; 'I' for Inactive)
REMARK    1  A    between atoms: C_3  and  N_4 
REMARK    2  A    between atoms: N_7  and  C_9 
REMARK    3  A    between atoms: C_9  and  C_10 
REMARK    4  A    between atoms: C_10  and  C_11 
REMARK    5  A    between atoms: C_11  and  N_12 
REMARK       I    between atoms: N_12  and  C_13 
REMARK    6  A    between atoms: C_13  and  C_14 
REMARK    7  A    between atoms: C_14  and  O_15 
REMARK    8  A    between atoms: O_15  and  C_16 
ROOT
HETATM    1  C   UNL     1       6.270  28.871  57.400  1.00  0.00     0.236 C 
ENDROOT
BRANCH   1   2
HETATM    2  N   UNL     1       6.410  27.379  57.180  1.00  0.00    -0.069 N 
HETATM    3  C   UNL     1       5.546  26.861  56.013  1.00  0.00     0.249 C 
HETATM    4  C   UNL     1       5.794  25.358  55.755  1.00  0.00     0.123 C 
HETATM    5  N   UNL     1       7.236  25.131  55.534  1.00  0.00    -0.280 NA
HETATM    6  C   UNL     1       8.071  25.513  56.683  1.00  0.00     0.123 C 
HETATM    7  C   UNL     1       7.891  27.020  56.959  1.00  0.00     0.249 C 
HETATM    8  H   UNL     1       6.102  26.887  58.028  1.00  0.00     0.280 HD
BRANCH   5   9
HETATM    9  C   UNL     1       7.517  23.902  54.912  1.00  0.00     0.018 A 
HETATM   10  C   UNL     1       7.717  23.849  53.511  1.00  0.00    -0.041 A 
HETATM   11  C   UNL     1       7.653  25.080  52.642  1.00  0.00     0.050 C 
HETATM   12  C   UNL     1       7.976  22.618  52.882  1.00  0.00     0.010 A 
HETATM   13  C   UNL     1       8.073  21.444  53.624  1.00  0.00     0.024 A 
HETATM   14  C   UNL     1       7.901  21.494  55.000  1.00  0.00     0.035 A 
HETATM   15  C   UNL     1       7.622  22.705  55.639  1.00  0.00     0.048 A 
HETATM   16 CL   UNL     1       8.026  20.052  55.931  1.00  0.00    -0.084 Cl
ENDBRANCH   5   9
ENDBRANCH   1   2
BRANCH   1  17
HETATM   17  C   UNL     1       4.983  29.415  56.797  1.00  0.00     0.047 C 
BRANCH  17  18
HETATM   18  C   UNL     1       5.299  30.577  55.853  1.00  0.00     0.124 C 
BRANCH  18  19
HETATM   19  N   UNL     1       4.979  30.273  54.480  1.00  0.00    -0.359 N 
HETATM   20  C   UNL     1       3.718  30.504  53.965  1.00  0.00     0.241 C 
HETATM   21  O   UNL     1       2.865  31.140  54.583  1.00  0.00    -0.271 OA
HETATM   22  H   UNL     1       5.565  29.635  53.944  1.00  0.00     0.162 HD
BRANCH  20  23
HETATM   23  C   UNL     1       3.461  29.893  52.586  1.00  0.00     0.278 C 
BRANCH  23  24
HETATM   24  O   UNL     1       4.502  28.977  52.252  1.00  0.00    -0.342 OA
BRANCH  24  25
HETATM   25  C   UNL     1       4.307  28.191  51.149  1.00  0.00     0.069 A 
HETATM   26  C   UNL     1       4.997  27.016  50.846  1.00  0.00     0.038 A 
HETATM   27  C   UNL     1       4.703  26.314  49.671  1.00  0.00     0.026 A 
HETATM   28  C   UNL     1       3.720  26.783  48.804  1.00  0.00     0.034 A 
HETATM   29 CL   UNL     1       3.362  25.917  47.363  1.00  0.00    -0.084 Cl
HETATM   30  C   UNL     1       3.026  27.954  49.099  1.00  0.00     0.026 A 
HETATM   31  C   UNL     1       3.324  28.656  50.270  1.00  0.00     0.038 A 
ENDBRANCH  24  25
ENDBRANCH  23  24
ENDBRANCH  20  23
ENDBRANCH  18  19
ENDBRANCH  17  18
ENDBRANCH   1  17
TORSDOF 8
ENDMDL
MODEL 6
REMARK VINA RESULT:      -8.7      3.271      4.273
REMARK  8 active torsions:
REMARK  status: ('A' for Active; 'I' for Inactive)
REMARK    1  A    between atoms: C_3  and  N_4 
REMARK    2  A    between atoms: N_7  and  C_9 
REMARK    3  A    between atoms: C_9  and  C_10 
REMARK    4  A    between atoms: C_10  and  C_11 
REMARK    5  A    between atoms: C_11  and  N_12 
REMARK       I    between atoms: N_12  and  C_13 
REMARK    6  A    between atoms: C_13  and  C_14 
REMARK    7  A    between atoms: C_14  and  O_15 
REMARK    8  A    between atoms: O_15  and  C_16 
ROOT
HETATM    1  C   UNL     1       5.570  29.291  56.696  1.00  0.00     0.236 C 
ENDROOT
BRANCH   1   2
HETATM    2  N   UNL     1       5.972  27.831  56.656  1.00  0.00    -0.069 N 
HETATM    3  C   UNL     1       4.996  26.963  55.838  1.00  0.00     0.249 C 
HETATM    4  C   UNL     1       5.494  25.504  55.735  1.00  0.00     0.123 C 
HETATM    5  N   UNL     1       6.861  25.492  55.179  1.00  0.00    -0.280 NA
HETATM    6  C   UNL     1       7.835  26.221  56.006  1.00  0.00     0.123 C 
HETATM    7  C   UNL     1       7.405  27.698  56.108  1.00  0.00     0.249 C 
HETATM    8  H   UNL     1       5.979  27.461  57.615  1.00  0.00     0.280 HD
BRANCH   5   9
HETATM    9  C   UNL     1       7.250  24.236  54.681  1.00  0.00     0.018 A 
HETATM   10  C   UNL     1       7.664  24.108  53.334  1.00  0.00    -0.041 A 
HETATM   11  C   UNL     1       7.722  25.286  52.394  1.00  0.00     0.050 C 
HETATM   12  C   UNL     1       8.031  22.849  52.825  1.00  0.00     0.010 A 
HETATM   13  C   UNL     1       8.025  21.721  53.641  1.00  0.00     0.024 A 
HETATM   14  C   UNL     1       7.642  21.845  54.969  1.00  0.00     0.035 A 
HETATM   15  C   UNL     1       7.254  23.084  55.485  1.00  0.00     0.048 A 
HETATM   16 CL   UNL     1       7.637  20.461  55.991  1.00  0.00    -0.084 Cl
ENDBRANCH   5   9
ENDBRANCH   1   2
BRANCH   1  17
HETATM   17  C   UNL     1       4.297  29.507  57.500  1.00  0.00     0.047 C 
BRANCH  17  18
HETATM   18  C   UNL     1       4.002  31.004  57.620  1.00  0.00     0.124 C 
BRANCH  18  19
HETATM   19  N   UNL     1       4.491  31.564  58.856  1.00  0.00    -0.359 N 
HETATM   20  C   UNL     1       5.514  32.492  58.873  1.00  0.00     0.241 C 
HETATM   21  O   UNL     1       5.934  33.022  57.845  1.00  0.00    -0.271 OA
HETATM   22  H   UNL     1       4.304  31.097  59.742  1.00  0.00     0.162 HD
BRANCH  20  23
HETATM   23  C   UNL     1       6.093  32.791  60.258  1.00  0.00     0.278 C 
BRANCH  23  24
HETATM   24  O   UNL     1       6.886  31.694  60.707  1.00  0.00    -0.342 OA
BRANCH  24  25
HETATM   25  C   UNL     1       7.884  31.268  59.875  1.00  0.00     0.069 A 
HETATM   26  C   UNL     1       7.906  30.066  59.166  1.00  0.00     0.038 A 
HETATM   27  C   UNL     1       9.004  29.749  58.356  1.00  0.00     0.026 A 
HETATM   28  C   UNL     1      10.074  30.634  58.252  1.00  0.00     0.034 A 
HETATM   29 CL   UNL     1      11.418  30.241  57.255  1.00  0.00    -0.084 Cl
HETATM   30  C   UNL     1      10.059  31.836  58.954  1.00  0.00     0.026 A 
HETATM   31  C   UNL     1       8.965  32.148  59.766  1.00  0.00     0.038 A 
ENDBRANCH  24  25
ENDBRANCH  23  24
ENDBRANCH  20  23
ENDBRANCH  18  19
ENDBRANCH  17  18
ENDBRANCH   1  17
TORSDOF 8
ENDMDL
MODEL 7
REMARK VINA RESULT:      -8.7      2.662     12.012
REMARK  8 active torsions:
REMARK  status: ('A' for Active; 'I' for Inactive)
REMARK    1  A    between atoms: C_3  and  N_4 
REMARK    2  A    between atoms: N_7  and  C_9 
REMARK    3  A    between atoms: C_9  and  C_10 
REMARK    4  A    between atoms: C_10  and  C_11 
REMARK    5  A    between atoms: C_11  and  N_12 
REMARK       I    between atoms: N_12  and  C_13 
REMARK    6  A    between atoms: C_13  and  C_14 
REMARK    7  A    between atoms: C_14  and  O_15 
REMARK    8  A    between atoms: O_15  and  C_16 
ROOT
HETATM    1  C   UNL     1       5.211  30.901  57.159  1.00  0.00     0.236 C 
ENDROOT
BRANCH   1   2
HETATM    2  N   UNL     1       5.548  31.922  58.226  1.00  0.00    -0.069 N 
HETATM    3  C   UNL     1       4.429  32.087  59.273  1.00  0.00     0.249 C 
HETATM    4  C   UNL     1       4.851  33.057  60.398  1.00  0.00     0.123 C 
HETATM    5  N   UNL     1       6.119  32.594  60.995  1.00  0.00    -0.280 NA
HETATM    6  C   UNL     1       7.232  32.539  60.034  1.00  0.00     0.123 C 
HETATM    7  C   UNL     1       6.877  31.548  58.907  1.00  0.00     0.249 C 
HETATM    8  H   UNL     1       5.684  32.838  57.779  1.00  0.00     0.280 HD
BRANCH   5   9
HETATM    9  C   UNL     1       6.382  33.159  62.255  1.00  0.00     0.018 A 
HETATM   10  C   UNL     1       7.307  32.538  63.128  1.00  0.00    -0.041 A 
HETATM   11  C   UNL     1       8.049  31.280  62.752  1.00  0.00     0.050 C 
HETATM   12  C   UNL     1       7.555  33.086  64.399  1.00  0.00     0.010 A 
HETATM   13  C   UNL     1       6.926  34.260  64.804  1.00  0.00     0.024 A 
HETATM   14  C   UNL     1       6.035  34.886  63.943  1.00  0.00     0.035 A 
HETATM   15  C   UNL     1       5.760  34.342  62.686  1.00  0.00     0.048 A 
HETATM   16 CL   UNL     1       5.255  36.340  64.428  1.00  0.00    -0.084 Cl
ENDBRANCH   5   9
ENDBRANCH   1   2
BRANCH   1  17
HETATM   17  C   UNL     1       5.661  29.502  57.551  1.00  0.00     0.047 C 
BRANCH  17  18
HETATM   18  C   UNL     1       6.437  28.861  56.399  1.00  0.00     0.124 C 
BRANCH  18  19
HETATM   19  N   UNL     1       6.374  27.420  56.426  1.00  0.00    -0.359 N 
HETATM   20  C   UNL     1       7.215  26.676  57.230  1.00  0.00     0.241 C 
HETATM   21  O   UNL     1       7.928  27.194  58.089  1.00  0.00    -0.271 OA
HETATM   22  H   UNL     1       5.922  26.911  55.668  1.00  0.00     0.162 HD
BRANCH  20  23
HETATM   23  C   UNL     1       7.207  25.170  56.955  1.00  0.00     0.278 C 
BRANCH  23  24
HETATM   24  O   UNL     1       6.491  24.893  55.753  1.00  0.00    -0.342 OA
BRANCH  24  25
HETATM   25  C   UNL     1       6.975  23.889  54.960  1.00  0.00     0.069 A 
HETATM   26  C   UNL     1       7.111  23.933  53.571  1.00  0.00     0.038 A 
HETATM   27  C   UNL     1       7.611  22.822  52.880  1.00  0.00     0.026 A 
HETATM   28  C   UNL     1       7.977  21.673  53.577  1.00  0.00     0.034 A 
HETATM   29 CL   UNL     1       8.591  20.312  52.724  1.00  0.00    -0.084 Cl
HETATM   30  C   UNL     1       7.845  21.622  54.962  1.00  0.00     0.026 A 
HETATM   31  C   UNL     1       7.342  22.729  55.649  1.00  0.00     0.038 A 
ENDBRANCH  24  25
ENDBRANCH  23  24
ENDBRANCH  20  23
ENDBRANCH  18  19
ENDBRANCH  17  18
ENDBRANCH   1  17
TORSDOF 8
ENDMDL
MODEL 8
REMARK VINA RESULT:      -8.6      4.530      5.745
REMARK  8 active torsions:
REMARK  status: ('A' for Active; 'I' for Inactive)
REMARK    1  A    between atoms: C_3  and  N_4 
REMARK    2  A    between atoms: N_7  and  C_9 
REMARK    3  A    between atoms: C_9  and  C_10 
REMARK    4  A    between atoms: C_10  and  C_11 
REMARK    5  A    between atoms: C_11  and  N_12 
REMARK       I    between atoms: N_12  and  C_13 
REMARK    6  A    between atoms: C_13  and  C_14 
REMARK    7  A    between atoms: C_14  and  O_15 
REMARK    8  A    between atoms: O_15  and  C_16 
ROOT
HETATM    1  C   UNL     1       5.346  28.986  53.459  1.00  0.00     0.236 C 
ENDROOT
BRANCH   1   2
HETATM    2  N   UNL     1       5.750  27.536  53.293  1.00  0.00    -0.069 N 
HETATM    3  C   UNL     1       7.278  27.336  53.291  1.00  0.00     0.249 C 
HETATM    4  C   UNL     1       7.649  25.838  53.223  1.00  0.00     0.123 C 
HETATM    5  N   UNL     1       6.987  25.119  54.329  1.00  0.00    -0.280 NA
HETATM    6  C   UNL     1       5.518  25.202  54.285  1.00  0.00     0.123 C 
HETATM    7  C   UNL     1       5.093  26.681  54.392  1.00  0.00     0.249 C 
HETATM    8  H   UNL     1       5.397  27.194  52.390  1.00  0.00     0.280 HD
BRANCH   5   9
HETATM    9  C   UNL     1       7.554  23.861  54.596  1.00  0.00     0.018 A 
HETATM   10  C   UNL     1       8.058  23.573  55.887  1.00  0.00    -0.041 A 
HETATM   11  C   UNL     1       7.998  24.571  57.015  1.00  0.00     0.050 C 
HETATM   12  C   UNL     1       8.648  22.324  56.151  1.00  0.00     0.010 A 
HETATM   13  C   UNL     1       8.716  21.344  55.164  1.00  0.00     0.024 A 
HETATM   14  C   UNL     1       8.203  21.613  53.903  1.00  0.00     0.035 A 
HETATM   15  C   UNL     1       7.633  22.857  53.617  1.00  0.00     0.048 A 
HETATM   16 CL   UNL     1       8.273  20.409  52.676  1.00  0.00    -0.084 Cl
ENDBRANCH   5   9
ENDBRANCH   1   2
BRANCH   1  17
HETATM   17  C   UNL     1       3.834  29.158  53.455  1.00  0.00     0.047 C 
BRANCH  17  18
HETATM   18  C   UNL     1       3.443  30.366  54.309  1.00  0.00     0.124 C 
BRANCH  18  19
HETATM   19  N   UNL     1       3.783  30.190  55.700  1.00  0.00    -0.359 N 
HETATM   20  C   UNL     1       4.359  31.207  56.436  1.00  0.00     0.241 C 
HETATM   21  O   UNL     1       4.446  32.357  56.008  1.00  0.00    -0.271 OA
HETATM   22  H   UNL     1       3.873  29.255  56.093  1.00  0.00     0.162 HD
BRANCH  20  23
HETATM   23  C   UNL     1       4.897  30.788  57.807  1.00  0.00     0.278 C 
BRANCH  23  24
HETATM   24  O   UNL     1       5.532  29.515  57.718  1.00  0.00    -0.342 OA
BRANCH  24  25
HETATM   25  C   UNL     1       6.885  29.508  57.517  1.00  0.00     0.069 A 
HETATM   26  C   UNL     1       7.567  28.784  56.538  1.00  0.00     0.038 A 
HETATM   27  C   UNL     1       8.963  28.861  56.453  1.00  0.00     0.026 A 
HETATM   28  C   UNL     1       9.674  29.663  57.343  1.00  0.00     0.034 A 
HETATM   29 CL   UNL     1      11.387  29.755  57.234  1.00  0.00    -0.084 Cl
HETATM   30  C   UNL     1       9.001  30.389  58.322  1.00  0.00     0.026 A 
HETATM   31  C   UNL     1       7.609  30.308  58.408  1.00  0.00     0.038 A 
ENDBRANCH  24  25
ENDBRANCH  23  24
ENDBRANCH  20  23
ENDBRANCH  18  19
ENDBRANCH  17  18
ENDBRANCH   1  17
TORSDOF 8
ENDMDL
MODEL 9
REMARK VINA RESULT:      -8.4      4.417     10.574
REMARK  8 active torsions:
REMARK  status: ('A' for Active; 'I' for Inactive)
REMARK    1  A    between atoms: C_3  and  N_4 
REMARK    2  A    between atoms: N_7  and  C_9 
REMARK    3  A    between atoms: C_9  and  C_10 
REMARK    4  A    between atoms: C_10  and  C_11 
REMARK    5  A    between atoms: C_11  and  N_12 
REMARK       I    between atoms: N_12  and  C_13 
REMARK    6  A    between atoms: C_13  and  C_14 
REMARK    7  A    between atoms: C_14  and  O_15 
REMARK    8  A    between atoms: O_15  and  C_16 
ROOT
HETATM    1  C   UNL     1       3.511  28.560  52.928  1.00  0.00     0.236 C 
ENDROOT
BRANCH   1   2
HETATM    2  N   UNL     1       4.009  28.874  54.323  1.00  0.00    -0.069 N 
HETATM    3  C   UNL     1       5.123  27.919  54.792  1.00  0.00     0.249 C 
HETATM    4  C   UNL     1       5.675  28.334  56.173  1.00  0.00     0.123 C 
HETATM    5  N   UNL     1       6.123  29.739  56.120  1.00  0.00    -0.280 NA
HETATM    6  C   UNL     1       5.045  30.684  55.785  1.00  0.00     0.123 C 
HETATM    7  C   UNL     1       4.485  30.337  54.391  1.00  0.00     0.249 C 
HETATM    8  H   UNL     1       3.228  28.779  54.985  1.00  0.00     0.280 HD
BRANCH   5   9
HETATM    9  C   UNL     1       6.985  30.091  57.172  1.00  0.00     0.018 A 
HETATM   10  C   UNL     1       8.361  29.769  57.095  1.00  0.00    -0.041 A 
HETATM   11  C   UNL     1       8.958  29.065  55.903  1.00  0.00     0.050 C 
HETATM   12  C   UNL     1       9.223  30.098  58.157  1.00  0.00     0.010 A 
HETATM   13  C   UNL     1       8.747  30.771  59.280  1.00  0.00     0.024 A 
HETATM   14  C   UNL     1       7.403  31.109  59.350  1.00  0.00     0.035 A 
HETATM   15  C   UNL     1       6.529  30.771  58.314  1.00  0.00     0.048 A 
HETATM   16 CL   UNL     1       6.803  31.947  60.728  1.00  0.00    -0.084 Cl
ENDBRANCH   5   9
ENDBRANCH   1   2
BRANCH   1  17
HETATM   17  C   UNL     1       4.596  28.757  51.880  1.00  0.00     0.047 C 
BRANCH  17  18
HETATM   18  C   UNL     1       4.547  27.620  50.857  1.00  0.00     0.124 C 
BRANCH  18  19
HETATM   19  N   UNL     1       5.758  26.837  50.847  1.00  0.00    -0.359 N 
HETATM   20  C   UNL     1       5.934  25.768  51.704  1.00  0.00     0.241 C 
HETATM   21  O   UNL     1       5.014  25.317  52.385  1.00  0.00    -0.271 OA
HETATM   22  H   UNL     1       6.608  27.209  50.425  1.00  0.00     0.162 HD
BRANCH  20  23
HETATM   23  C   UNL     1       7.358  25.208  51.755  1.00  0.00     0.278 C 
BRANCH  23  24
HETATM   24  O   UNL     1       7.823  25.171  53.103  1.00  0.00    -0.342 OA
BRANCH  24  25
HETATM   25  C   UNL     1       7.854  23.948  53.715  1.00  0.00     0.069 A 
HETATM   26  C   UNL     1       7.923  22.710  53.075  1.00  0.00     0.038 A 
HETATM   27  C   UNL     1       7.934  21.530  53.829  1.00  0.00     0.026 A 
HETATM   28  C   UNL     1       7.880  21.589  55.220  1.00  0.00     0.034 A 
HETATM   29 CL   UNL     1       7.895  20.138  56.141  1.00  0.00    -0.084 Cl
HETATM   30  C   UNL     1       7.812  22.820  55.866  1.00  0.00     0.026 A 
HETATM   31  C   UNL     1       7.796  23.996  55.112  1.00  0.00     0.038 A 
ENDBRANCH  24  25
ENDBRANCH  23  24
ENDBRANCH  20  23
ENDBRANCH  18  19
ENDBRANCH  17  18
ENDBRANCH   1  17
TORSDOF 8
ENDMDL
MODEL 10
REMARK VINA RESULT:      -8.2      3.076     11.729
REMARK  8 active torsions:
REMARK  status: ('A' for Active; 'I' for Inactive)
REMARK    1  A    between atoms: C_3  and  N_4 
REMARK    2  A    between atoms: N_7  and  C_9 
REMARK    3  A    between atoms: C_9  and  C_10 
REMARK    4  A    between atoms: C_10  and  C_11 
REMARK    5  A    between atoms: C_11  and  N_12 
REMARK       I    between atoms: N_12  and  C_13 
REMARK    6  A    between atoms: C_13  and  C_14 
REMARK    7  A    between atoms: C_14  and  O_15 
REMARK    8  A    between atoms: O_15  and  C_16 
ROOT
HETATM    1  C   UNL     1       4.764  30.292  56.316  1.00  0.00     0.236 C 
ENDROOT
BRANCH   1   2
HETATM    2  N   UNL     1       5.035  30.655  57.761  1.00  0.00    -0.069 N 
HETATM    3  C   UNL     1       6.318  31.491  57.939  1.00  0.00     0.249 C 
HETATM    4  C   UNL     1       6.505  31.928  59.408  1.00  0.00     0.123 C 
HETATM    5  N   UNL     1       5.297  32.644  59.864  1.00  0.00    -0.280 NA
HETATM    6  C   UNL     1       4.076  31.824  59.810  1.00  0.00     0.123 C 
HETATM    7  C   UNL     1       3.820  31.394  58.352  1.00  0.00     0.249 C 
HETATM    8  H   UNL     1       5.158  29.791  58.304  1.00  0.00     0.280 HD
BRANCH   5   9
HETATM    9  C   UNL     1       5.507  33.413  61.021  1.00  0.00     0.018 A 
HETATM   10  C   UNL     1       4.862  34.665  61.164  1.00  0.00    -0.041 A 
HETATM   11  C   UNL     1       3.929  35.214  60.115  1.00  0.00     0.050 C 
HETATM   12  C   UNL     1       5.089  35.448  62.310  1.00  0.00     0.010 A 
HETATM   13  C   UNL     1       5.919  34.994  63.332  1.00  0.00     0.024 A 
HETATM   14  C   UNL     1       6.535  33.757  63.207  1.00  0.00     0.035 A 
HETATM   15  C   UNL     1       6.339  32.976  62.065  1.00  0.00     0.048 A 
HETATM   16 CL   UNL     1       7.558  33.181  64.465  1.00  0.00    -0.084 Cl
ENDBRANCH   5   9
ENDBRANCH   1   2
BRANCH   1  17
HETATM   17  C   UNL     1       5.320  28.920  55.962  1.00  0.00     0.047 C 
BRANCH  17  18
HETATM   18  C   UNL     1       5.338  28.027  57.204  1.00  0.00     0.124 C 
BRANCH  18  19
HETATM   19  N   UNL     1       6.063  26.800  56.989  1.00  0.00    -0.359 N 
HETATM   20  C   UNL     1       7.364  26.643  57.428  1.00  0.00     0.241 C 
HETATM   21  O   UNL     1       7.906  27.458  58.174  1.00  0.00    -0.271 OA
HETATM   22  H   UNL     1       5.754  26.137  56.281  1.00  0.00     0.162 HD
BRANCH  20  23
HETATM   23  C   UNL     1       8.079  25.398  56.900  1.00  0.00     0.278 C 
BRANCH  23  24
HETATM   24  O   UNL     1       7.147  24.335  56.718  1.00  0.00    -0.342 OA
BRANCH  24  25
HETATM   25  C   UNL     1       7.496  23.344  55.842  1.00  0.00     0.069 A 
HETATM   26  C   UNL     1       8.129  22.144  56.169  1.00  0.00     0.038 A 
HETATM   27  C   UNL     1       8.442  21.220  55.164  1.00  0.00     0.026 A 
HETATM   28  C   UNL     1       8.120  21.495  53.837  1.00  0.00     0.034 A 
HETATM   29 CL   UNL     1       8.505  20.357  52.608  1.00  0.00    -0.084 Cl
HETATM   30  C   UNL     1       7.488  22.689  53.503  1.00  0.00     0.026 A 
HETATM   31  C   UNL     1       7.181  23.612  54.506  1.00  0.00     0.038 A 
ENDBRANCH  24  25
ENDBRANCH  23  24
ENDBRANCH  20  23
ENDBRANCH  18  19
ENDBRANCH  17  18
ENDBRANCH   1  17
TORSDOF 8
ENDMDL
