MODEL 1
REMARK VINA RESULT:     -10.8      0.000      0.000
REMARK  8 active torsions:
REMARK  status: ('A' for Active; 'I' for Inactive)
REMARK    1  A    between atoms: C_2  and  S_3 
REMARK    2  A    between atoms: S_3  and  C_4 
REMARK    3  A    between atoms: C_4  and  C_5 
REMARK    4  A    between atoms: C_8  and  C_9 
REMARK    5  A    between atoms: C_10  and  C_11 
REMARK    6  A    between atoms: C_23  and  N_24 
REMARK       I    between atoms: N_24  and  C_25 
REMARK    7  A    between atoms: C_25  and  C_26 
REMARK    8  A    between atoms: C_26  and  C_27 
ROOT
HETATM    1  C   UNL     1       7.641  32.338  60.917  1.00  0.00    -0.035 A 
HETATM    2  C   UNL     1       7.064  31.536  59.924  1.00  0.00     0.030 A 
HETATM    3  C   UNL     1       7.819  31.040  58.845  1.00  0.00     0.059 A 
HETATM    4  C   UNL     1       9.185  31.337  58.764  1.00  0.00     0.050 A 
HETATM    5  N   UNL     1      10.092  30.830  57.818  1.00  0.00    -0.324 N 
HETATM    6  C   UNL     1      10.078  29.607  57.198  1.00  0.00     0.245 C 
HETATM    7  O   UNL     1      11.105  29.249  56.616  1.00  0.00    -0.271 OA
HETATM    8  C   UNL     1       8.898  28.671  57.452  1.00  0.00     0.182 C 
HETATM    9  N   UNL     1       7.643  29.317  57.094  1.00  0.00    -0.332 N 
HETATM   10  C   UNL     1       7.043  30.330  57.795  1.00  0.00     0.256 C 
HETATM   11  O   UNL     1       5.877  30.663  57.597  1.00  0.00    -0.267 OA
HETATM   12  C   UNL     1       8.951  27.396  56.598  1.00  0.00     0.061 C 
HETATM   13  C   UNL     1       7.482  27.134  56.257  1.00  0.00     0.105 C 
HETATM   14  C   UNL     1       6.917  28.546  56.097  1.00  0.00     0.152 C 
HETATM   15  C   UNL     1       9.743  32.202  59.720  1.00  0.00     0.031 A 
HETATM   16  C   UNL     1       8.986  32.680  60.796  1.00  0.00     0.013 A 
HETATM   17  H   UNL     1      11.000  31.272  57.738  1.00  0.00     0.169 HD
ENDROOT
BRANCH   1  18
HETATM   18  C   UNL     1       6.894  32.728  62.120  1.00  0.00     0.012 C 
HETATM   19  C   UNL     1       7.457  32.849  63.333  1.00  0.00     0.012 C 
BRANCH  19  20
HETATM   20  C   UNL     1       6.769  33.392  64.512  1.00  0.00    -0.036 A 
HETATM   21  C   UNL     1       5.373  33.327  64.576  1.00  0.00     0.012 A 
HETATM   22  C   UNL     1       4.697  33.696  65.741  1.00  0.00     0.009 A 
HETATM   23  C   UNL     1       5.405  34.124  66.873  1.00  0.00    -0.049 A 
HETATM   24  C   UNL     1       6.802  34.204  66.804  1.00  0.00     0.009 A 
HETATM   25  C   UNL     1       7.476  33.841  65.634  1.00  0.00     0.012 A 
BRANCH  23  26
HETATM   26  C   UNL     1       4.680  34.412  68.163  1.00  0.00     0.112 C 
BRANCH  26  27
HETATM   27  S   UNL     1       5.861  34.873  69.475  1.00  0.00    -0.165 SA
BRANCH  27  28
HETATM   28  C   UNL     1       6.038  33.256  70.278  1.00  0.00     0.069 C 
HETATM   29  C   UNL     1       7.404  33.161  70.936  1.00  0.00     0.016 C 
ENDBRANCH  27  28
ENDBRANCH  26  27
ENDBRANCH  23  26
ENDBRANCH  19  20
ENDBRANCH   1  18
BRANCH  13  30
HETATM   30  N   UNL     1       7.247  26.218  55.156  1.00  0.00    -0.355 N 
HETATM   31  C   UNL     1       6.210  25.316  55.103  1.00  0.00     0.222 C 
HETATM   32  O   UNL     1       5.372  25.229  56.000  1.00  0.00    -0.273 OA
HETATM   33  H   UNL     1       7.967  26.162  54.444  1.00  0.00     0.162 HD
BRANCH  31  34
HETATM   34  C   UNL     1       6.139  24.375  53.904  1.00  0.00     0.148 C 
BRANCH  34  35
HETATM   35  C   UNL     1       7.126  23.245  53.933  1.00  0.00    -0.009 A 
HETATM   36  S   UNL     1       7.584  22.540  55.429  1.00  0.00    -0.106 SA
HETATM   37  C   UNL     1       8.620  21.422  54.657  1.00  0.00     0.050 A 
HETATM   38  C   UNL     1       8.618  21.574  53.290  1.00  0.00     0.008 A 
HETATM   39  C   UNL     1       7.754  22.627  52.870  1.00  0.00     0.015 A 
ENDBRANCH  34  35
ENDBRANCH  31  34
ENDBRANCH  13  30
TORSDOF 8
ENDMDL
MODEL 2
REMARK VINA RESULT:     -10.1      1.221      1.617
REMARK  8 active torsions:
REMARK  status: ('A' for Active; 'I' for Inactive)
REMARK    1  A    between atoms: C_2  and  S_3 
REMARK    2  A    between atoms: S_3  and  C_4 
REMARK    3  A    between atoms: C_4  and  C_5 
REMARK    4  A    between atoms: C_8  and  C_9 
REMARK    5  A    between atoms: C_10  and  C_11 
REMARK    6  A    between atoms: C_23  and  N_24 
REMARK       I    between atoms: N_24  and  C_25 
REMARK    7  A    between atoms: C_25  and  C_26 
REMARK    8  A    between atoms: C_26  and  C_27 
ROOT
HETATM    1  C   UNL     1       8.528  32.289  61.764  1.00  0.00    -0.035 A 
HETATM    2  C   UNL     1       7.655  31.721  60.828  1.00  0.00     0.030 A 
HETATM    3  C   UNL     1       8.115  31.231  59.591  1.00  0.00     0.059 A 
HETATM    4  C   UNL     1       9.481  31.295  59.289  1.00  0.00     0.050 A 
HETATM    5  N   UNL     1      10.108  30.753  58.154  1.00  0.00    -0.324 N 
HETATM    6  C   UNL     1       9.760  29.631  57.445  1.00  0.00     0.245 C 
HETATM    7  O   UNL     1      10.591  29.173  56.658  1.00  0.00    -0.271 OA
HETATM    8  C   UNL     1       8.480  28.891  57.829  1.00  0.00     0.182 C 
HETATM    9  N   UNL     1       7.331  29.781  57.761  1.00  0.00    -0.332 N 
HETATM   10  C   UNL     1       7.057  30.794  58.644  1.00  0.00     0.256 C 
HETATM   11  O   UNL     1       5.960  31.345  58.690  1.00  0.00    -0.267 OA
HETATM   12  C   UNL     1       8.150  27.735  56.874  1.00  0.00     0.061 C 
HETATM   13  C   UNL     1       6.622  27.773  56.784  1.00  0.00     0.105 C 
HETATM   14  C   UNL     1       6.319  29.270  56.850  1.00  0.00     0.152 C 
HETATM   15  C   UNL     1      10.342  31.932  60.198  1.00  0.00     0.031 A 
HETATM   16  C   UNL     1       9.876  32.405  61.430  1.00  0.00     0.013 A 
HETATM   17  H   UNL     1      11.058  31.037  57.949  1.00  0.00     0.169 HD
ENDROOT
BRANCH   1  18
HETATM   18  C   UNL     1       8.075  32.659  63.111  1.00  0.00     0.012 C 
HETATM   19  C   UNL     1       6.904  33.267  63.356  1.00  0.00     0.012 C 
BRANCH  19  20
HETATM   20  C   UNL     1       6.360  33.499  64.701  1.00  0.00    -0.036 A 
HETATM   21  C   UNL     1       7.238  33.787  65.751  1.00  0.00     0.012 A 
HETATM   22  C   UNL     1       6.750  34.160  67.006  1.00  0.00     0.009 A 
HETATM   23  C   UNL     1       5.370  34.265  67.232  1.00  0.00    -0.049 A 
HETATM   24  C   UNL     1       4.490  33.960  66.186  1.00  0.00     0.009 A 
HETATM   25  C   UNL     1       4.981  33.582  64.933  1.00  0.00     0.012 A 
BRANCH  23  26
HETATM   26  C   UNL     1       4.850  34.775  68.552  1.00  0.00     0.112 C 
BRANCH  26  27
HETATM   27  S   UNL     1       6.196  34.878  69.778  1.00  0.00    -0.165 SA
BRANCH  27  28
HETATM   28  C   UNL     1       6.083  33.203  70.465  1.00  0.00     0.069 C 
HETATM   29  C   UNL     1       7.327  32.903  71.284  1.00  0.00     0.016 C 
ENDBRANCH  27  28
ENDBRANCH  26  27
ENDBRANCH  23  26
ENDBRANCH  19  20
ENDBRANCH   1  18
BRANCH  13  30
HETATM   30  N   UNL     1       6.041  27.047  55.671  1.00  0.00    -0.355 N 
HETATM   31  C   UNL     1       5.646  25.730  55.722  1.00  0.00     0.222 C 
HETATM   32  O   UNL     1       5.741  25.059  56.749  1.00  0.00    -0.273 OA
HETATM   33  H   UNL     1       6.043  27.511  54.768  1.00  0.00     0.162 HD
BRANCH  31  34
HETATM   34  C   UNL     1       5.112  25.091  54.444  1.00  0.00     0.148 C 
BRANCH  34  35
HETATM   35  C   UNL     1       6.169  24.616  53.491  1.00  0.00    -0.009 A 
HETATM   36  S   UNL     1       6.556  25.545  52.101  1.00  0.00    -0.106 SA
HETATM   37  C   UNL     1       7.749  24.427  51.607  1.00  0.00     0.050 A 
HETATM   38  C   UNL     1       7.859  23.369  52.480  1.00  0.00     0.008 A 
HETATM   39  C   UNL     1       6.946  23.477  53.569  1.00  0.00     0.015 A 
ENDBRANCH  34  35
ENDBRANCH  31  34
ENDBRANCH  13  30
TORSDOF 8
ENDMDL
MODEL 3
REMARK VINA RESULT:      -9.8      2.364      2.837
REMARK  8 active torsions:
REMARK  status: ('A' for Active; 'I' for Inactive)
REMARK    1  A    between atoms: C_2  and  S_3 
REMARK    2  A    between atoms: S_3  and  C_4 
REMARK    3  A    between atoms: C_4  and  C_5 
REMARK    4  A    between atoms: C_8  and  C_9 
REMARK    5  A    between atoms: C_10  and  C_11 
REMARK    6  A    between atoms: C_23  and  N_24 
REMARK       I    between atoms: N_24  and  C_25 
REMARK    7  A    between atoms: C_25  and  C_26 
REMARK    8  A    between atoms: C_26  and  C_27 
ROOT
HETATM    1  C   UNL     1       7.746  32.668  61.038  1.00  0.00    -0.035 A 
HETATM    2  C   UNL     1       6.905  32.093  60.078  1.00  0.00     0.030 A 
HETATM    3  C   UNL     1       7.414  31.316  59.020  1.00  0.00     0.059 A 
HETATM    4  C   UNL     1       8.794  31.094  58.930  1.00  0.00     0.050 A 
HETATM    5  N   UNL     1       9.443  30.257  58.006  1.00  0.00    -0.324 N 
HETATM    6  C   UNL     1       8.978  29.099  57.436  1.00  0.00     0.245 C 
HETATM    7  O   UNL     1       9.798  28.372  56.870  1.00  0.00    -0.271 OA
HETATM    8  C   UNL     1       7.543  28.666  57.725  1.00  0.00     0.182 C 
HETATM    9  N   UNL     1       6.603  29.708  57.340  1.00  0.00    -0.332 N 
HETATM   10  C   UNL     1       6.420  30.896  57.999  1.00  0.00     0.256 C 
HETATM   11  O   UNL     1       5.451  31.622  57.786  1.00  0.00    -0.267 OA
HETATM   12  C   UNL     1       7.119  27.426  56.924  1.00  0.00     0.061 C 
HETATM   13  C   UNL     1       5.650  27.703  56.591  1.00  0.00     0.105 C 
HETATM   14  C   UNL     1       5.634  29.216  56.374  1.00  0.00     0.152 C 
HETATM   15  C   UNL     1       9.640  31.733  59.851  1.00  0.00     0.031 A 
HETATM   16  C   UNL     1       9.122  32.494  60.905  1.00  0.00     0.013 A 
HETATM   17  H   UNL     1      10.448  30.336  57.910  1.00  0.00     0.169 HD
ENDROOT
BRANCH   1  18
HETATM   18  C   UNL     1       7.208  33.348  62.223  1.00  0.00     0.012 C 
HETATM   19  C   UNL     1       6.708  32.697  63.286  1.00  0.00     0.012 C 
BRANCH  19  20
HETATM   20  C   UNL     1       6.316  33.348  64.543  1.00  0.00    -0.036 A 
HETATM   21  C   UNL     1       4.957  33.461  64.856  1.00  0.00     0.012 A 
HETATM   22  C   UNL     1       4.552  33.937  66.106  1.00  0.00     0.009 A 
HETATM   23  C   UNL     1       5.501  34.296  67.075  1.00  0.00    -0.049 A 
HETATM   24  C   UNL     1       6.861  34.198  66.755  1.00  0.00     0.009 A 
HETATM   25  C   UNL     1       7.263  33.728  65.502  1.00  0.00     0.012 A 
BRANCH  23  26
HETATM   26  C   UNL     1       5.062  34.702  68.459  1.00  0.00     0.112 C 
BRANCH  26  27
HETATM   27  S   UNL     1       6.147  33.956  69.721  1.00  0.00    -0.165 SA
BRANCH  27  28
HETATM   28  C   UNL     1       6.977  35.459  70.306  1.00  0.00     0.069 C 
HETATM   29  C   UNL     1       6.811  35.580  71.811  1.00  0.00     0.016 C 
ENDBRANCH  27  28
ENDBRANCH  26  27
ENDBRANCH  23  26
ENDBRANCH  19  20
ENDBRANCH   1  18
BRANCH  13  30
HETATM   30  N   UNL     1       5.085  26.893  55.528  1.00  0.00    -0.355 N 
HETATM   31  C   UNL     1       5.674  26.700  54.300  1.00  0.00     0.222 C 
HETATM   32  O   UNL     1       6.762  27.199  54.011  1.00  0.00    -0.273 OA
HETATM   33  H   UNL     1       4.139  26.553  55.663  1.00  0.00     0.162 HD
BRANCH  31  34
HETATM   34  C   UNL     1       4.920  25.873  53.265  1.00  0.00     0.148 C 
BRANCH  34  35
HETATM   35  C   UNL     1       4.791  26.519  51.916  1.00  0.00    -0.009 A 
HETATM   36  S   UNL     1       4.236  28.137  51.787  1.00  0.00    -0.106 SA
HETATM   37  C   UNL     1       4.383  28.119  50.085  1.00  0.00     0.050 A 
HETATM   38  C   UNL     1       4.850  26.910  49.620  1.00  0.00     0.008 A 
HETATM   39  C   UNL     1       5.086  25.985  50.678  1.00  0.00     0.015 A 
ENDBRANCH  34  35
ENDBRANCH  31  34
ENDBRANCH  13  30
TORSDOF 8
ENDMDL
MODEL 4
REMARK VINA RESULT:      -9.7      2.725     12.802
REMARK  8 active torsions:
REMARK  status: ('A' for Active; 'I' for Inactive)
REMARK    1  A    between atoms: C_2  and  S_3 
REMARK    2  A    between atoms: S_3  and  C_4 
REMARK    3  A    between atoms: C_4  and  C_5 
REMARK    4  A    between atoms: C_8  and  C_9 
REMARK    5  A    between atoms: C_10  and  C_11 
REMARK    6  A    between atoms: C_23  and  N_24 
REMARK       I    between atoms: N_24  and  C_25 
REMARK    7  A    between atoms: C_25  and  C_26 
REMARK    8  A    between atoms: C_26  and  C_27 
ROOT
HETATM    1  C   UNL     1       5.500  29.271  55.253  1.00  0.00    -0.035 A 
HETATM    2  C   UNL     1       6.193  29.654  56.408  1.00  0.00     0.030 A 
HETATM    3  C   UNL     1       5.994  30.914  57.004  1.00  0.00     0.059 A 
HETATM    4  C   UNL     1       5.070  31.804  56.443  1.00  0.00     0.050 A 
HETATM    5  N   UNL     1       4.679  33.044  56.979  1.00  0.00    -0.324 N 
HETATM    6  C   UNL     1       4.594  33.411  58.298  1.00  0.00     0.245 C 
HETATM    7  O   UNL     1       3.971  34.441  58.564  1.00  0.00    -0.271 OA
HETATM    8  C   UNL     1       5.062  32.423  59.364  1.00  0.00     0.182 C 
HETATM    9  N   UNL     1       6.451  32.048  59.142  1.00  0.00    -0.332 N 
HETATM   10  C   UNL     1       6.903  31.236  58.134  1.00  0.00     0.256 C 
HETATM   11  O   UNL     1       8.032  30.751  58.140  1.00  0.00    -0.267 OA
HETATM   12  C   UNL     1       5.027  33.013  60.782  1.00  0.00     0.061 C 
HETATM   13  C   UNL     1       6.264  32.406  61.450  1.00  0.00     0.105 C 
HETATM   14  C   UNL     1       7.273  32.351  60.303  1.00  0.00     0.152 C 
HETATM   15  C   UNL     1       4.433  31.447  55.244  1.00  0.00     0.031 A 
HETATM   16  C   UNL     1       4.629  30.187  54.666  1.00  0.00     0.013 A 
HETATM   17  H   UNL     1       4.163  33.682  56.385  1.00  0.00     0.169 HD
ENDROOT
BRANCH   1  18
HETATM   18  C   UNL     1       5.592  27.906  54.719  1.00  0.00     0.012 C 
HETATM   19  C   UNL     1       6.724  27.380  54.226  1.00  0.00     0.012 C 
BRANCH  19  20
HETATM   20  C   UNL     1       6.879  25.971  53.839  1.00  0.00    -0.036 A 
HETATM   21  C   UNL     1       7.543  25.661  52.647  1.00  0.00     0.012 A 
HETATM   22  C   UNL     1       7.840  24.335  52.322  1.00  0.00     0.009 A 
HETATM   23  C   UNL     1       7.491  23.291  53.191  1.00  0.00    -0.049 A 
HETATM   24  C   UNL     1       6.813  23.600  54.377  1.00  0.00     0.009 A 
HETATM   25  C   UNL     1       6.511  24.927  54.697  1.00  0.00     0.012 A 
BRANCH  23  26
HETATM   26  C   UNL     1       7.913  21.875  52.892  1.00  0.00     0.112 C 
BRANCH  26  27
HETATM   27  S   UNL     1       9.287  21.370  53.980  1.00  0.00    -0.165 SA
BRANCH  27  28
HETATM   28  C   UNL     1       8.460  20.025  54.874  1.00  0.00     0.069 C 
HETATM   29  C   UNL     1       7.852  20.565  56.157  1.00  0.00     0.016 C 
ENDBRANCH  27  28
ENDBRANCH  26  27
ENDBRANCH  23  26
ENDBRANCH  19  20
ENDBRANCH   1  18
BRANCH  13  30
HETATM   30  N   UNL     1       6.705  33.063  62.666  1.00  0.00    -0.355 N 
HETATM   31  C   UNL     1       6.098  32.922  63.892  1.00  0.00     0.222 C 
HETATM   32  O   UNL     1       5.120  32.192  64.056  1.00  0.00    -0.273 OA
HETATM   33  H   UNL     1       7.432  33.765  62.571  1.00  0.00     0.162 HD
BRANCH  31  34
HETATM   34  C   UNL     1       6.645  33.733  65.061  1.00  0.00     0.148 C 
BRANCH  34  35
HETATM   35  C   UNL     1       5.604  34.454  65.867  1.00  0.00    -0.009 A 
HETATM   36  S   UNL     1       4.618  35.648  65.127  1.00  0.00    -0.106 SA
HETATM   37  C   UNL     1       3.770  35.940  66.581  1.00  0.00     0.050 A 
HETATM   38  C   UNL     1       4.220  35.145  67.610  1.00  0.00     0.008 A 
HETATM   39  C   UNL     1       5.280  34.285  67.198  1.00  0.00     0.015 A 
ENDBRANCH  34  35
ENDBRANCH  31  34
ENDBRANCH  13  30
TORSDOF 8
ENDMDL
MODEL 5
REMARK VINA RESULT:      -9.4      4.214      5.296
REMARK  8 active torsions:
REMARK  status: ('A' for Active; 'I' for Inactive)
REMARK    1  A    between atoms: C_2  and  S_3 
REMARK    2  A    between atoms: S_3  and  C_4 
REMARK    3  A    between atoms: C_4  and  C_5 
REMARK    4  A    between atoms: C_8  and  C_9 
REMARK    5  A    between atoms: C_10  and  C_11 
REMARK    6  A    between atoms: C_23  and  N_24 
REMARK       I    between atoms: N_24  and  C_25 
REMARK    7  A    between atoms: C_25  and  C_26 
REMARK    8  A    between atoms: C_26  and  C_27 
ROOT
HETATM    1  C   UNL     1       7.890  30.309  58.630  1.00  0.00    -0.035 A 
HETATM    2  C   UNL     1       6.826  30.491  57.738  1.00  0.00     0.030 A 
HETATM    3  C   UNL     1       6.871  29.989  56.423  1.00  0.00     0.059 A 
HETATM    4  C   UNL     1       7.997  29.274  55.996  1.00  0.00     0.050 A 
HETATM    5  N   UNL     1       8.146  28.618  54.762  1.00  0.00    -0.324 N 
HETATM    6  C   UNL     1       7.180  28.020  53.995  1.00  0.00     0.245 C 
HETATM    7  O   UNL     1       7.552  27.265  53.093  1.00  0.00    -0.271 OA
HETATM    8  C   UNL     1       5.722  28.134  54.435  1.00  0.00     0.182 C 
HETATM    9  N   UNL     1       5.329  29.529  54.559  1.00  0.00    -0.332 N 
HETATM   10  C   UNL     1       5.737  30.385  55.549  1.00  0.00     0.256 C 
HETATM   11  O   UNL     1       5.186  31.465  55.751  1.00  0.00    -0.267 OA
HETATM   12  C   UNL     1       4.742  27.528  53.420  1.00  0.00     0.061 C 
HETATM   13  C   UNL     1       3.537  28.471  53.483  1.00  0.00     0.105 C 
HETATM   14  C   UNL     1       4.188  29.835  53.710  1.00  0.00     0.152 C 
HETATM   15  C   UNL     1       9.091  29.158  56.869  1.00  0.00     0.031 A 
HETATM   16  C   UNL     1       9.032  29.651  58.177  1.00  0.00     0.013 A 
HETATM   17  H   UNL     1       9.073  28.312  54.491  1.00  0.00     0.169 HD
ENDROOT
BRANCH   1  18
HETATM   18  C   UNL     1       7.783  30.698  60.042  1.00  0.00     0.012 C 
HETATM   19  C   UNL     1       7.363  31.907  60.447  1.00  0.00     0.012 C 
BRANCH  19  20
HETATM   20  C   UNL     1       7.094  32.262  61.847  1.00  0.00    -0.036 A 
HETATM   21  C   UNL     1       8.171  32.487  62.711  1.00  0.00     0.012 A 
HETATM   22  C   UNL     1       7.956  32.971  64.004  1.00  0.00     0.009 A 
HETATM   23  C   UNL     1       6.658  33.252  64.455  1.00  0.00    -0.049 A 
HETATM   24  C   UNL     1       5.579  33.011  63.595  1.00  0.00     0.009 A 
HETATM   25  C   UNL     1       5.796  32.522  62.304  1.00  0.00     0.012 A 
BRANCH  23  26
HETATM   26  C   UNL     1       6.439  33.879  65.808  1.00  0.00     0.112 C 
BRANCH  26  27
HETATM   27  S   UNL     1       4.659  34.096  66.136  1.00  0.00    -0.165 SA
BRANCH  27  28
HETATM   28  C   UNL     1       4.699  34.072  67.950  1.00  0.00     0.069 C 
HETATM   29  C   UNL     1       6.085  34.462  68.434  1.00  0.00     0.016 C 
ENDBRANCH  27  28
ENDBRANCH  26  27
ENDBRANCH  23  26
ENDBRANCH  19  20
ENDBRANCH   1  18
BRANCH  13  30
HETATM   30  N   UNL     1       2.608  28.377  52.373  1.00  0.00    -0.355 N 
HETATM   31  C   UNL     1       2.784  28.997  51.157  1.00  0.00     0.222 C 
HETATM   32  O   UNL     1       3.777  29.679  50.909  1.00  0.00    -0.273 OA
HETATM   33  H   UNL     1       1.717  27.926  52.555  1.00  0.00     0.162 HD
BRANCH  31  34
HETATM   34  C   UNL     1       1.682  28.853  50.112  1.00  0.00     0.148 C 
BRANCH  34  35
HETATM   35  C   UNL     1       2.011  27.932  48.974  1.00  0.00    -0.009 A 
HETATM   36  S   UNL     1       0.861  27.653  47.732  1.00  0.00    -0.106 SA
HETATM   37  C   UNL     1       1.922  26.607  46.897  1.00  0.00     0.050 A 
HETATM   38  C   UNL     1       3.129  26.472  47.543  1.00  0.00     0.008 A 
HETATM   39  C   UNL     1       3.183  27.238  48.744  1.00  0.00     0.015 A 
ENDBRANCH  34  35
ENDBRANCH  31  34
ENDBRANCH  13  30
TORSDOF 8
ENDMDL
MODEL 6
REMARK VINA RESULT:      -9.2      3.948     13.067
REMARK  8 active torsions:
REMARK  status: ('A' for Active; 'I' for Inactive)
REMARK    1  A    between atoms: C_2  and  S_3 
REMARK    2  A    between atoms: S_3  and  C_4 
REMARK    3  A    between atoms: C_4  and  C_5 
REMARK    4  A    between atoms: C_8  and  C_9 
REMARK    5  A    between atoms: C_10  and  C_11 
REMARK    6  A    between atoms: C_23  and  N_24 
REMARK       I    between atoms: N_24  and  C_25 
REMARK    7  A    between atoms: C_25  and  C_26 
REMARK    8  A    between atoms: C_26  and  C_27 
ROOT
HETATM    1  C   UNL     1       5.476  32.150  59.143  1.00  0.00    -0.035 A 
HETATM    2  C   UNL     1       6.105  32.313  60.383  1.00  0.00     0.030 A 
HETATM    3  C   UNL     1       5.803  33.398  61.228  1.00  0.00     0.059 A 
HETATM    4  C   UNL     1       4.837  34.332  60.831  1.00  0.00     0.050 A 
HETATM    5  N   UNL     1       4.346  35.400  61.603  1.00  0.00    -0.324 N 
HETATM    6  C   UNL     1       4.195  35.464  62.965  1.00  0.00     0.245 C 
HETATM    7  O   UNL     1       3.495  36.372  63.419  1.00  0.00    -0.271 OA
HETATM    8  C   UNL     1       4.698  34.298  63.813  1.00  0.00     0.182 C 
HETATM    9  N   UNL     1       6.115  34.064  63.578  1.00  0.00    -0.332 N 
HETATM   10  C   UNL     1       6.653  33.521  62.440  1.00  0.00     0.256 C 
HETATM   11  O   UNL     1       7.812  33.115  62.391  1.00  0.00    -0.267 OA
HETATM   12  C   UNL     1       4.579  34.561  65.321  1.00  0.00     0.061 C 
HETATM   13  C   UNL     1       5.834  33.899  65.898  1.00  0.00     0.105 C 
HETATM   14  C   UNL     1       6.878  34.156  64.812  1.00  0.00     0.152 C 
HETATM   15  C   UNL     1       4.263  34.207  59.555  1.00  0.00     0.031 A 
HETATM   16  C   UNL     1       4.563  33.118  58.729  1.00  0.00     0.013 A 
HETATM   17  H   UNL     1       3.806  36.119  61.138  1.00  0.00     0.169 HD
ENDROOT
BRANCH   1  18
HETATM   18  C   UNL     1       5.678  30.942  58.332  1.00  0.00     0.012 C 
HETATM   19  C   UNL     1       6.865  30.590  57.813  1.00  0.00     0.012 C 
BRANCH  19  20
HETATM   20  C   UNL     1       7.124  29.310  57.140  1.00  0.00    -0.036 A 
HETATM   21  C   UNL     1       7.706  28.265  57.864  1.00  0.00     0.012 A 
HETATM   22  C   UNL     1       7.829  26.991  57.302  1.00  0.00     0.009 A 
HETATM   23  C   UNL     1       7.358  26.734  56.007  1.00  0.00    -0.049 A 
HETATM   24  C   UNL     1       6.790  27.785  55.275  1.00  0.00     0.009 A 
HETATM   25  C   UNL     1       6.673  29.059  55.837  1.00  0.00     0.012 A 
BRANCH  23  26
HETATM   26  C   UNL     1       7.389  25.335  55.447  1.00  0.00     0.112 C 
BRANCH  26  27
HETATM   27  S   UNL     1       6.033  25.089  54.253  1.00  0.00    -0.165 SA
BRANCH  27  28
HETATM   28  C   UNL     1       6.950  24.208  52.958  1.00  0.00     0.069 C 
HETATM   29  C   UNL     1       7.974  25.141  52.334  1.00  0.00     0.016 C 
ENDBRANCH  27  28
ENDBRANCH  26  27
ENDBRANCH  23  26
ENDBRANCH  19  20
ENDBRANCH   1  18
BRANCH  13  30
HETATM   30  N   UNL     1       6.192  34.301  67.245  1.00  0.00    -0.355 N 
HETATM   31  C   UNL     1       5.372  34.166  68.342  1.00  0.00     0.222 C 
HETATM   32  O   UNL     1       4.251  33.663  68.262  1.00  0.00    -0.273 OA
HETATM   33  H   UNL     1       7.053  34.826  67.354  1.00  0.00     0.162 HD
BRANCH  31  34
HETATM   34  C   UNL     1       5.871  34.698  69.681  1.00  0.00     0.148 C 
BRANCH  34  35
HETATM   35  C   UNL     1       6.561  33.682  70.543  1.00  0.00    -0.009 A 
HETATM   36  S   UNL     1       5.879  32.121  70.748  1.00  0.00    -0.106 SA
HETATM   37  C   UNL     1       7.164  31.622  71.757  1.00  0.00     0.050 A 
HETATM   38  C   UNL     1       8.098  32.617  71.934  1.00  0.00     0.008 A 
HETATM   39  C   UNL     1       7.751  33.808  71.232  1.00  0.00     0.015 A 
ENDBRANCH  34  35
ENDBRANCH  31  34
ENDBRANCH  13  30
TORSDOF 8
ENDMDL
MODEL 7
REMARK VINA RESULT:      -9.1      3.578     12.939
REMARK  8 active torsions:
REMARK  status: ('A' for Active; 'I' for Inactive)
REMARK    1  A    between atoms: C_2  and  S_3 
REMARK    2  A    between atoms: S_3  and  C_4 
REMARK    3  A    between atoms: C_4  and  C_5 
REMARK    4  A    between atoms: C_8  and  C_9 
REMARK    5  A    between atoms: C_10  and  C_11 
REMARK    6  A    between atoms: C_23  and  N_24 
REMARK       I    between atoms: N_24  and  C_25 
REMARK    7  A    between atoms: C_25  and  C_26 
REMARK    8  A    between atoms: C_26  and  C_27 
ROOT
HETATM    1  C   UNL     1       6.239  31.296  58.196  1.00  0.00    -0.035 A 
HETATM    2  C   UNL     1       6.546  31.764  59.480  1.00  0.00     0.030 A 
HETATM    3  C   UNL     1       5.813  32.804  60.082  1.00  0.00     0.059 A 
HETATM    4  C   UNL     1       4.738  33.378  59.393  1.00  0.00     0.050 A 
HETATM    5  N   UNL     1       3.846  34.341  59.898  1.00  0.00    -0.324 N 
HETATM    6  C   UNL     1       3.417  34.507  61.190  1.00  0.00     0.245 C 
HETATM    7  O   UNL     1       2.432  35.224  61.376  1.00  0.00    -0.271 OA
HETATM    8  C   UNL     1       4.026  33.630  62.281  1.00  0.00     0.182 C 
HETATM    9  N   UNL     1       5.473  33.782  62.316  1.00  0.00    -0.332 N 
HETATM   10  C   UNL     1       6.347  33.292  61.380  1.00  0.00     0.256 C 
HETATM   11  O   UNL     1       7.557  33.228  61.583  1.00  0.00    -0.267 OA
HETATM   12  C   UNL     1       3.548  34.010  63.690  1.00  0.00     0.061 C 
HETATM   13  C   UNL     1       4.791  33.796  64.558  1.00  0.00     0.105 C 
HETATM   14  C   UNL     1       5.927  34.219  63.627  1.00  0.00     0.152 C 
HETATM   15  C   UNL     1       4.480  32.958  58.078  1.00  0.00     0.031 A 
HETATM   16  C   UNL     1       5.207  31.915  57.493  1.00  0.00     0.013 A 
HETATM   17  H   UNL     1       3.241  34.823  59.244  1.00  0.00     0.169 HD
ENDROOT
BRANCH   1  18
HETATM   18  C   UNL     1       6.901  30.114  57.630  1.00  0.00     0.012 C 
HETATM   19  C   UNL     1       6.312  28.911  57.537  1.00  0.00     0.012 C 
BRANCH  19  20
HETATM   20  C   UNL     1       6.893  27.760  56.831  1.00  0.00    -0.036 A 
HETATM   21  C   UNL     1       7.326  26.655  57.570  1.00  0.00     0.012 A 
HETATM   22  C   UNL     1       7.743  25.487  56.925  1.00  0.00     0.009 A 
HETATM   23  C   UNL     1       7.721  25.397  55.526  1.00  0.00    -0.049 A 
HETATM   24  C   UNL     1       7.301  26.509  54.786  1.00  0.00     0.009 A 
HETATM   25  C   UNL     1       6.891  27.679  55.433  1.00  0.00     0.012 A 
BRANCH  23  26
HETATM   26  C   UNL     1       8.063  24.099  54.840  1.00  0.00     0.112 C 
BRANCH  26  27
HETATM   27  S   UNL     1       8.587  22.846  56.057  1.00  0.00    -0.165 SA
BRANCH  27  28
HETATM   28  C   UNL     1       8.655  21.400  54.964  1.00  0.00     0.069 C 
HETATM   29  C   UNL     1       8.548  20.130  55.792  1.00  0.00     0.016 C 
ENDBRANCH  27  28
ENDBRANCH  26  27
ENDBRANCH  23  26
ENDBRANCH  19  20
ENDBRANCH   1  18
BRANCH  13  30
HETATM   30  N   UNL     1       4.760  34.427  65.864  1.00  0.00    -0.355 N 
HETATM   31  C   UNL     1       5.791  34.382  66.775  1.00  0.00     0.222 C 
HETATM   32  O   UNL     1       6.850  33.804  66.534  1.00  0.00    -0.273 OA
HETATM   33  H   UNL     1       3.873  34.818  66.165  1.00  0.00     0.162 HD
BRANCH  31  34
HETATM   34  C   UNL     1       5.577  35.042  68.133  1.00  0.00     0.148 C 
BRANCH  34  35
HETATM   35  C   UNL     1       6.600  34.686  69.172  1.00  0.00    -0.009 A 
HETATM   36  S   UNL     1       6.308  33.392  70.260  1.00  0.00    -0.106 SA
HETATM   37  C   UNL     1       7.818  33.612  71.027  1.00  0.00     0.050 A 
HETATM   38  C   UNL     1       8.536  34.644  70.468  1.00  0.00     0.008 A 
HETATM   39  C   UNL     1       7.833  35.266  69.395  1.00  0.00     0.015 A 
ENDBRANCH  34  35
ENDBRANCH  31  34
ENDBRANCH  13  30
TORSDOF 8
ENDMDL
MODEL 8
REMARK VINA RESULT:      -8.8      3.431      4.911
REMARK  8 active torsions:
REMARK  status: ('A' for Active; 'I' for Inactive)
REMARK    1  A    between atoms: C_2  and  S_3 
REMARK    2  A    between atoms: S_3  and  C_4 
REMARK    3  A    between atoms: C_4  and  C_5 
REMARK    4  A    between atoms: C_8  and  C_9 
REMARK    5  A    between atoms: C_10  and  C_11 
REMARK    6  A    between atoms: C_23  and  N_24 
REMARK       I    between atoms: N_24  and  C_25 
REMARK    7  A    between atoms: C_25  and  C_26 
REMARK    8  A    between atoms: C_26  and  C_27 
ROOT
HETATM    1  C   UNL     1       3.644  31.695  56.849  1.00  0.00    -0.035 A 
HETATM    2  C   UNL     1       4.218  30.418  56.845  1.00  0.00     0.030 A 
HETATM    3  C   UNL     1       4.232  29.619  55.686  1.00  0.00     0.059 A 
HETATM    4  C   UNL     1       3.674  30.113  54.501  1.00  0.00     0.050 A 
HETATM    5  N   UNL     1       3.709  29.489  53.242  1.00  0.00    -0.324 N 
HETATM    6  C   UNL     1       4.682  28.671  52.725  1.00  0.00     0.245 C 
HETATM    7  O   UNL     1       4.658  28.452  51.512  1.00  0.00    -0.271 OA
HETATM    8  C   UNL     1       5.853  28.273  53.620  1.00  0.00     0.182 C 
HETATM    9  N   UNL     1       5.378  27.615  54.828  1.00  0.00    -0.332 N 
HETATM   10  C   UNL     1       4.740  28.235  55.871  1.00  0.00     0.256 C 
HETATM   11  O   UNL     1       4.588  27.691  56.963  1.00  0.00    -0.267 OA
HETATM   12  C   UNL     1       6.795  27.258  52.954  1.00  0.00     0.061 C 
HETATM   13  C   UNL     1       7.216  26.351  54.113  1.00  0.00     0.105 C 
HETATM   14  C   UNL     1       5.949  26.285  54.966  1.00  0.00     0.152 C 
HETATM   15  C   UNL     1       3.034  31.363  54.528  1.00  0.00     0.031 A 
HETATM   16  C   UNL     1       3.036  32.155  55.682  1.00  0.00     0.013 A 
HETATM   17  H   UNL     1       3.101  29.844  52.514  1.00  0.00     0.169 HD
ENDROOT
BRANCH   1  18
HETATM   18  C   UNL     1       3.763  32.588  58.010  1.00  0.00     0.012 C 
HETATM   19  C   UNL     1       3.634  32.171  59.279  1.00  0.00     0.012 C 
BRANCH  19  20
HETATM   20  C   UNL     1       3.909  33.008  60.455  1.00  0.00    -0.036 A 
HETATM   21  C   UNL     1       3.686  32.484  61.732  1.00  0.00     0.012 A 
HETATM   22  C   UNL     1       4.076  33.193  62.871  1.00  0.00     0.009 A 
HETATM   23  C   UNL     1       4.711  34.438  62.754  1.00  0.00    -0.049 A 
HETATM   24  C   UNL     1       4.920  34.971  61.476  1.00  0.00     0.009 A 
HETATM   25  C   UNL     1       4.523  34.262  60.338  1.00  0.00     0.012 A 
BRANCH  23  26
HETATM   26  C   UNL     1       5.231  35.147  63.978  1.00  0.00     0.112 C 
BRANCH  26  27
HETATM   27  S   UNL     1       5.427  33.978  65.364  1.00  0.00    -0.165 SA
BRANCH  27  28
HETATM   28  C   UNL     1       7.234  33.809  65.339  1.00  0.00     0.069 C 
HETATM   29  C   UNL     1       7.649  32.957  64.153  1.00  0.00     0.016 C 
ENDBRANCH  27  28
ENDBRANCH  26  27
ENDBRANCH  23  26
ENDBRANCH  19  20
ENDBRANCH   1  18
BRANCH  13  30
HETATM   30  N   UNL     1       7.803  25.079  53.733  1.00  0.00    -0.355 N 
HETATM   31  C   UNL     1       7.123  24.069  53.092  1.00  0.00     0.222 C 
HETATM   32  O   UNL     1       5.941  24.180  52.769  1.00  0.00    -0.273 OA
HETATM   33  H   UNL     1       8.738  24.884  54.074  1.00  0.00     0.162 HD
BRANCH  31  34
HETATM   34  C   UNL     1       7.865  22.766  52.818  1.00  0.00     0.148 C 
BRANCH  34  35
HETATM   35  C   UNL     1       8.022  21.870  54.012  1.00  0.00    -0.009 A 
HETATM   36  S   UNL     1       8.724  20.314  53.834  1.00  0.00    -0.106 SA
HETATM   37  C   UNL     1       8.567  19.982  55.502  1.00  0.00     0.050 A 
HETATM   38  C   UNL     1       7.998  21.031  56.186  1.00  0.00     0.008 A 
HETATM   39  C   UNL     1       7.682  22.123  55.326  1.00  0.00     0.015 A 
ENDBRANCH  34  35
ENDBRANCH  31  34
ENDBRANCH  13  30
TORSDOF 8
ENDMDL
MODEL 9
REMARK VINA RESULT:      -8.8      2.836      3.873
REMARK  8 active torsions:
REMARK  status: ('A' for Active; 'I' for Inactive)
REMARK    1  A    between atoms: C_2  and  S_3 
REMARK    2  A    between atoms: S_3  and  C_4 
REMARK    3  A    between atoms: C_4  and  C_5 
REMARK    4  A    between atoms: C_8  and  C_9 
REMARK    5  A    between atoms: C_10  and  C_11 
REMARK    6  A    between atoms: C_23  and  N_24 
REMARK       I    between atoms: N_24  and  C_25 
REMARK    7  A    between atoms: C_25  and  C_26 
REMARK    8  A    between atoms: C_26  and  C_27 
ROOT
HETATM    1  C   UNL     1       3.947  34.108  61.779  1.00  0.00    -0.035 A 
HETATM    2  C   UNL     1       3.837  32.910  61.064  1.00  0.00     0.030 A 
HETATM    3  C   UNL     1       3.851  32.886  59.656  1.00  0.00     0.059 A 
HETATM    4  C   UNL     1       3.996  34.085  58.948  1.00  0.00     0.050 A 
HETATM    5  N   UNL     1       4.140  34.216  57.556  1.00  0.00    -0.324 N 
HETATM    6  C   UNL     1       4.735  33.347  56.678  1.00  0.00     0.245 C 
HETATM    7  O   UNL     1       5.002  33.769  55.550  1.00  0.00    -0.271 OA
HETATM    8  C   UNL     1       5.236  32.004  57.204  1.00  0.00     0.182 C 
HETATM    9  N   UNL     1       4.154  31.261  57.831  1.00  0.00    -0.332 N 
HETATM   10  C   UNL     1       3.577  31.563  59.038  1.00  0.00     0.256 C 
HETATM   11  O   UNL     1       2.851  30.771  59.635  1.00  0.00    -0.267 OA
HETATM   12  C   UNL     1       5.763  31.085  56.092  1.00  0.00     0.061 C 
HETATM   13  C   UNL     1       5.323  29.690  56.545  1.00  0.00     0.105 C 
HETATM   14  C   UNL     1       3.971  29.961  57.204  1.00  0.00     0.152 C 
HETATM   15  C   UNL     1       4.031  35.291  59.666  1.00  0.00     0.031 A 
HETATM   16  C   UNL     1       4.028  35.303  61.066  1.00  0.00     0.013 A 
HETATM   17  H   UNL     1       4.033  35.136  57.147  1.00  0.00     0.169 HD
ENDROOT
BRANCH   1  18
HETATM   18  C   UNL     1       4.085  34.121  63.241  1.00  0.00     0.012 C 
HETATM   19  C   UNL     1       5.168  33.657  63.885  1.00  0.00     0.012 C 
BRANCH  19  20
HETATM   20  C   UNL     1       5.398  33.807  65.329  1.00  0.00    -0.036 A 
HETATM   21  C   UNL     1       6.710  33.883  65.806  1.00  0.00     0.012 A 
HETATM   22  C   UNL     1       6.964  34.175  67.148  1.00  0.00     0.009 A 
HETATM   23  C   UNL     1       5.907  34.411  68.040  1.00  0.00    -0.049 A 
HETATM   24  C   UNL     1       4.592  34.318  67.566  1.00  0.00     0.009 A 
HETATM   25  C   UNL     1       4.341  34.020  66.223  1.00  0.00     0.012 A 
BRANCH  23  26
HETATM   26  C   UNL     1       6.186  34.836  69.459  1.00  0.00     0.112 C 
BRANCH  26  27
HETATM   27  S   UNL     1       7.982  34.945  69.756  1.00  0.00    -0.165 SA
BRANCH  27  28
HETATM   28  C   UNL     1       8.103  33.817  71.173  1.00  0.00     0.069 C 
HETATM   29  C   UNL     1       7.100  32.688  71.013  1.00  0.00     0.016 C 
ENDBRANCH  27  28
ENDBRANCH  26  27
ENDBRANCH  23  26
ENDBRANCH  19  20
ENDBRANCH   1  18
BRANCH  13  30
HETATM   30  N   UNL     1       5.346  28.662  55.522  1.00  0.00    -0.355 N 
HETATM   31  C   UNL     1       6.481  28.007  55.102  1.00  0.00     0.222 C 
HETATM   32  O   UNL     1       7.587  28.238  55.590  1.00  0.00    -0.273 OA
HETATM   33  H   UNL     1       4.488  28.510  55.003  1.00  0.00     0.162 HD
BRANCH  31  34
HETATM   34  C   UNL     1       6.348  26.996  53.968  1.00  0.00     0.148 C 
BRANCH  34  35
HETATM   35  C   UNL     1       6.843  25.617  54.295  1.00  0.00    -0.009 A 
HETATM   36  S   UNL     1       6.346  24.845  55.745  1.00  0.00    -0.106 SA
HETATM   37  C   UNL     1       7.250  23.442  55.383  1.00  0.00     0.050 A 
HETATM   38  C   UNL     1       7.914  23.550  54.182  1.00  0.00     0.008 A 
HETATM   39  C   UNL     1       7.679  24.807  53.552  1.00  0.00     0.015 A 
ENDBRANCH  34  35
ENDBRANCH  31  34
ENDBRANCH  13  30
TORSDOF 8
ENDMDL
MODEL 10
REMARK VINA RESULT:      -8.8      6.009     13.503
REMARK  8 active torsions:
REMARK  status: ('A' for Active; 'I' for Inactive)
REMARK    1  A    between atoms: C_2  and  S_3 
REMARK    2  A    between atoms: S_3  and  C_4 
REMARK    3  A    between atoms: C_4  and  C_5 
REMARK    4  A    between atoms: C_8  and  C_9 
REMARK    5  A    between atoms: C_10  and  C_11 
REMARK    6  A    between atoms: C_23  and  N_24 
REMARK       I    between atoms: N_24  and  C_25 
REMARK    7  A    between atoms: C_25  and  C_26 
REMARK    8  A    between atoms: C_26  and  C_27 
ROOT
HETATM    1  C   UNL     1       4.927  26.549  51.624  1.00  0.00    -0.035 A 
HETATM    2  C   UNL     1       4.977  27.345  52.775  1.00  0.00     0.030 A 
HETATM    3  C   UNL     1       5.384  26.824  54.018  1.00  0.00     0.059 A 
HETATM    4  C   UNL     1       5.767  25.480  54.109  1.00  0.00     0.050 A 
HETATM    5  N   UNL     1       6.300  24.842  55.243  1.00  0.00    -0.324 N 
HETATM    6  C   UNL     1       7.083  25.381  56.231  1.00  0.00     0.245 C 
HETATM    7  O   UNL     1       7.672  24.600  56.982  1.00  0.00    -0.271 OA
HETATM    8  C   UNL     1       7.366  26.882  56.204  1.00  0.00     0.182 C 
HETATM    9  N   UNL     1       6.124  27.640  56.220  1.00  0.00    -0.332 N 
HETATM   10  C   UNL     1       5.244  27.746  55.174  1.00  0.00     0.256 C 
HETATM   11  O   UNL     1       4.351  28.590  55.151  1.00  0.00    -0.267 OA
HETATM   12  C   UNL     1       8.148  27.365  57.434  1.00  0.00     0.061 C 
HETATM   13  C   UNL     1       7.546  28.744  57.719  1.00  0.00     0.105 C 
HETATM   14  C   UNL     1       6.075  28.551  57.352  1.00  0.00     0.152 C 
HETATM   15  C   UNL     1       5.645  24.666  52.971  1.00  0.00     0.031 A 
HETATM   16  C   UNL     1       5.250  25.198  51.738  1.00  0.00     0.013 A 
HETATM   17  H   UNL     1       6.346  23.831  55.247  1.00  0.00     0.169 HD
ENDROOT
BRANCH   1  18
HETATM   18  C   UNL     1       4.651  27.125  50.302  1.00  0.00     0.012 C 
HETATM   19  C   UNL     1       3.859  28.192  50.112  1.00  0.00     0.012 C 
BRANCH  19  20
HETATM   20  C   UNL     1       3.699  28.881  48.824  1.00  0.00    -0.036 A 
HETATM   21  C   UNL     1       2.481  28.779  48.144  1.00  0.00     0.012 A 
HETATM   22  C   UNL     1       2.241  29.540  46.996  1.00  0.00     0.009 A 
HETATM   23  C   UNL     1       3.211  30.429  46.513  1.00  0.00    -0.049 A 
HETATM   24  C   UNL     1       4.437  30.519  47.185  1.00  0.00     0.009 A 
HETATM   25  C   UNL     1       4.677  29.753  48.329  1.00  0.00     0.012 A 
BRANCH  23  26
HETATM   26  C   UNL     1       2.907  31.329  45.343  1.00  0.00     0.112 C 
BRANCH  26  27
HETATM   27  S   UNL     1       4.444  32.015  44.642  1.00  0.00    -0.165 SA
BRANCH  27  28
HETATM   28  C   UNL     1       4.175  33.767  45.026  1.00  0.00     0.069 C 
HETATM   29  C   UNL     1       4.884  34.119  46.323  1.00  0.00     0.016 C 
ENDBRANCH  27  28
ENDBRANCH  26  27
ENDBRANCH  23  26
ENDBRANCH  19  20
ENDBRANCH   1  18
BRANCH  13  30
HETATM   30  N   UNL     1       7.816  29.286  59.037  1.00  0.00    -0.355 N 
HETATM   31  C   UNL     1       8.681  30.326  59.289  1.00  0.00     0.222 C 
HETATM   32  O   UNL     1       9.291  30.901  58.389  1.00  0.00    -0.273 OA
HETATM   33  H   UNL     1       7.433  28.781  59.829  1.00  0.00     0.162 HD
BRANCH  31  34
HETATM   34  C   UNL     1       8.905  30.737  60.741  1.00  0.00     0.148 C 
BRANCH  34  35
HETATM   35  C   UNL     1       7.950  31.774  61.255  1.00  0.00    -0.009 A 
HETATM   36  S   UNL     1       6.671  32.336  60.258  1.00  0.00    -0.106 SA
HETATM   37  C   UNL     1       6.095  33.383  61.479  1.00  0.00     0.050 A 
HETATM   38  C   UNL     1       6.853  33.307  62.625  1.00  0.00     0.008 A 
HETATM   39  C   UNL     1       7.925  32.377  62.496  1.00  0.00     0.015 A 
ENDBRANCH  34  35
ENDBRANCH  31  34
ENDBRANCH  13  30
TORSDOF 8
ENDMDL
