MODEL 1
REMARK VINA RESULT:      -9.7      0.000      0.000
REMARK  8 active torsions:
REMARK  status: ('A' for Active; 'I' for Inactive)
REMARK    1  A    between atoms: O_2  and  C_3 
REMARK    2  A    between atoms: C_5  and  C_6 
REMARK    3  A    between atoms: C_6  and  N_7 
REMARK    4  A    between atoms: C_16  and  C_17 
REMARK    5  A    between atoms: C_17  and  N_18 
REMARK    6  A    between atoms: C_22  and  O_23 
REMARK    7  A    between atoms: C_22  and  C_24 
REMARK    8  A    between atoms: C_34  and  O_35 
ROOT
HETATM    1  N   UNL     1       8.165  29.302  56.699  1.00  0.00    -0.061 N 
HETATM    2  H   UNL     1       7.543  29.091  55.912  1.00  0.00     0.280 HD
HETATM    3  C   UNL     1       7.664  30.618  57.246  1.00  0.00     0.276 C 
HETATM    4  C   UNL     1       8.270  31.039  58.551  1.00  0.00     0.002 A 
HETATM    5  C   UNL     1       9.633  31.315  58.625  1.00  0.00     0.076 A 
HETATM    6  O   UNL     1      10.417  31.258  57.507  1.00  0.00    -0.349 OA
HETATM    7  C   UNL     1      10.633  29.908  57.074  1.00  0.00     0.203 C 
HETATM    8  C   UNL     1       9.556  29.439  56.081  1.00  0.00     0.262 C 
HETATM    9  C   UNL     1       7.485  31.175  59.712  1.00  0.00     0.020 A 
HETATM   10  C   UNL     1       8.057  31.562  60.938  1.00  0.00    -0.032 A 
HETATM   11  C   UNL     1       9.432  31.834  60.976  1.00  0.00     0.011 A 
HETATM   12  C   UNL     1      10.212  31.731  59.820  1.00  0.00     0.038 A 
ENDROOT
BRANCH  10  13
HETATM   13  C   UNL     1       7.206  31.672  62.182  1.00  0.00     0.273 C 
BRANCH  13  14
HETATM   14  N   UNL     1       6.102  32.715  62.157  1.00  0.00    -0.067 N 
HETATM   15  H   UNL     1       5.840  32.785  61.164  1.00  0.00     0.280 HD
HETATM   16  C   UNL     1       4.853  32.277  62.879  1.00  0.00     0.238 C 
HETATM   17  C   UNL     1       3.750  33.308  62.682  1.00  0.00     0.071 C 
HETATM   18  C   UNL     1       4.168  34.724  63.133  1.00  0.00     0.089 C 
HETATM   19  C   UNL     1       5.440  35.088  62.337  1.00  0.00     0.071 C 
HETATM   20  C   UNL     1       6.560  34.090  62.573  1.00  0.00     0.238 C 
BRANCH  18  21
HETATM   21  O   UNL     1       3.144  35.607  62.669  1.00  0.00    -0.385 OA
HETATM   22  H   UNL     1       2.535  35.831  63.399  1.00  0.00     0.211 HD
ENDBRANCH  18  21
BRANCH  18  23
HETATM   23  C   UNL     1       4.327  34.927  64.635  1.00  0.00    -0.006 A 
HETATM   24  C   UNL     1       4.329  33.878  65.554  1.00  0.00     0.126 A 
HETATM   25  N   UNL     1       4.532  34.016  66.882  1.00  0.00    -0.272 NA
HETATM   26  C   UNL     1       4.661  35.267  67.361  1.00  0.00     0.116 A 
HETATM   27  C   UNL     1       4.615  36.390  66.558  1.00  0.00     0.020 A 
HETATM   28  C   UNL     1       4.444  36.214  65.186  1.00  0.00     0.013 A 
ENDBRANCH  18  23
ENDBRANCH  13  14
ENDBRANCH  10  13
BRANCH   1  29
HETATM   29  C   UNL     1       8.060  28.084  57.613  1.00  0.00     0.276 C 
BRANCH  29  30
HETATM   30  C   UNL     1       7.634  26.783  56.979  1.00  0.00     0.004 A 
HETATM   31  C   UNL     1       8.269  25.577  57.316  1.00  0.00     0.048 A 
HETATM   32  C   UNL     1       7.911  24.373  56.702  1.00  0.00     0.069 A 
HETATM   33  C   UNL     1       6.866  24.358  55.785  1.00  0.00     0.039 A 
HETATM   34  C   UNL     1       6.187  25.541  55.473  1.00  0.00     0.040 A 
HETATM   35  C   UNL     1       6.564  26.751  56.061  1.00  0.00     0.076 A 
BRANCH  32  36
HETATM   36  O   UNL     1       8.675  23.303  57.072  1.00  0.00    -0.356 OA
HETATM   37  C   UNL     1       8.338  22.039  56.508  1.00  0.00     0.210 C 
ENDBRANCH  32  36
BRANCH  35  38
HETATM   38  O   UNL     1       5.983  27.958  55.773  1.00  0.00    -0.355 OA
HETATM   39  C   UNL     1       4.646  28.168  56.222  1.00  0.00     0.210 C 
ENDBRANCH  35  38
ENDBRANCH  29  30
ENDBRANCH   1  29
TORSDOF 8
ENDMDL
MODEL 2
REMARK VINA RESULT:      -9.6      2.869     11.262
REMARK  8 active torsions:
REMARK  status: ('A' for Active; 'I' for Inactive)
REMARK    1  A    between atoms: O_2  and  C_3 
REMARK    2  A    between atoms: C_5  and  C_6 
REMARK    3  A    between atoms: C_6  and  N_7 
REMARK    4  A    between atoms: C_16  and  C_17 
REMARK    5  A    between atoms: C_17  and  N_18 
REMARK    6  A    between atoms: C_22  and  O_23 
REMARK    7  A    between atoms: C_22  and  C_24 
REMARK    8  A    between atoms: C_34  and  O_35 
ROOT
HETATM    1  N   UNL     1       5.903  32.922  59.753  1.00  0.00    -0.061 N 
HETATM    2  H   UNL     1       6.636  33.570  60.061  1.00  0.00     0.280 HD
HETATM    3  C   UNL     1       6.388  32.397  58.422  1.00  0.00     0.276 C 
HETATM    4  C   UNL     1       5.597  31.254  57.861  1.00  0.00     0.002 A 
HETATM    5  C   UNL     1       4.261  31.441  57.511  1.00  0.00     0.076 A 
HETATM    6  O   UNL     1       3.677  32.671  57.624  1.00  0.00    -0.349 OA
HETATM    7  C   UNL     1       3.452  33.032  58.993  1.00  0.00     0.203 C 
HETATM    8  C   UNL     1       4.650  33.783  59.600  1.00  0.00     0.262 C 
HETATM    9  C   UNL     1       6.179  29.987  57.665  1.00  0.00     0.020 A 
HETATM   10  C   UNL     1       5.432  28.913  57.146  1.00  0.00    -0.032 A 
HETATM   11  C   UNL     1       4.091  29.137  56.804  1.00  0.00     0.011 A 
HETATM   12  C   UNL     1       3.515  30.401  56.966  1.00  0.00     0.038 A 
ENDROOT
BRANCH  10  13
HETATM   13  C   UNL     1       6.064  27.551  56.973  1.00  0.00     0.273 C 
BRANCH  13  14
HETATM   14  N   UNL     1       6.124  27.008  55.556  1.00  0.00    -0.067 N 
HETATM   15  H   UNL     1       5.567  27.676  55.003  1.00  0.00     0.280 HD
HETATM   16  C   UNL     1       7.509  27.045  54.962  1.00  0.00     0.238 C 
HETATM   17  C   UNL     1       7.459  26.626  53.498  1.00  0.00     0.071 C 
HETATM   18  C   UNL     1       6.819  25.236  53.295  1.00  0.00     0.089 C 
HETATM   19  C   UNL     1       5.409  25.300  53.921  1.00  0.00     0.071 C 
HETATM   20  C   UNL     1       5.459  25.664  55.394  1.00  0.00     0.238 C 
BRANCH  18  21
HETATM   21  O   UNL     1       6.622  25.091  51.888  1.00  0.00    -0.385 OA
HETATM   22  H   UNL     1       5.936  24.419  51.710  1.00  0.00     0.211 HD
ENDBRANCH  18  21
BRANCH  18  23
HETATM   23  C   UNL     1       7.635  24.046  53.787  1.00  0.00    -0.006 A 
HETATM   24  C   UNL     1       8.360  24.055  54.977  1.00  0.00     0.126 A 
HETATM   25  N   UNL     1       9.040  22.999  55.474  1.00  0.00    -0.272 NA
HETATM   26  C   UNL     1       9.085  21.883  54.722  1.00  0.00     0.116 A 
HETATM   27  C   UNL     1       8.458  21.775  53.497  1.00  0.00     0.020 A 
HETATM   28  C   UNL     1       7.730  22.868  53.028  1.00  0.00     0.013 A 
ENDBRANCH  18  23
ENDBRANCH  13  14
ENDBRANCH  10  13
BRANCH   1  29
HETATM   29  C   UNL     1       5.773  31.915  60.891  1.00  0.00     0.276 C 
BRANCH  29  30
HETATM   30  C   UNL     1       6.162  32.383  62.272  1.00  0.00     0.004 A 
HETATM   31  C   UNL     1       5.184  32.645  63.245  1.00  0.00     0.048 A 
HETATM   32  C   UNL     1       5.532  33.120  64.513  1.00  0.00     0.069 A 
HETATM   33  C   UNL     1       6.875  33.280  64.838  1.00  0.00     0.039 A 
HETATM   34  C   UNL     1       7.866  32.977  63.898  1.00  0.00     0.040 A 
HETATM   35  C   UNL     1       7.521  32.531  62.620  1.00  0.00     0.076 A 
BRANCH  32  36
HETATM   36  O   UNL     1       4.467  33.407  65.318  1.00  0.00    -0.356 OA
HETATM   37  C   UNL     1       4.751  34.000  66.583  1.00  0.00     0.210 C 
ENDBRANCH  32  36
BRANCH  35  38
HETATM   38  O   UNL     1       8.427  32.260  61.630  1.00  0.00    -0.355 OA
HETATM   39  C   UNL     1       9.148  31.032  61.717  1.00  0.00     0.210 C 
ENDBRANCH  35  38
ENDBRANCH  29  30
ENDBRANCH   1  29
TORSDOF 8
ENDMDL
MODEL 3
REMARK VINA RESULT:      -9.3      1.797      3.247
REMARK  8 active torsions:
REMARK  status: ('A' for Active; 'I' for Inactive)
REMARK    1  A    between atoms: O_2  and  C_3 
REMARK    2  A    between atoms: C_5  and  C_6 
REMARK    3  A    between atoms: C_6  and  N_7 
REMARK    4  A    between atoms: C_16  and  C_17 
REMARK    5  A    between atoms: C_17  and  N_18 
REMARK    6  A    between atoms: C_22  and  O_23 
REMARK    7  A    between atoms: C_22  and  C_24 
REMARK    8  A    between atoms: C_34  and  O_35 
ROOT
HETATM    1  N   UNL     1       7.971  29.540  57.179  1.00  0.00    -0.061 N 
HETATM    2  H   UNL     1       7.336  29.332  56.401  1.00  0.00     0.280 HD
HETATM    3  C   UNL     1       7.449  30.829  57.770  1.00  0.00     0.276 C 
HETATM    4  C   UNL     1       8.075  31.234  59.071  1.00  0.00     0.002 A 
HETATM    5  C   UNL     1       9.432  31.544  59.121  1.00  0.00     0.076 A 
HETATM    6  O   UNL     1      10.191  31.535  57.984  1.00  0.00    -0.349 OA
HETATM    7  C   UNL     1      10.430  30.202  57.513  1.00  0.00     0.203 C 
HETATM    8  C   UNL     1       9.343  29.729  56.533  1.00  0.00     0.262 C 
HETATM    9  C   UNL     1       7.315  31.321  60.252  1.00  0.00     0.020 A 
HETATM   10  C   UNL     1       7.905  31.693  61.474  1.00  0.00    -0.032 A 
HETATM   11  C   UNL     1       9.273  32.000  61.487  1.00  0.00     0.011 A 
HETATM   12  C   UNL     1      10.028  31.946  60.312  1.00  0.00     0.038 A 
ENDROOT
BRANCH  10  13
HETATM   13  C   UNL     1       7.081  31.751  62.740  1.00  0.00     0.273 C 
BRANCH  13  14
HETATM   14  N   UNL     1       5.960  32.775  62.772  1.00  0.00    -0.067 N 
HETATM   15  H   UNL     1       5.833  32.984  63.773  1.00  0.00     0.280 HD
HETATM   16  C   UNL     1       6.332  34.086  62.126  1.00  0.00     0.238 C 
HETATM   17  C   UNL     1       5.215  35.101  62.329  1.00  0.00     0.071 C 
HETATM   18  C   UNL     1       3.852  34.604  61.802  1.00  0.00     0.089 C 
HETATM   19  C   UNL     1       3.553  33.273  62.524  1.00  0.00     0.071 C 
HETATM   20  C   UNL     1       4.639  32.240  62.279  1.00  0.00     0.238 C 
BRANCH  18  21
HETATM   21  O   UNL     1       2.879  35.538  62.275  1.00  0.00    -0.385 OA
HETATM   22  H   UNL     1       2.253  35.096  62.881  1.00  0.00     0.211 HD
ENDBRANCH  18  21
BRANCH  18  23
HETATM   23  C   UNL     1       3.718  34.503  60.287  1.00  0.00    -0.006 A 
HETATM   24  C   UNL     1       3.212  33.378  59.637  1.00  0.00     0.126 A 
HETATM   25  N   UNL     1       3.020  33.278  58.304  1.00  0.00    -0.272 NA
HETATM   26  C   UNL     1       3.424  34.313  57.542  1.00  0.00     0.116 A 
HETATM   27  C   UNL     1       3.996  35.455  58.066  1.00  0.00     0.020 A 
HETATM   28  C   UNL     1       4.145  35.546  59.449  1.00  0.00     0.013 A 
ENDBRANCH  18  23
ENDBRANCH  13  14
ENDBRANCH  10  13
BRANCH   1  29
HETATM   29  C   UNL     1       7.919  28.299  58.064  1.00  0.00     0.276 C 
BRANCH  29  30
HETATM   30  C   UNL     1       7.429  27.021  57.429  1.00  0.00     0.004 A 
HETATM   31  C   UNL     1       8.278  25.910  57.301  1.00  0.00     0.048 A 
HETATM   32  C   UNL     1       7.848  24.736  56.675  1.00  0.00     0.069 A 
HETATM   33  C   UNL     1       6.536  24.645  56.223  1.00  0.00     0.039 A 
HETATM   34  C   UNL     1       5.659  25.724  56.386  1.00  0.00     0.040 A 
HETATM   35  C   UNL     1       6.096  26.909  56.983  1.00  0.00     0.076 A 
BRANCH  32  36
HETATM   36  O   UNL     1       8.811  23.777  56.552  1.00  0.00    -0.356 OA
HETATM   37  C   UNL     1       8.900  23.102  55.300  1.00  0.00     0.210 C 
ENDBRANCH  32  36
BRANCH  35  38
HETATM   38  O   UNL     1       5.316  28.024  57.135  1.00  0.00    -0.355 OA
HETATM   39  C   UNL     1       4.454  28.377  56.054  1.00  0.00     0.210 C 
ENDBRANCH  35  38
ENDBRANCH  29  30
ENDBRANCH   1  29
TORSDOF 8
ENDMDL
MODEL 4
REMARK VINA RESULT:      -9.3      5.389     10.937
REMARK  8 active torsions:
REMARK  status: ('A' for Active; 'I' for Inactive)
REMARK    1  A    between atoms: O_2  and  C_3 
REMARK    2  A    between atoms: C_5  and  C_6 
REMARK    3  A    between atoms: C_6  and  N_7 
REMARK    4  A    between atoms: C_16  and  C_17 
REMARK    5  A    between atoms: C_17  and  N_18 
REMARK    6  A    between atoms: C_22  and  O_23 
REMARK    7  A    between atoms: C_22  and  C_24 
REMARK    8  A    between atoms: C_34  and  O_35 
ROOT
HETATM    1  N   UNL     1       7.278  26.002  57.362  1.00  0.00    -0.061 N 
HETATM    2  H   UNL     1       6.908  26.391  58.236  1.00  0.00     0.280 HD
HETATM    3  C   UNL     1       6.130  25.214  56.774  1.00  0.00     0.276 C 
HETATM    4  C   UNL     1       6.342  24.726  55.373  1.00  0.00     0.002 A 
HETATM    5  C   UNL     1       7.353  23.806  55.105  1.00  0.00     0.076 A 
HETATM    6  O   UNL     1       8.122  23.302  56.116  1.00  0.00    -0.349 OA
HETATM    7  C   UNL     1       9.037  24.280  56.630  1.00  0.00     0.203 C 
HETATM    8  C   UNL     1       8.429  25.092  57.786  1.00  0.00     0.262 C 
HETATM    9  C   UNL     1       5.529  25.168  54.312  1.00  0.00     0.020 A 
HETATM   10  C   UNL     1       5.735  24.715  52.997  1.00  0.00    -0.032 A 
HETATM   11  C   UNL     1       6.761  23.788  52.764  1.00  0.00     0.011 A 
HETATM   12  C   UNL     1       7.552  23.320  53.817  1.00  0.00     0.038 A 
ENDROOT
BRANCH  10  13
HETATM   13  C   UNL     1       4.873  25.225  51.864  1.00  0.00     0.273 C 
BRANCH  13  14
HETATM   14  N   UNL     1       5.305  26.530  51.219  1.00  0.00    -0.067 N 
HETATM   15  H   UNL     1       6.329  26.453  51.148  1.00  0.00     0.280 HD
HETATM   16  C   UNL     1       4.809  26.688  49.804  1.00  0.00     0.238 C 
HETATM   17  C   UNL     1       5.404  27.945  49.182  1.00  0.00     0.071 C 
HETATM   18  C   UNL     1       5.109  29.217  50.004  1.00  0.00     0.089 C 
HETATM   19  C   UNL     1       5.659  28.966  51.425  1.00  0.00     0.071 C 
HETATM   20  C   UNL     1       5.028  27.745  52.069  1.00  0.00     0.238 C 
BRANCH  18  21
HETATM   21  O   UNL     1       5.920  30.250  49.442  1.00  0.00    -0.385 OA
HETATM   22  H   UNL     1       5.571  31.127  49.692  1.00  0.00     0.211 HD
ENDBRANCH  18  21
BRANCH  18  23
HETATM   23  C   UNL     1       3.661  29.693  50.002  1.00  0.00    -0.006 A 
HETATM   24  C   UNL     1       3.173  30.662  50.878  1.00  0.00     0.126 A 
HETATM   25  N   UNL     1       1.915  31.153  50.862  1.00  0.00    -0.272 NA
HETATM   26  C   UNL     1       1.049  30.606  49.987  1.00  0.00     0.116 A 
HETATM   27  C   UNL     1       1.399  29.597  49.112  1.00  0.00     0.020 A 
HETATM   28  C   UNL     1       2.716  29.138  49.125  1.00  0.00     0.013 A 
ENDBRANCH  18  23
ENDBRANCH  13  14
ENDBRANCH  10  13
BRANCH   1  29
HETATM   29  C   UNL     1       7.764  27.214  56.573  1.00  0.00     0.276 C 
BRANCH  29  30
HETATM   30  C   UNL     1       6.909  28.456  56.624  1.00  0.00     0.004 A 
HETATM   31  C   UNL     1       5.962  28.719  55.620  1.00  0.00     0.048 A 
HETATM   32  C   UNL     1       5.196  29.888  55.634  1.00  0.00     0.069 A 
HETATM   33  C   UNL     1       5.329  30.779  56.694  1.00  0.00     0.039 A 
HETATM   34  C   UNL     1       6.230  30.509  57.730  1.00  0.00     0.040 A 
HETATM   35  C   UNL     1       7.020  29.358  57.702  1.00  0.00     0.076 A 
BRANCH  32  36
HETATM   36  O   UNL     1       4.383  30.042  54.548  1.00  0.00    -0.356 OA
HETATM   37  C   UNL     1       3.313  30.976  54.665  1.00  0.00     0.210 C 
ENDBRANCH  32  36
BRANCH  35  38
HETATM   38  O   UNL     1       7.958  29.047  58.650  1.00  0.00    -0.355 OA
HETATM   39  C   UNL     1       8.507  30.123  59.410  1.00  0.00     0.210 C 
ENDBRANCH  35  38
ENDBRANCH  29  30
ENDBRANCH   1  29
TORSDOF 8
ENDMDL
MODEL 5
REMARK VINA RESULT:      -9.3      4.929     10.798
REMARK  8 active torsions:
REMARK  status: ('A' for Active; 'I' for Inactive)
REMARK    1  A    between atoms: O_2  and  C_3 
REMARK    2  A    between atoms: C_5  and  C_6 
REMARK    3  A    between atoms: C_6  and  N_7 
REMARK    4  A    between atoms: C_16  and  C_17 
REMARK    5  A    between atoms: C_17  and  N_18 
REMARK    6  A    between atoms: C_22  and  O_23 
REMARK    7  A    between atoms: C_22  and  C_24 
REMARK    8  A    between atoms: C_34  and  O_35 
ROOT
HETATM    1  N   UNL     1       7.351  25.817  57.382  1.00  0.00    -0.061 N 
HETATM    2  H   UNL     1       6.993  26.178  58.273  1.00  0.00     0.280 HD
HETATM    3  C   UNL     1       6.185  25.081  56.766  1.00  0.00     0.276 C 
HETATM    4  C   UNL     1       6.383  24.645  55.345  1.00  0.00     0.002 A 
HETATM    5  C   UNL     1       7.372  23.714  55.037  1.00  0.00     0.076 A 
HETATM    6  O   UNL     1       8.131  23.151  56.025  1.00  0.00    -0.349 OA
HETATM    7  C   UNL     1       9.069  24.086  56.576  1.00  0.00     0.203 C 
HETATM    8  C   UNL     1       8.483  24.864  57.766  1.00  0.00     0.262 C 
HETATM    9  C   UNL     1       5.579  25.150  54.306  1.00  0.00     0.020 A 
HETATM   10  C   UNL     1       5.772  24.746  52.972  1.00  0.00    -0.032 A 
HETATM   11  C   UNL     1       6.775  23.806  52.699  1.00  0.00     0.011 A 
HETATM   12  C   UNL     1       7.558  23.277  53.730  1.00  0.00     0.038 A 
ENDROOT
BRANCH  10  13
HETATM   13  C   UNL     1       4.920  25.322  51.864  1.00  0.00     0.273 C 
BRANCH  13  14
HETATM   14  N   UNL     1       5.361  26.660  51.296  1.00  0.00    -0.067 N 
HETATM   15  H   UNL     1       6.389  26.600  51.272  1.00  0.00     0.280 HD
HETATM   16  C   UNL     1       4.932  26.871  49.866  1.00  0.00     0.238 C 
HETATM   17  C   UNL     1       5.535  28.161  49.327  1.00  0.00     0.071 C 
HETATM   18  C   UNL     1       5.181  29.393  50.187  1.00  0.00     0.089 C 
HETATM   19  C   UNL     1       5.667  29.089  51.621  1.00  0.00     0.071 C 
HETATM   20  C   UNL     1       5.025  27.833  52.182  1.00  0.00     0.238 C 
BRANCH  18  21
HETATM   21  O   UNL     1       6.001  30.461  49.709  1.00  0.00    -0.385 OA
HETATM   22  H   UNL     1       6.549  30.156  48.960  1.00  0.00     0.211 HD
ENDBRANCH  18  21
BRANCH  18  23
HETATM   23  C   UNL     1       3.727  29.848  50.135  1.00  0.00    -0.006 A 
HETATM   24  C   UNL     1       3.196  30.812  50.992  1.00  0.00     0.126 A 
HETATM   25  N   UNL     1       1.932  31.284  50.932  1.00  0.00    -0.272 NA
HETATM   26  C   UNL     1       1.105  30.724  50.029  1.00  0.00     0.116 A 
HETATM   27  C   UNL     1       1.498  29.719  49.168  1.00  0.00     0.020 A 
HETATM   28  C   UNL     1       2.820  29.279  49.227  1.00  0.00     0.013 A 
ENDBRANCH  18  23
ENDBRANCH  13  14
ENDBRANCH  10  13
BRANCH   1  29
HETATM   29  C   UNL     1       7.865  27.048  56.642  1.00  0.00     0.276 C 
BRANCH  29  30
HETATM   30  C   UNL     1       7.478  28.396  57.200  1.00  0.00     0.004 A 
HETATM   31  C   UNL     1       8.224  28.987  58.233  1.00  0.00     0.048 A 
HETATM   32  C   UNL     1       7.850  30.215  58.787  1.00  0.00     0.069 A 
HETATM   33  C   UNL     1       6.753  30.893  58.266  1.00  0.00     0.039 A 
HETATM   34  C   UNL     1       6.027  30.344  57.203  1.00  0.00     0.040 A 
HETATM   35  C   UNL     1       6.380  29.103  56.669  1.00  0.00     0.076 A 
BRANCH  32  36
HETATM   36  O   UNL     1       8.623  30.618  59.838  1.00  0.00    -0.356 OA
HETATM   37  C   UNL     1       9.062  31.974  59.839  1.00  0.00     0.210 C 
ENDBRANCH  32  36
BRANCH  35  38
HETATM   38  O   UNL     1       5.693  28.477  55.663  1.00  0.00    -0.355 OA
HETATM   39  C   UNL     1       4.283  28.333  55.821  1.00  0.00     0.210 C 
ENDBRANCH  35  38
ENDBRANCH  29  30
ENDBRANCH   1  29
TORSDOF 8
ENDMDL
MODEL 6
REMARK VINA RESULT:      -9.2      3.364      6.451
REMARK  8 active torsions:
REMARK  status: ('A' for Active; 'I' for Inactive)
REMARK    1  A    between atoms: O_2  and  C_3 
REMARK    2  A    between atoms: C_5  and  C_6 
REMARK    3  A    between atoms: C_6  and  N_7 
REMARK    4  A    between atoms: C_16  and  C_17 
REMARK    5  A    between atoms: C_17  and  N_18 
REMARK    6  A    between atoms: C_22  and  O_23 
REMARK    7  A    between atoms: C_22  and  C_24 
REMARK    8  A    between atoms: C_34  and  O_35 
ROOT
HETATM    1  N   UNL     1       5.814  24.722  52.514  1.00  0.00    -0.061 N 
HETATM    2  H   UNL     1       5.649  23.714  52.417  1.00  0.00     0.280 HD
HETATM    3  C   UNL     1       4.785  25.186  53.517  1.00  0.00     0.276 C 
HETATM    4  C   UNL     1       4.959  26.593  54.007  1.00  0.00     0.002 A 
HETATM    5  C   UNL     1       4.840  27.657  53.115  1.00  0.00     0.076 A 
HETATM    6  O   UNL     1       4.513  27.435  51.806  1.00  0.00    -0.349 OA
HETATM    7  C   UNL     1       5.597  26.841  51.078  1.00  0.00     0.203 C 
HETATM    8  C   UNL     1       5.553  25.304  51.125  1.00  0.00     0.262 C 
HETATM    9  C   UNL     1       5.230  26.869  55.360  1.00  0.00     0.020 A 
HETATM   10  C   UNL     1       5.402  28.189  55.815  1.00  0.00    -0.032 A 
HETATM   11  C   UNL     1       5.274  29.235  54.891  1.00  0.00     0.011 A 
HETATM   12  C   UNL     1       4.974  28.971  53.551  1.00  0.00     0.038 A 
ENDROOT
BRANCH  10  13
HETATM   13  C   UNL     1       5.724  28.466  57.266  1.00  0.00     0.273 C 
BRANCH  13  14
HETATM   14  N   UNL     1       6.726  29.575  57.537  1.00  0.00    -0.067 N 
HETATM   15  H   UNL     1       7.042  29.868  56.601  1.00  0.00     0.280 HD
HETATM   16  C   UNL     1       6.103  30.801  58.157  1.00  0.00     0.238 C 
HETATM   17  C   UNL     1       7.137  31.915  58.259  1.00  0.00     0.071 C 
HETATM   18  C   UNL     1       8.397  31.490  59.044  1.00  0.00     0.089 C 
HETATM   19  C   UNL     1       8.966  30.244  58.332  1.00  0.00     0.071 C 
HETATM   20  C   UNL     1       7.956  29.113  58.276  1.00  0.00     0.238 C 
BRANCH  18  21
HETATM   21  O   UNL     1       9.356  32.531  58.848  1.00  0.00    -0.385 OA
HETATM   22  H   UNL     1      10.134  32.188  58.366  1.00  0.00     0.211 HD
ENDBRANCH  18  21
BRANCH  18  23
HETATM   23  C   UNL     1       8.214  31.287  60.543  1.00  0.00    -0.006 A 
HETATM   24  C   UNL     1       9.056  30.489  61.316  1.00  0.00     0.126 A 
HETATM   25  N   UNL     1       8.962  30.338  62.655  1.00  0.00    -0.272 NA
HETATM   26  C   UNL     1       7.929  30.941  63.274  1.00  0.00     0.116 A 
HETATM   27  C   UNL     1       6.994  31.707  62.606  1.00  0.00     0.020 A 
HETATM   28  C   UNL     1       7.140  31.877  61.230  1.00  0.00     0.013 A 
ENDBRANCH  18  23
ENDBRANCH  13  14
ENDBRANCH  10  13
BRANCH   1  29
HETATM   29  C   UNL     1       7.280  24.838  52.918  1.00  0.00     0.276 C 
BRANCH  29  30
HETATM   30  C   UNL     1       7.718  24.074  54.144  1.00  0.00     0.004 A 
HETATM   31  C   UNL     1       8.028  24.747  55.338  1.00  0.00     0.048 A 
HETATM   32  C   UNL     1       8.475  24.053  56.465  1.00  0.00     0.069 A 
HETATM   33  C   UNL     1       8.559  22.665  56.425  1.00  0.00     0.039 A 
HETATM   34  C   UNL     1       8.207  21.973  55.261  1.00  0.00     0.040 A 
HETATM   35  C   UNL     1       7.789  22.666  54.123  1.00  0.00     0.076 A 
BRANCH  32  36
HETATM   36  O   UNL     1       8.817  24.851  57.519  1.00  0.00    -0.356 OA
HETATM   37  C   UNL     1       7.772  25.604  58.129  1.00  0.00     0.210 C 
ENDBRANCH  32  36
BRANCH  35  38
HETATM   38  O   UNL     1       7.473  22.067  52.932  1.00  0.00    -0.355 OA
HETATM   39  C   UNL     1       7.923  20.728  52.730  1.00  0.00     0.210 C 
ENDBRANCH  35  38
ENDBRANCH  29  30
ENDBRANCH   1  29
TORSDOF 8
ENDMDL
MODEL 7
REMARK VINA RESULT:      -9.2      3.433      6.292
REMARK  8 active torsions:
REMARK  status: ('A' for Active; 'I' for Inactive)
REMARK    1  A    between atoms: O_2  and  C_3 
REMARK    2  A    between atoms: C_5  and  C_6 
REMARK    3  A    between atoms: C_6  and  N_7 
REMARK    4  A    between atoms: C_16  and  C_17 
REMARK    5  A    between atoms: C_17  and  N_18 
REMARK    6  A    between atoms: C_22  and  O_23 
REMARK    7  A    between atoms: C_22  and  C_24 
REMARK    8  A    between atoms: C_34  and  O_35 
ROOT
HETATM    1  N   UNL     1       5.778  25.041  52.662  1.00  0.00    -0.061 N 
HETATM    2  H   UNL     1       5.696  24.022  52.586  1.00  0.00     0.280 HD
HETATM    3  C   UNL     1       4.705  25.442  53.647  1.00  0.00     0.276 C 
HETATM    4  C   UNL     1       4.761  26.868  54.107  1.00  0.00     0.002 A 
HETATM    5  C   UNL     1       4.567  27.900  53.191  1.00  0.00     0.076 A 
HETATM    6  O   UNL     1       4.272  27.626  51.885  1.00  0.00    -0.349 OA
HETATM    7  C   UNL     1       5.407  27.105  51.179  1.00  0.00     0.203 C 
HETATM    8  C   UNL     1       5.485  25.571  51.259  1.00  0.00     0.262 C 
HETATM    9  C   UNL     1       4.996  27.194  55.456  1.00  0.00     0.020 A 
HETATM   10  C   UNL     1       5.057  28.533  55.884  1.00  0.00    -0.032 A 
HETATM   11  C   UNL     1       4.855  29.546  54.936  1.00  0.00     0.011 A 
HETATM   12  C   UNL     1       4.591  29.230  53.600  1.00  0.00     0.038 A 
ENDROOT
BRANCH  10  13
HETATM   13  C   UNL     1       5.342  28.865  57.331  1.00  0.00     0.273 C 
BRANCH  13  14
HETATM   14  N   UNL     1       6.450  29.871  57.589  1.00  0.00    -0.067 N 
HETATM   15  H   UNL     1       6.745  30.172  56.649  1.00  0.00     0.280 HD
HETATM   16  C   UNL     1       5.971  31.119  58.286  1.00  0.00     0.238 C 
HETATM   17  C   UNL     1       7.105  32.133  58.374  1.00  0.00     0.071 C 
HETATM   18  C   UNL     1       8.359  31.568  59.075  1.00  0.00     0.089 C 
HETATM   19  C   UNL     1       8.779  30.307  58.288  1.00  0.00     0.071 C 
HETATM   20  C   UNL     1       7.669  29.272  58.245  1.00  0.00     0.238 C 
BRANCH  18  21
HETATM   21  O   UNL     1       9.397  32.528  58.866  1.00  0.00    -0.385 OA
HETATM   22  H   UNL     1       9.058  33.285  58.350  1.00  0.00     0.211 HD
ENDBRANCH  18  21
BRANCH  18  23
HETATM   23  C   UNL     1       8.233  31.320  60.573  1.00  0.00    -0.006 A 
HETATM   24  C   UNL     1       7.210  31.857  61.354  1.00  0.00     0.126 A 
HETATM   25  N   UNL     1       7.032  31.607  62.669  1.00  0.00    -0.272 NA
HETATM   26  C   UNL     1       7.957  30.848  63.286  1.00  0.00     0.116 A 
HETATM   27  C   UNL     1       9.048  30.311  62.631  1.00  0.00     0.020 A 
HETATM   28  C   UNL     1       9.185  30.553  61.265  1.00  0.00     0.013 A 
ENDBRANCH  18  23
ENDBRANCH  13  14
ENDBRANCH  10  13
BRANCH   1  29
HETATM   29  C   UNL     1       7.227  25.283  53.077  1.00  0.00     0.276 C 
BRANCH  29  30
HETATM   30  C   UNL     1       7.897  24.205  53.893  1.00  0.00     0.004 A 
HETATM   31  C   UNL     1       8.270  22.985  53.305  1.00  0.00     0.048 A 
HETATM   32  C   UNL     1       8.852  21.964  54.062  1.00  0.00     0.069 A 
HETATM   33  C   UNL     1       9.122  22.181  55.409  1.00  0.00     0.039 A 
HETATM   34  C   UNL     1       8.803  23.408  56.001  1.00  0.00     0.040 A 
HETATM   35  C   UNL     1       8.193  24.419  55.255  1.00  0.00     0.076 A 
BRANCH  32  36
HETATM   36  O   UNL     1       9.081  20.810  53.369  1.00  0.00    -0.356 OA
HETATM   37  C   UNL     1       8.025  20.329  52.542  1.00  0.00     0.210 C 
ENDBRANCH  32  36
BRANCH  35  38
HETATM   38  O   UNL     1       7.806  25.627  55.771  1.00  0.00    -0.355 OA
HETATM   39  C   UNL     1       7.883  25.793  57.186  1.00  0.00     0.210 C 
ENDBRANCH  35  38
ENDBRANCH  29  30
ENDBRANCH   1  29
TORSDOF 8
ENDMDL
MODEL 8
REMARK VINA RESULT:      -9.1      6.665     11.394
REMARK  8 active torsions:
REMARK  status: ('A' for Active; 'I' for Inactive)
REMARK    1  A    between atoms: O_2  and  C_3 
REMARK    2  A    between atoms: C_5  and  C_6 
REMARK    3  A    between atoms: C_6  and  N_7 
REMARK    4  A    between atoms: C_16  and  C_17 
REMARK    5  A    between atoms: C_17  and  N_18 
REMARK    6  A    between atoms: C_22  and  O_23 
REMARK    7  A    between atoms: C_22  and  C_24 
REMARK    8  A    between atoms: C_34  and  O_35 
ROOT
HETATM    1  N   UNL     1       7.791  26.722  55.440  1.00  0.00    -0.061 N 
HETATM    2  H   UNL     1       8.676  26.295  55.149  1.00  0.00     0.280 HD
HETATM    3  C   UNL     1       7.596  27.886  54.496  1.00  0.00     0.276 C 
HETATM    4  C   UNL     1       6.252  28.547  54.566  1.00  0.00     0.002 A 
HETATM    5  C   UNL     1       5.856  29.190  55.738  1.00  0.00     0.076 A 
HETATM    6  O   UNL     1       6.703  29.272  56.807  1.00  0.00    -0.349 OA
HETATM    7  C   UNL     1       6.861  28.005  57.461  1.00  0.00     0.203 C 
HETATM    8  C   UNL     1       8.027  27.191  56.875  1.00  0.00     0.262 C 
HETATM    9  C   UNL     1       5.376  28.544  53.465  1.00  0.00     0.020 A 
HETATM   10  C   UNL     1       4.111  29.157  53.536  1.00  0.00    -0.032 A 
HETATM   11  C   UNL     1       3.747  29.797  54.729  1.00  0.00     0.011 A 
HETATM   12  C   UNL     1       4.624  29.831  55.818  1.00  0.00     0.038 A 
ENDROOT
BRANCH  10  13
HETATM   13  C   UNL     1       3.170  29.117  52.354  1.00  0.00     0.273 C 
BRANCH  13  14
HETATM   14  N   UNL     1       3.805  29.225  50.979  1.00  0.00    -0.067 N 
HETATM   15  H   UNL     1       4.768  29.539  51.166  1.00  0.00     0.280 HD
HETATM   16  C   UNL     1       3.940  27.896  50.279  1.00  0.00     0.238 C 
HETATM   17  C   UNL     1       4.714  28.068  48.979  1.00  0.00     0.071 C 
HETATM   18  C   UNL     1       4.079  29.115  48.038  1.00  0.00     0.089 C 
HETATM   19  C   UNL     1       3.994  30.435  48.834  1.00  0.00     0.071 C 
HETATM   20  C   UNL     1       3.176  30.280  50.104  1.00  0.00     0.238 C 
BRANCH  18  21
HETATM   21  O   UNL     1       5.030  29.340  46.996  1.00  0.00    -0.385 OA
HETATM   22  H   UNL     1       4.983  30.267  46.691  1.00  0.00     0.211 HD
ENDBRANCH  18  21
BRANCH  18  23
HETATM   23  C   UNL     1       2.754  28.719  47.397  1.00  0.00    -0.006 A 
HETATM   24  C   UNL     1       2.351  27.396  47.227  1.00  0.00     0.126 A 
HETATM   25  N   UNL     1       1.159  27.011  46.722  1.00  0.00    -0.272 NA
HETATM   26  C   UNL     1       0.334  27.979  46.278  1.00  0.00     0.116 A 
HETATM   27  C   UNL     1       0.649  29.322  46.336  1.00  0.00     0.020 A 
HETATM   28  C   UNL     1       1.871  29.691  46.899  1.00  0.00     0.013 A 
ENDBRANCH  18  23
ENDBRANCH  13  14
ENDBRANCH  10  13
BRANCH   1  29
HETATM   29  C   UNL     1       6.771  25.590  55.366  1.00  0.00     0.276 C 
BRANCH  29  30
HETATM   30  C   UNL     1       7.222  24.299  54.727  1.00  0.00     0.004 A 
HETATM   31  C   UNL     1       7.272  23.108  55.470  1.00  0.00     0.048 A 
HETATM   32  C   UNL     1       7.729  21.917  54.899  1.00  0.00     0.069 A 
HETATM   33  C   UNL     1       8.085  21.896  53.555  1.00  0.00     0.039 A 
HETATM   34  C   UNL     1       7.994  23.061  52.785  1.00  0.00     0.040 A 
HETATM   35  C   UNL     1       7.568  24.260  53.361  1.00  0.00     0.076 A 
BRANCH  32  36
HETATM   36  O   UNL     1       7.799  20.866  55.769  1.00  0.00    -0.356 OA
HETATM   37  C   UNL     1       8.448  21.098  57.016  1.00  0.00     0.210 C 
ENDBRANCH  32  36
BRANCH  35  38
HETATM   38  O   UNL     1       7.498  25.452  52.689  1.00  0.00    -0.355 OA
HETATM   39  C   UNL     1       6.496  25.581  51.682  1.00  0.00     0.210 C 
ENDBRANCH  35  38
ENDBRANCH  29  30
ENDBRANCH   1  29
TORSDOF 8
ENDMDL
MODEL 9
REMARK VINA RESULT:      -9.1      3.010      5.770
REMARK  8 active torsions:
REMARK  status: ('A' for Active; 'I' for Inactive)
REMARK    1  A    between atoms: O_2  and  C_3 
REMARK    2  A    between atoms: C_5  and  C_6 
REMARK    3  A    between atoms: C_6  and  N_7 
REMARK    4  A    between atoms: C_16  and  C_17 
REMARK    5  A    between atoms: C_17  and  N_18 
REMARK    6  A    between atoms: C_22  and  O_23 
REMARK    7  A    between atoms: C_22  and  C_24 
REMARK    8  A    between atoms: C_34  and  O_35 
ROOT
HETATM    1  N   UNL     1       5.830  25.387  52.503  1.00  0.00    -0.061 N 
HETATM    2  H   UNL     1       5.799  24.365  52.421  1.00  0.00     0.280 HD
HETATM    3  C   UNL     1       4.689  25.734  53.430  1.00  0.00     0.276 C 
HETATM    4  C   UNL     1       4.655  27.160  53.894  1.00  0.00     0.002 A 
HETATM    5  C   UNL     1       4.461  28.185  52.970  1.00  0.00     0.076 A 
HETATM    6  O   UNL     1       4.248  27.902  51.650  1.00  0.00    -0.349 OA
HETATM    7  C   UNL     1       5.442  27.437  51.005  1.00  0.00     0.203 C 
HETATM    8  C   UNL     1       5.587  25.908  51.087  1.00  0.00     0.262 C 
HETATM    9  C   UNL     1       4.803  27.491  55.254  1.00  0.00     0.020 A 
HETATM   10  C   UNL     1       4.779  28.829  55.686  1.00  0.00    -0.032 A 
HETATM   11  C   UNL     1       4.580  29.835  54.730  1.00  0.00     0.011 A 
HETATM   12  C   UNL     1       4.402  29.513  53.381  1.00  0.00     0.038 A 
ENDROOT
BRANCH  10  13
HETATM   13  C   UNL     1       4.971  29.169  57.147  1.00  0.00     0.273 C 
BRANCH  13  14
HETATM   14  N   UNL     1       4.794  30.628  57.531  1.00  0.00    -0.067 N 
HETATM   15  H   UNL     1       4.575  31.101  56.643  1.00  0.00     0.280 HD
HETATM   16  C   UNL     1       3.602  30.868  58.424  1.00  0.00     0.238 C 
HETATM   17  C   UNL     1       3.408  32.363  58.641  1.00  0.00     0.071 C 
HETATM   18  C   UNL     1       4.664  33.052  59.216  1.00  0.00     0.089 C 
HETATM   19  C   UNL     1       5.820  32.762  58.234  1.00  0.00     0.071 C 
HETATM   20  C   UNL     1       6.052  31.272  58.057  1.00  0.00     0.238 C 
BRANCH  18  21
HETATM   21  O   UNL     1       4.418  34.457  59.135  1.00  0.00    -0.385 OA
HETATM   22  H   UNL     1       3.649  34.698  59.685  1.00  0.00     0.211 HD
ENDBRANCH  18  21
BRANCH  18  23
HETATM   23  C   UNL     1       5.011  32.712  60.661  1.00  0.00    -0.006 A 
HETATM   24  C   UNL     1       4.057  32.354  61.613  1.00  0.00     0.126 A 
HETATM   25  N   UNL     1       4.335  31.985  62.882  1.00  0.00    -0.272 NA
HETATM   26  C   UNL     1       5.621  32.046  63.276  1.00  0.00     0.116 A 
HETATM   27  C   UNL     1       6.647  32.445  62.442  1.00  0.00     0.020 A 
HETATM   28  C   UNL     1       6.334  32.782  61.126  1.00  0.00     0.013 A 
ENDBRANCH  18  23
ENDBRANCH  13  14
ENDBRANCH  10  13
BRANCH   1  29
HETATM   29  C   UNL     1       7.242  25.694  52.993  1.00  0.00     0.276 C 
BRANCH  29  30
HETATM   30  C   UNL     1       7.689  25.018  54.266  1.00  0.00     0.004 A 
HETATM   31  C   UNL     1       7.738  25.728  55.477  1.00  0.00     0.048 A 
HETATM   32  C   UNL     1       8.193  25.123  56.653  1.00  0.00     0.069 A 
HETATM   33  C   UNL     1       8.546  23.778  56.638  1.00  0.00     0.039 A 
HETATM   34  C   UNL     1       8.456  23.041  55.452  1.00  0.00     0.040 A 
HETATM   35  C   UNL     1       8.032  23.651  54.268  1.00  0.00     0.076 A 
BRANCH  32  36
HETATM   36  O   UNL     1       8.263  25.963  57.727  1.00  0.00    -0.356 OA
HETATM   37  C   UNL     1       8.154  27.360  57.468  1.00  0.00     0.210 C 
ENDBRANCH  32  36
BRANCH  35  38
HETATM   38  O   UNL     1       7.963  23.013  53.058  1.00  0.00    -0.355 OA
HETATM   39  C   UNL     1       7.940  21.586  53.068  1.00  0.00     0.210 C 
ENDBRANCH  35  38
ENDBRANCH  29  30
ENDBRANCH   1  29
TORSDOF 8
ENDMDL
MODEL 10
REMARK VINA RESULT:      -9.0      5.389     12.084
REMARK  8 active torsions:
REMARK  status: ('A' for Active; 'I' for Inactive)
REMARK    1  A    between atoms: O_2  and  C_3 
REMARK    2  A    between atoms: C_5  and  C_6 
REMARK    3  A    between atoms: C_6  and  N_7 
REMARK    4  A    between atoms: C_16  and  C_17 
REMARK    5  A    between atoms: C_17  and  N_18 
REMARK    6  A    between atoms: C_22  and  O_23 
REMARK    7  A    between atoms: C_22  and  C_24 
REMARK    8  A    between atoms: C_34  and  O_35 
ROOT
HETATM    1  N   UNL     1       7.514  25.684  57.356  1.00  0.00    -0.061 N 
HETATM    2  H   UNL     1       7.323  25.920  58.336  1.00  0.00     0.280 HD
HETATM    3  C   UNL     1       6.165  25.336  56.773  1.00  0.00     0.276 C 
HETATM    4  C   UNL     1       6.136  25.169  55.283  1.00  0.00     0.002 A 
HETATM    5  C   UNL     1       6.866  24.142  54.687  1.00  0.00     0.076 A 
HETATM    6  O   UNL     1       7.566  23.251  55.450  1.00  0.00    -0.349 OA
HETATM    7  C   UNL     1       8.732  23.849  56.035  1.00  0.00     0.203 C 
HETATM    8  C   UNL     1       8.438  24.468  57.412  1.00  0.00     0.262 C 
HETATM    9  C   UNL     1       5.375  26.024  54.465  1.00  0.00     0.020 A 
HETATM   10  C   UNL     1       5.356  25.871  53.067  1.00  0.00    -0.032 A 
HETATM   11  C   UNL     1       6.101  24.826  52.501  1.00  0.00     0.011 A 
HETATM   12  C   UNL     1       6.835  23.953  53.309  1.00  0.00     0.038 A 
ENDROOT
BRANCH  10  13
HETATM   13  C   UNL     1       4.558  26.817  52.200  1.00  0.00     0.273 C 
BRANCH  13  14
HETATM   14  N   UNL     1       5.054  27.016  50.779  1.00  0.00    -0.067 N 
HETATM   15  H   UNL     1       6.037  26.708  50.806  1.00  0.00     0.280 HD
HETATM   16  C   UNL     1       4.374  26.115  49.779  1.00  0.00     0.238 C 
HETATM   17  C   UNL     1       5.027  26.268  48.411  1.00  0.00     0.071 C 
HETATM   18  C   UNL     1       5.032  27.729  47.911  1.00  0.00     0.089 C 
HETATM   19  C   UNL     1       5.755  28.566  48.988  1.00  0.00     0.071 C 
HETATM   20  C   UNL     1       5.074  28.458  50.340  1.00  0.00     0.238 C 
BRANCH  18  21
HETATM   21  O   UNL     1       5.876  27.751  46.759  1.00  0.00    -0.385 OA
HETATM   22  H   UNL     1       6.812  27.662  47.024  1.00  0.00     0.211 HD
ENDBRANCH  18  21
BRANCH  18  23
HETATM   23  C   UNL     1       3.676  28.305  47.519  1.00  0.00    -0.006 A 
HETATM   24  C   UNL     1       2.552  27.518  47.271  1.00  0.00     0.126 A 
HETATM   25  N   UNL     1       1.323  27.997  46.985  1.00  0.00    -0.272 NA
HETATM   26  C   UNL     1       1.194  29.330  46.852  1.00  0.00     0.116 A 
HETATM   27  C   UNL     1       2.248  30.208  47.012  1.00  0.00     0.020 A 
HETATM   28  C   UNL     1       3.497  29.687  47.346  1.00  0.00     0.013 A 
ENDBRANCH  18  23
ENDBRANCH  13  14
ENDBRANCH  10  13
BRANCH   1  29
HETATM   29  C   UNL     1       8.218  26.914  56.791  1.00  0.00     0.276 C 
BRANCH  29  30
HETATM   30  C   UNL     1       7.710  28.263  57.238  1.00  0.00     0.004 A 
HETATM   31  C   UNL     1       6.333  28.510  57.354  1.00  0.00     0.048 A 
HETATM   32  C   UNL     1       5.851  29.769  57.725  1.00  0.00     0.069 A 
HETATM   33  C   UNL     1       6.752  30.779  58.043  1.00  0.00     0.039 A 
HETATM   34  C   UNL     1       8.129  30.537  57.982  1.00  0.00     0.040 A 
HETATM   35  C   UNL     1       8.614  29.290  57.582  1.00  0.00     0.076 A 
BRANCH  32  36
HETATM   36  O   UNL     1       4.490  29.877  57.711  1.00  0.00    -0.356 OA
HETATM   37  C   UNL     1       3.888  30.351  56.510  1.00  0.00     0.210 C 
ENDBRANCH  32  36
BRANCH  35  38
HETATM   38  O   UNL     1       9.943  28.988  57.450  1.00  0.00    -0.355 OA
HETATM   39  C   UNL     1      10.815  30.034  57.024  1.00  0.00     0.210 C 
ENDBRANCH  35  38
ENDBRANCH  29  30
ENDBRANCH   1  29
TORSDOF 8
ENDMDL
