MODEL 1
REMARK VINA RESULT:     -10.0      0.000      0.000
REMARK  8 active torsions:
REMARK  status: ('A' for Active; 'I' for Inactive)
REMARK    1  A    between atoms: C_2  and  C_3 
REMARK    2  A    between atoms: C_3  and  O_4 
REMARK    3  A    between atoms: O_4  and  C_5 
REMARK    4  A    between atoms: C_7  and  C_8 
REMARK    5  A    between atoms: N_9  and  C_10 
REMARK    6  A    between atoms: C_10  and  C_11 
REMARK    7  A    between atoms: C_24  and  C_25 
REMARK    8  A    between atoms: C_26  and  O_27 
ROOT
HETATM    1  C   UNL     1       7.176  27.384  54.461  1.00  0.00     0.159 A 
HETATM    2  N   UNL     1       7.147  27.493  55.946  1.00  0.00    -0.329 N 
HETATM    3  C   UNL     1       5.924  27.933  56.457  1.00  0.00     0.273 A 
HETATM    4  O   UNL     1       5.623  28.166  57.613  1.00  0.00    -0.266 OA
HETATM    5  C   UNL     1       5.118  28.077  55.305  1.00  0.00     0.129 A 
HETATM    6  C   UNL     1       5.786  27.789  54.150  1.00  0.00     0.034 A 
HETATM    7  N   UNL     1       3.865  28.425  54.985  1.00  0.00    -0.272 N 
HETATM    8  H   UNL     1       3.099  28.694  55.595  1.00  0.00     0.189 HD
HETATM    9  N   UNL     1       3.665  28.383  53.642  1.00  0.00    -0.173 NA
HETATM   10  C   UNL     1       4.868  28.031  53.112  1.00  0.00     0.101 A 
ENDROOT
BRANCH   1  11
HETATM   11  C   UNL     1       7.376  25.971  53.967  1.00  0.00    -0.028 A 
HETATM   12  C   UNL     1       7.221  24.851  54.806  1.00  0.00     0.046 A 
HETATM   13  C   UNL     1       7.421  23.550  54.335  1.00  0.00     0.069 A 
HETATM   14  C   UNL     1       7.776  23.352  53.003  1.00  0.00     0.037 A 
HETATM   15  C   UNL     1       7.941  24.449  52.156  1.00  0.00     0.003 A 
HETATM   16  C   UNL     1       7.750  25.748  52.634  1.00  0.00     0.010 A 
BRANCH  13  17
HETATM   17  O   UNL     1       7.237  22.574  55.276  1.00  0.00    -0.348 OA
BRANCH  17  18
HETATM   18  C   UNL     1       8.162  22.529  56.359  1.00  0.00     0.202 C 
BRANCH  18  19
HETATM   19  C   UNL     1       8.410  21.083  56.672  1.00  0.00    -0.011 C 
HETATM   20  C   UNL     1       8.479  20.104  55.761  1.00  0.00     0.009 C 
ENDBRANCH  18  19
ENDBRANCH  17  18
ENDBRANCH  13  17
ENDBRANCH   1  11
BRANCH   2  21
HETATM   21  C   UNL     1       8.333  27.331  56.756  1.00  0.00     0.167 C 
BRANCH  21  22
HETATM   22  C   UNL     1       9.005  28.644  57.038  1.00  0.00    -0.023 A 
HETATM   23  C   UNL     1       9.936  29.180  56.155  1.00  0.00     0.125 A 
HETATM   24  N   UNL     1      10.553  30.370  56.334  1.00  0.00    -0.273 NA
HETATM   25  C   UNL     1      10.237  31.056  57.454  1.00  0.00     0.116 A 
HETATM   26  C   UNL     1       9.329  30.610  58.399  1.00  0.00     0.020 A 
HETATM   27  C   UNL     1       8.704  29.387  58.184  1.00  0.00     0.012 A 
ENDBRANCH  21  22
ENDBRANCH   2  21
BRANCH  10  28
HETATM   28  C   UNL     1       5.042  27.934  51.659  1.00  0.00     0.028 A 
HETATM   29  C   UNL     1       5.514  29.023  50.903  1.00  0.00     0.078 A 
HETATM   30  C   UNL     1       5.655  28.938  49.519  1.00  0.00     0.037 A 
HETATM   31  C   UNL     1       5.344  27.750  48.862  1.00  0.00     0.003 A 
HETATM   32  C   UNL     1       4.903  26.649  49.592  1.00  0.00     0.001 A 
HETATM   33  C   UNL     1       4.757  26.739  50.982  1.00  0.00     0.017 A 
BRANCH  29  34
HETATM   34  O   UNL     1       5.870  30.217  51.475  1.00  0.00    -0.360 OA
HETATM   35  H   UNL     1       6.653  30.537  50.969  1.00  0.00     0.217 HD
ENDBRANCH  29  34
ENDBRANCH  10  28
TORSDOF 8
ENDMDL
MODEL 2
REMARK VINA RESULT:      -9.0      1.503      1.864
REMARK  8 active torsions:
REMARK  status: ('A' for Active; 'I' for Inactive)
REMARK    1  A    between atoms: C_2  and  C_3 
REMARK    2  A    between atoms: C_3  and  O_4 
REMARK    3  A    between atoms: O_4  and  C_5 
REMARK    4  A    between atoms: C_7  and  C_8 
REMARK    5  A    between atoms: N_9  and  C_10 
REMARK    6  A    between atoms: C_10  and  C_11 
REMARK    7  A    between atoms: C_24  and  C_25 
REMARK    8  A    between atoms: C_26  and  O_27 
ROOT
HETATM    1  C   UNL     1       6.492  28.273  54.725  1.00  0.00     0.159 A 
HETATM    2  N   UNL     1       6.286  28.460  56.188  1.00  0.00    -0.329 N 
HETATM    3  C   UNL     1       5.172  29.238  56.509  1.00  0.00     0.273 A 
HETATM    4  O   UNL     1       4.788  29.601  57.605  1.00  0.00    -0.266 OA
HETATM    5  C   UNL     1       4.606  29.538  55.249  1.00  0.00     0.129 A 
HETATM    6  C   UNL     1       5.323  29.024  54.208  1.00  0.00     0.034 A 
HETATM    7  N   UNL     1       3.554  30.195  54.744  1.00  0.00    -0.272 N 
HETATM    8  H   UNL     1       2.814  30.691  55.232  1.00  0.00     0.189 HD
HETATM    9  N   UNL     1       3.540  30.142  53.387  1.00  0.00    -0.173 NA
HETATM   10  C   UNL     1       4.662  29.453  53.043  1.00  0.00     0.101 A 
ENDROOT
BRANCH   1  11
HETATM   11  C   UNL     1       6.363  26.836  54.279  1.00  0.00    -0.028 A 
HETATM   12  C   UNL     1       7.476  25.981  54.166  1.00  0.00     0.046 A 
HETATM   13  C   UNL     1       7.341  24.656  53.740  1.00  0.00     0.069 A 
HETATM   14  C   UNL     1       6.076  24.164  53.427  1.00  0.00     0.037 A 
HETATM   15  C   UNL     1       4.960  24.998  53.526  1.00  0.00     0.003 A 
HETATM   16  C   UNL     1       5.102  26.323  53.942  1.00  0.00     0.010 A 
BRANCH  13  17
HETATM   17  O   UNL     1       8.517  23.960  53.678  1.00  0.00    -0.348 OA
BRANCH  17  18
HETATM   18  C   UNL     1       8.609  22.765  54.450  1.00  0.00     0.202 C 
BRANCH  18  19
HETATM   19  C   UNL     1       8.855  21.636  53.494  1.00  0.00    -0.011 C 
HETATM   20  C   UNL     1       7.930  20.752  53.098  1.00  0.00     0.009 C 
ENDBRANCH  18  19
ENDBRANCH  17  18
ENDBRANCH  13  17
ENDBRANCH   1  11
BRANCH   2  21
HETATM   21  C   UNL     1       7.257  28.023  57.167  1.00  0.00     0.167 C 
BRANCH  21  22
HETATM   22  C   UNL     1       8.367  29.020  57.341  1.00  0.00    -0.023 A 
HETATM   23  C   UNL     1       8.285  30.028  58.295  1.00  0.00     0.125 A 
HETATM   24  N   UNL     1       9.261  30.937  58.522  1.00  0.00    -0.273 NA
HETATM   25  C   UNL     1      10.368  30.846  57.753  1.00  0.00     0.116 A 
HETATM   26  C   UNL     1      10.547  29.885  56.774  1.00  0.00     0.020 A 
HETATM   27  C   UNL     1       9.531  28.959  56.568  1.00  0.00     0.012 A 
ENDBRANCH  21  22
ENDBRANCH   2  21
BRANCH  10  28
HETATM   28  C   UNL     1       5.004  29.240  51.634  1.00  0.00     0.028 A 
HETATM   29  C   UNL     1       5.407  30.306  50.808  1.00  0.00     0.078 A 
HETATM   30  C   UNL     1       5.707  30.108  49.461  1.00  0.00     0.037 A 
HETATM   31  C   UNL     1       5.628  28.829  48.915  1.00  0.00     0.003 A 
HETATM   32  C   UNL     1       5.259  27.753  49.719  1.00  0.00     0.001 A 
HETATM   33  C   UNL     1       4.953  27.957  51.070  1.00  0.00     0.017 A 
BRANCH  29  34
HETATM   34  O   UNL     1       5.539  31.589  51.275  1.00  0.00    -0.360 OA
HETATM   35  H   UNL     1       5.387  32.177  50.499  1.00  0.00     0.217 HD
ENDBRANCH  29  34
ENDBRANCH  10  28
TORSDOF 8
ENDMDL
MODEL 3
REMARK VINA RESULT:      -8.8      2.394      6.290
REMARK  8 active torsions:
REMARK  status: ('A' for Active; 'I' for Inactive)
REMARK    1  A    between atoms: C_2  and  C_3 
REMARK    2  A    between atoms: C_3  and  O_4 
REMARK    3  A    between atoms: O_4  and  C_5 
REMARK    4  A    between atoms: C_7  and  C_8 
REMARK    5  A    between atoms: N_9  and  C_10 
REMARK    6  A    between atoms: C_10  and  C_11 
REMARK    7  A    between atoms: C_24  and  C_25 
REMARK    8  A    between atoms: C_26  and  O_27 
ROOT
HETATM    1  C   UNL     1       5.905  25.368  55.882  1.00  0.00     0.159 A 
HETATM    2  N   UNL     1       5.875  26.586  56.738  1.00  0.00    -0.329 N 
HETATM    3  C   UNL     1       7.076  26.838  57.405  1.00  0.00     0.273 A 
HETATM    4  O   UNL     1       7.330  27.719  58.206  1.00  0.00    -0.266 OA
HETATM    5  C   UNL     1       7.926  25.802  56.955  1.00  0.00     0.129 A 
HETATM    6  C   UNL     1       7.306  24.939  56.101  1.00  0.00     0.034 A 
HETATM    7  N   UNL     1       9.190  25.391  57.118  1.00  0.00    -0.272 N 
HETATM    8  H   UNL     1       9.931  25.800  57.679  1.00  0.00     0.189 HD
HETATM    9  N   UNL     1       9.443  24.268  56.396  1.00  0.00    -0.173 NA
HETATM   10  C   UNL     1       8.263  23.954  55.796  1.00  0.00     0.101 A 
ENDROOT
BRANCH   1  11
HETATM   11  C   UNL     1       5.728  25.664  54.411  1.00  0.00    -0.028 A 
HETATM   12  C   UNL     1       6.134  26.883  53.835  1.00  0.00     0.046 A 
HETATM   13  C   UNL     1       5.953  27.146  52.473  1.00  0.00     0.069 A 
HETATM   14  C   UNL     1       5.363  26.178  51.663  1.00  0.00     0.037 A 
HETATM   15  C   UNL     1       4.947  24.965  52.217  1.00  0.00     0.003 A 
HETATM   16  C   UNL     1       5.122  24.712  53.579  1.00  0.00     0.010 A 
BRANCH  13  17
HETATM   17  O   UNL     1       6.395  28.376  52.071  1.00  0.00    -0.348 OA
BRANCH  17  18
HETATM   18  C   UNL     1       5.425  29.278  51.544  1.00  0.00     0.202 C 
BRANCH  18  19
HETATM   19  C   UNL     1       5.807  29.560  50.122  1.00  0.00    -0.011 C 
HETATM   20  C   UNL     1       5.462  28.803  49.072  1.00  0.00     0.009 C 
ENDBRANCH  18  19
ENDBRANCH  17  18
ENDBRANCH  13  17
ENDBRANCH   1  11
BRANCH   2  21
HETATM   21  C   UNL     1       4.658  27.325  56.988  1.00  0.00     0.167 C 
BRANCH  21  22
HETATM   22  C   UNL     1       4.754  28.744  56.505  1.00  0.00    -0.023 A 
HETATM   23  C   UNL     1       5.286  29.744  57.311  1.00  0.00     0.125 A 
HETATM   24  N   UNL     1       5.428  31.033  56.926  1.00  0.00    -0.273 NA
HETATM   25  C   UNL     1       5.009  31.345  55.681  1.00  0.00     0.116 A 
HETATM   26  C   UNL     1       4.461  30.427  54.801  1.00  0.00     0.020 A 
HETATM   27  C   UNL     1       4.334  29.108  55.222  1.00  0.00     0.012 A 
ENDBRANCH  21  22
ENDBRANCH   2  21
BRANCH  10  28
HETATM   28  C   UNL     1       8.147  22.754  54.962  1.00  0.00     0.028 A 
HETATM   29  C   UNL     1       8.181  21.464  55.526  1.00  0.00     0.078 A 
HETATM   30  C   UNL     1       8.097  20.323  54.730  1.00  0.00     0.037 A 
HETATM   31  C   UNL     1       7.955  20.448  53.350  1.00  0.00     0.003 A 
HETATM   32  C   UNL     1       7.891  21.714  52.773  1.00  0.00     0.001 A 
HETATM   33  C   UNL     1       7.981  22.859  53.574  1.00  0.00     0.017 A 
BRANCH  29  34
HETATM   34  O   UNL     1       8.287  21.254  56.877  1.00  0.00    -0.360 OA
HETATM   35  H   UNL     1       8.123  20.292  57.015  1.00  0.00     0.217 HD
ENDBRANCH  29  34
ENDBRANCH  10  28
TORSDOF 8
ENDMDL
MODEL 4
REMARK VINA RESULT:      -8.6      2.423      3.360
REMARK  8 active torsions:
REMARK  status: ('A' for Active; 'I' for Inactive)
REMARK    1  A    between atoms: C_2  and  C_3 
REMARK    2  A    between atoms: C_3  and  O_4 
REMARK    3  A    between atoms: O_4  and  C_5 
REMARK    4  A    between atoms: C_7  and  C_8 
REMARK    5  A    between atoms: N_9  and  C_10 
REMARK    6  A    between atoms: C_10  and  C_11 
REMARK    7  A    between atoms: C_24  and  C_25 
REMARK    8  A    between atoms: C_26  and  O_27 
ROOT
HETATM    1  C   UNL     1       5.791  28.554  53.122  1.00  0.00     0.159 A 
HETATM    2  N   UNL     1       5.567  29.062  54.503  1.00  0.00    -0.329 N 
HETATM    3  C   UNL     1       4.389  29.797  54.653  1.00  0.00     0.273 A 
HETATM    4  O   UNL     1       3.974  30.375  55.640  1.00  0.00    -0.266 OA
HETATM    5  C   UNL     1       3.802  29.742  53.368  1.00  0.00     0.129 A 
HETATM    6  C   UNL     1       4.563  29.060  52.465  1.00  0.00     0.034 A 
HETATM    7  N   UNL     1       2.698  30.170  52.743  1.00  0.00    -0.272 N 
HETATM    8  H   UNL     1       1.916  30.703  53.114  1.00  0.00     0.189 HD
HETATM    9  N   UNL     1       2.691  29.797  51.437  1.00  0.00    -0.173 NA
HETATM   10  C   UNL     1       3.869  29.144  51.244  1.00  0.00     0.101 A 
ENDROOT
BRANCH   1  11
HETATM   11  C   UNL     1       5.789  27.047  53.028  1.00  0.00    -0.028 A 
HETATM   12  C   UNL     1       6.976  26.297  52.925  1.00  0.00     0.046 A 
HETATM   13  C   UNL     1       6.956  24.902  52.828  1.00  0.00     0.069 A 
HETATM   14  C   UNL     1       5.734  24.234  52.841  1.00  0.00     0.037 A 
HETATM   15  C   UNL     1       4.544  24.959  52.936  1.00  0.00     0.003 A 
HETATM   16  C   UNL     1       4.570  26.353  53.023  1.00  0.00     0.010 A 
BRANCH  13  17
HETATM   17  O   UNL     1       8.191  24.325  52.728  1.00  0.00    -0.348 OA
BRANCH  17  18
HETATM   18  C   UNL     1       8.296  22.945  53.073  1.00  0.00     0.202 C 
BRANCH  18  19
HETATM   19  C   UNL     1       8.523  22.873  54.553  1.00  0.00    -0.011 C 
HETATM   20  C   UNL     1       7.746  22.204  55.415  1.00  0.00     0.009 C 
ENDBRANCH  18  19
ENDBRANCH  17  18
ENDBRANCH  13  17
ENDBRANCH   1  11
BRANCH   2  21
HETATM   21  C   UNL     1       6.571  28.952  55.539  1.00  0.00     0.167 C 
BRANCH  21  22
HETATM   22  C   UNL     1       6.590  27.584  56.159  1.00  0.00    -0.023 A 
HETATM   23  C   UNL     1       7.788  26.944  56.454  1.00  0.00     0.125 A 
HETATM   24  N   UNL     1       7.874  25.728  57.039  1.00  0.00    -0.273 NA
HETATM   25  C   UNL     1       6.709  25.112  57.335  1.00  0.00     0.116 A 
HETATM   26  C   UNL     1       5.463  25.659  57.079  1.00  0.00     0.020 A 
HETATM   27  C   UNL     1       5.406  26.914  56.484  1.00  0.00     0.012 A 
ENDBRANCH  21  22
ENDBRANCH   2  21
BRANCH  10  28
HETATM   28  C   UNL     1       4.231  28.635  49.918  1.00  0.00     0.028 A 
HETATM   29  C   UNL     1       3.298  27.952  49.115  1.00  0.00     0.078 A 
HETATM   30  C   UNL     1       3.649  27.445  47.865  1.00  0.00     0.037 A 
HETATM   31  C   UNL     1       4.942  27.629  47.381  1.00  0.00     0.003 A 
HETATM   32  C   UNL     1       5.875  28.325  48.145  1.00  0.00     0.001 A 
HETATM   33  C   UNL     1       5.521  28.829  49.403  1.00  0.00     0.017 A 
BRANCH  29  34
HETATM   34  O   UNL     1       1.997  27.756  49.504  1.00  0.00    -0.360 OA
HETATM   35  H   UNL     1       1.553  28.631  49.418  1.00  0.00     0.217 HD
ENDBRANCH  29  34
ENDBRANCH  10  28
TORSDOF 8
ENDMDL
MODEL 5
REMARK VINA RESULT:      -8.4      9.199     12.663
REMARK  8 active torsions:
REMARK  status: ('A' for Active; 'I' for Inactive)
REMARK    1  A    between atoms: C_2  and  C_3 
REMARK    2  A    between atoms: C_3  and  O_4 
REMARK    3  A    between atoms: O_4  and  C_5 
REMARK    4  A    between atoms: C_7  and  C_8 
REMARK    5  A    between atoms: N_9  and  C_10 
REMARK    6  A    between atoms: C_10  and  C_11 
REMARK    7  A    between atoms: C_24  and  C_25 
REMARK    8  A    between atoms: C_26  and  O_27 
ROOT
HETATM    1  C   UNL     1       4.373  35.581  60.725  1.00  0.00     0.159 A 
HETATM    2  N   UNL     1       3.060  35.998  60.159  1.00  0.00    -0.329 N 
HETATM    3  C   UNL     1       2.154  34.948  59.996  1.00  0.00     0.273 A 
HETATM    4  O   UNL     1       1.038  34.976  59.513  1.00  0.00    -0.266 OA
HETATM    5  C   UNL     1       2.855  33.828  60.498  1.00  0.00     0.129 A 
HETATM    6  C   UNL     1       4.119  34.133  60.911  1.00  0.00     0.034 A 
HETATM    7  N   UNL     1       2.659  32.518  60.693  1.00  0.00    -0.272 N 
HETATM    8  H   UNL     1       1.832  31.957  60.503  1.00  0.00     0.189 HD
HETATM    9  N   UNL     1       3.758  31.925  61.228  1.00  0.00    -0.173 NA
HETATM   10  C   UNL     1       4.687  32.914  61.325  1.00  0.00     0.101 A 
ENDROOT
BRANCH   1  11
HETATM   11  C   UNL     1       4.663  36.185  62.078  1.00  0.00    -0.028 A 
HETATM   12  C   UNL     1       3.965  35.801  63.239  1.00  0.00     0.046 A 
HETATM   13  C   UNL     1       4.239  36.379  64.483  1.00  0.00     0.069 A 
HETATM   14  C   UNL     1       5.229  37.354  64.581  1.00  0.00     0.037 A 
HETATM   15  C   UNL     1       5.928  37.754  63.440  1.00  0.00     0.003 A 
HETATM   16  C   UNL     1       5.644  37.180  62.199  1.00  0.00     0.010 A 
BRANCH  13  17
HETATM   17  O   UNL     1       3.471  35.901  65.509  1.00  0.00    -0.348 OA
BRANCH  17  18
HETATM   18  C   UNL     1       4.128  35.634  66.746  1.00  0.00     0.202 C 
BRANCH  18  19
HETATM   19  C   UNL     1       4.817  34.309  66.605  1.00  0.00    -0.011 C 
HETATM   20  C   UNL     1       6.144  34.128  66.643  1.00  0.00     0.009 C 
ENDBRANCH  18  19
ENDBRANCH  17  18
ENDBRANCH  13  17
ENDBRANCH   1  11
BRANCH   2  21
HETATM   21  C   UNL     1       2.824  37.335  59.662  1.00  0.00     0.167 C 
BRANCH  21  22
HETATM   22  C   UNL     1       3.964  37.830  58.819  1.00  0.00    -0.023 A 
HETATM   23  C   UNL     1       4.272  37.233  57.602  1.00  0.00     0.125 A 
HETATM   24  N   UNL     1       5.265  37.649  56.782  1.00  0.00    -0.273 NA
HETATM   25  C   UNL     1       5.995  38.706  57.201  1.00  0.00     0.116 A 
HETATM   26  C   UNL     1       5.775  39.368  58.396  1.00  0.00     0.020 A 
HETATM   27  C   UNL     1       4.742  38.923  59.214  1.00  0.00     0.012 A 
ENDBRANCH  21  22
ENDBRANCH   2  21
BRANCH  10  28
HETATM   28  C   UNL     1       6.035  32.625  61.824  1.00  0.00     0.028 A 
HETATM   29  C   UNL     1       6.940  31.846  61.079  1.00  0.00     0.078 A 
HETATM   30  C   UNL     1       8.212  31.549  61.565  1.00  0.00     0.037 A 
HETATM   31  C   UNL     1       8.615  32.044  62.803  1.00  0.00     0.003 A 
HETATM   32  C   UNL     1       7.746  32.840  63.546  1.00  0.00     0.001 A 
HETATM   33  C   UNL     1       6.467  33.132  63.057  1.00  0.00     0.017 A 
BRANCH  29  34
HETATM   34  O   UNL     1       6.635  31.346  59.839  1.00  0.00    -0.360 OA
HETATM   35  H   UNL     1       5.800  31.793  59.564  1.00  0.00     0.217 HD
ENDBRANCH  29  34
ENDBRANCH  10  28
TORSDOF 8
ENDMDL
MODEL 6
REMARK VINA RESULT:      -8.4      2.329      6.716
REMARK  8 active torsions:
REMARK  status: ('A' for Active; 'I' for Inactive)
REMARK    1  A    between atoms: C_2  and  C_3 
REMARK    2  A    between atoms: C_3  and  O_4 
REMARK    3  A    between atoms: O_4  and  C_5 
REMARK    4  A    between atoms: C_7  and  C_8 
REMARK    5  A    between atoms: N_9  and  C_10 
REMARK    6  A    between atoms: C_10  and  C_11 
REMARK    7  A    between atoms: C_24  and  C_25 
REMARK    8  A    between atoms: C_26  and  O_27 
ROOT
HETATM    1  C   UNL     1       6.359  27.687  52.826  1.00  0.00     0.159 A 
HETATM    2  N   UNL     1       5.535  28.335  51.768  1.00  0.00    -0.329 N 
HETATM    3  C   UNL     1       4.695  27.452  51.085  1.00  0.00     0.273 A 
HETATM    4  O   UNL     1       3.956  27.681  50.146  1.00  0.00    -0.266 OA
HETATM    5  C   UNL     1       4.932  26.213  51.722  1.00  0.00     0.129 A 
HETATM    6  C   UNL     1       5.873  26.293  52.706  1.00  0.00     0.034 A 
HETATM    7  N   UNL     1       4.508  24.945  51.653  1.00  0.00    -0.272 N 
HETATM    8  H   UNL     1       3.811  24.534  51.039  1.00  0.00     0.189 HD
HETATM    9  N   UNL     1       5.140  24.160  52.564  1.00  0.00    -0.173 NA
HETATM   10  C   UNL     1       6.023  24.982  53.193  1.00  0.00     0.101 A 
ENDROOT
BRANCH   1  11
HETATM   11  C   UNL     1       6.042  28.178  54.219  1.00  0.00    -0.028 A 
HETATM   12  C   UNL     1       7.017  28.756  55.054  1.00  0.00     0.046 A 
HETATM   13  C   UNL     1       6.710  29.195  56.345  1.00  0.00     0.069 A 
HETATM   14  C   UNL     1       5.406  29.065  56.819  1.00  0.00     0.037 A 
HETATM   15  C   UNL     1       4.425  28.488  56.010  1.00  0.00     0.003 A 
HETATM   16  C   UNL     1       4.740  28.042  54.724  1.00  0.00     0.010 A 
BRANCH  13  17
HETATM   17  O   UNL     1       7.768  29.728  57.028  1.00  0.00    -0.348 OA
BRANCH  17  18
HETATM   18  C   UNL     1       8.852  28.854  57.336  1.00  0.00     0.202 C 
BRANCH  18  19
HETATM   19  C   UNL     1      10.076  29.415  56.676  1.00  0.00    -0.011 C 
HETATM   20  C   UNL     1      11.068  30.049  57.315  1.00  0.00     0.009 C 
ENDBRANCH  18  19
ENDBRANCH  17  18
ENDBRANCH  13  17
ENDBRANCH   1  11
BRANCH   2  21
HETATM   21  C   UNL     1       5.727  29.713  51.375  1.00  0.00     0.167 C 
BRANCH  21  22
HETATM   22  C   UNL     1       4.518  30.554  51.667  1.00  0.00    -0.023 A 
HETATM   23  C   UNL     1       3.696  31.014  50.644  1.00  0.00     0.125 A 
HETATM   24  N   UNL     1       2.578  31.748  50.841  1.00  0.00    -0.273 NA
HETATM   25  C   UNL     1       2.268  32.051  52.121  1.00  0.00     0.116 A 
HETATM   26  C   UNL     1       3.020  31.648  53.210  1.00  0.00     0.020 A 
HETATM   27  C   UNL     1       4.160  30.888  52.977  1.00  0.00     0.012 A 
ENDBRANCH  21  22
ENDBRANCH   2  21
BRANCH  10  28
HETATM   28  C   UNL     1       6.926  24.457  54.223  1.00  0.00     0.028 A 
HETATM   29  C   UNL     1       7.824  23.410  53.946  1.00  0.00     0.078 A 
HETATM   30  C   UNL     1       8.663  22.894  54.932  1.00  0.00     0.037 A 
HETATM   31  C   UNL     1       8.635  23.431  56.217  1.00  0.00     0.003 A 
HETATM   32  C   UNL     1       7.774  24.486  56.508  1.00  0.00     0.001 A 
HETATM   33  C   UNL     1       6.928  24.999  55.517  1.00  0.00     0.017 A 
BRANCH  29  34
HETATM   34  O   UNL     1       7.936  22.846  52.700  1.00  0.00    -0.360 OA
HETATM   35  H   UNL     1       8.285  21.936  52.845  1.00  0.00     0.217 HD
ENDBRANCH  29  34
ENDBRANCH  10  28
TORSDOF 8
ENDMDL
MODEL 7
REMARK VINA RESULT:      -8.3      2.156      6.369
REMARK  8 active torsions:
REMARK  status: ('A' for Active; 'I' for Inactive)
REMARK    1  A    between atoms: C_2  and  C_3 
REMARK    2  A    between atoms: C_3  and  O_4 
REMARK    3  A    between atoms: O_4  and  C_5 
REMARK    4  A    between atoms: C_7  and  C_8 
REMARK    5  A    between atoms: N_9  and  C_10 
REMARK    6  A    between atoms: C_10  and  C_11 
REMARK    7  A    between atoms: C_24  and  C_25 
REMARK    8  A    between atoms: C_26  and  O_27 
ROOT
HETATM    1  C   UNL     1       5.351  26.449  55.617  1.00  0.00     0.159 A 
HETATM    2  N   UNL     1       5.088  27.752  56.287  1.00  0.00    -0.329 N 
HETATM    3  C   UNL     1       6.146  28.207  57.077  1.00  0.00     0.273 A 
HETATM    4  O   UNL     1       6.198  29.200  57.778  1.00  0.00    -0.266 OA
HETATM    5  C   UNL     1       7.139  27.218  56.897  1.00  0.00     0.129 A 
HETATM    6  C   UNL     1       6.733  26.197  56.089  1.00  0.00     0.034 A 
HETATM    7  N   UNL     1       8.393  26.963  57.292  1.00  0.00    -0.272 N 
HETATM    8  H   UNL     1       9.002  27.512  57.892  1.00  0.00     0.189 HD
HETATM    9  N   UNL     1       8.848  25.793  56.773  1.00  0.00    -0.173 NA
HETATM   10  C   UNL     1       7.805  25.288  56.059  1.00  0.00     0.101 A 
ENDROOT
BRANCH   1  11
HETATM   11  C   UNL     1       5.379  26.544  54.110  1.00  0.00    -0.028 A 
HETATM   12  C   UNL     1       5.765  27.719  53.436  1.00  0.00     0.046 A 
HETATM   13  C   UNL     1       5.774  27.794  52.040  1.00  0.00     0.069 A 
HETATM   14  C   UNL     1       5.400  26.679  51.293  1.00  0.00     0.037 A 
HETATM   15  C   UNL     1       5.008  25.506  51.942  1.00  0.00     0.003 A 
HETATM   16  C   UNL     1       4.991  25.440  53.337  1.00  0.00     0.010 A 
BRANCH  13  17
HETATM   17  O   UNL     1       6.167  29.005  51.541  1.00  0.00    -0.348 OA
BRANCH  17  18
HETATM   18  C   UNL     1       5.362  29.581  50.515  1.00  0.00     0.202 C 
BRANCH  18  19
HETATM   19  C   UNL     1       4.380  30.497  51.182  1.00  0.00    -0.011 C 
HETATM   20  C   UNL     1       3.095  30.202  51.417  1.00  0.00     0.009 C 
ENDBRANCH  18  19
ENDBRANCH  17  18
ENDBRANCH  13  17
ENDBRANCH   1  11
BRANCH   2  21
HETATM   21  C   UNL     1       3.788  28.386  56.259  1.00  0.00     0.167 C 
BRANCH  21  22
HETATM   22  C   UNL     1       3.893  29.871  56.058  1.00  0.00    -0.023 A 
HETATM   23  C   UNL     1       3.439  30.762  57.024  1.00  0.00     0.125 A 
HETATM   24  N   UNL     1       3.530  32.107  56.919  1.00  0.00    -0.273 NA
HETATM   25  C   UNL     1       4.092  32.591  55.790  1.00  0.00     0.116 A 
HETATM   26  C   UNL     1       4.571  31.793  54.766  1.00  0.00     0.020 A 
HETATM   27  C   UNL     1       4.470  30.413  54.905  1.00  0.00     0.012 A 
ENDBRANCH  21  22
ENDBRANCH   2  21
BRANCH  10  28
HETATM   28  C   UNL     1       7.921  23.989  55.389  1.00  0.00     0.028 A 
HETATM   29  C   UNL     1       8.112  22.801  56.119  1.00  0.00     0.078 A 
HETATM   30  C   UNL     1       8.247  21.570  55.480  1.00  0.00     0.037 A 
HETATM   31  C   UNL     1       8.174  21.498  54.091  1.00  0.00     0.003 A 
HETATM   32  C   UNL     1       7.958  22.657  53.348  1.00  0.00     0.001 A 
HETATM   33  C   UNL     1       7.828  23.893  53.993  1.00  0.00     0.017 A 
BRANCH  29  34
HETATM   34  O   UNL     1       8.164  22.780  57.490  1.00  0.00    -0.360 OA
HETATM   35  H   UNL     1       8.077  21.834  57.750  1.00  0.00     0.217 HD
ENDBRANCH  29  34
ENDBRANCH  10  28
TORSDOF 8
ENDMDL
MODEL 8
REMARK VINA RESULT:      -8.2      2.814      4.155
REMARK  8 active torsions:
REMARK  status: ('A' for Active; 'I' for Inactive)
REMARK    1  A    between atoms: C_2  and  C_3 
REMARK    2  A    between atoms: C_3  and  O_4 
REMARK    3  A    between atoms: O_4  and  C_5 
REMARK    4  A    between atoms: C_7  and  C_8 
REMARK    5  A    between atoms: N_9  and  C_10 
REMARK    6  A    between atoms: C_10  and  C_11 
REMARK    7  A    between atoms: C_24  and  C_25 
REMARK    8  A    between atoms: C_26  and  O_27 
ROOT
HETATM    1  C   UNL     1       6.002  28.586  54.073  1.00  0.00     0.159 A 
HETATM    2  N   UNL     1       6.238  28.375  55.528  1.00  0.00    -0.329 N 
HETATM    3  C   UNL     1       5.335  29.050  56.352  1.00  0.00     0.273 A 
HETATM    4  O   UNL     1       5.313  29.109  57.567  1.00  0.00    -0.266 OA
HETATM    5  C   UNL     1       4.463  29.683  55.437  1.00  0.00     0.129 A 
HETATM    6  C   UNL     1       4.806  29.459  54.135  1.00  0.00     0.034 A 
HETATM    7  N   UNL     1       3.374  30.462  55.452  1.00  0.00    -0.272 N 
HETATM    8  H   UNL     1       2.850  30.817  56.247  1.00  0.00     0.189 HD
HETATM    9  N   UNL     1       2.970  30.775  54.194  1.00  0.00    -0.173 NA
HETATM   10  C   UNL     1       3.882  30.192  53.369  1.00  0.00     0.101 A 
ENDROOT
BRANCH   1  11
HETATM   11  C   UNL     1       5.624  27.323  53.336  1.00  0.00    -0.028 A 
HETATM   12  C   UNL     1       5.619  27.245  51.930  1.00  0.00     0.046 A 
HETATM   13  C   UNL     1       5.255  26.070  51.263  1.00  0.00     0.069 A 
HETATM   14  C   UNL     1       4.895  24.947  52.004  1.00  0.00     0.037 A 
HETATM   15  C   UNL     1       4.887  25.006  53.399  1.00  0.00     0.003 A 
HETATM   16  C   UNL     1       5.242  26.184  54.060  1.00  0.00     0.010 A 
BRANCH  13  17
HETATM   17  O   UNL     1       5.296  26.159  49.899  1.00  0.00    -0.348 OA
BRANCH  17  18
HETATM   18  C   UNL     1       4.189  26.783  49.252  1.00  0.00     0.202 C 
BRANCH  18  19
HETATM   19  C   UNL     1       3.885  25.982  48.021  1.00  0.00    -0.011 C 
HETATM   20  C   UNL     1       3.036  24.948  47.971  1.00  0.00     0.009 C 
ENDBRANCH  18  19
ENDBRANCH  17  18
ENDBRANCH  13  17
ENDBRANCH   1  11
BRANCH   2  21
HETATM   21  C   UNL     1       7.404  27.682  56.028  1.00  0.00     0.167 C 
BRANCH  21  22
HETATM   22  C   UNL     1       8.502  28.633  56.409  1.00  0.00    -0.023 A 
HETATM   23  C   UNL     1       9.365  29.157  55.453  1.00  0.00     0.125 A 
HETATM   24  N   UNL     1      10.353  30.039  55.725  1.00  0.00    -0.273 NA
HETATM   25  C   UNL     1      10.498  30.410  57.015  1.00  0.00     0.116 A 
HETATM   26  C   UNL     1       9.697  29.945  58.044  1.00  0.00     0.020 A 
HETATM   27  C   UNL     1       8.684  29.045  57.733  1.00  0.00     0.012 A 
ENDBRANCH  21  22
ENDBRANCH   2  21
BRANCH  10  28
HETATM   28  C   UNL     1       3.788  30.362  51.916  1.00  0.00     0.028 A 
HETATM   29  C   UNL     1       2.828  29.667  51.157  1.00  0.00     0.078 A 
HETATM   30  C   UNL     1       2.756  29.809  49.772  1.00  0.00     0.037 A 
HETATM   31  C   UNL     1       3.635  30.669  49.117  1.00  0.00     0.003 A 
HETATM   32  C   UNL     1       4.575  31.388  49.850  1.00  0.00     0.001 A 
HETATM   33  C   UNL     1       4.649  31.240  51.240  1.00  0.00     0.017 A 
BRANCH  29  34
HETATM   34  O   UNL     1       1.907  28.826  51.727  1.00  0.00    -0.360 OA
HETATM   35  H   UNL     1       1.328  28.519  50.992  1.00  0.00     0.217 HD
ENDBRANCH  29  34
ENDBRANCH  10  28
TORSDOF 8
ENDMDL
MODEL 9
REMARK VINA RESULT:      -8.1      2.757      7.818
REMARK  8 active torsions:
REMARK  status: ('A' for Active; 'I' for Inactive)
REMARK    1  A    between atoms: C_2  and  C_3 
REMARK    2  A    between atoms: C_3  and  O_4 
REMARK    3  A    between atoms: O_4  and  C_5 
REMARK    4  A    between atoms: C_7  and  C_8 
REMARK    5  A    between atoms: N_9  and  C_10 
REMARK    6  A    between atoms: C_10  and  C_11 
REMARK    7  A    between atoms: C_24  and  C_25 
REMARK    8  A    between atoms: C_26  and  O_27 
ROOT
HETATM    1  C   UNL     1       5.936  28.667  54.775  1.00  0.00     0.159 A 
HETATM    2  N   UNL     1       5.050  27.655  54.135  1.00  0.00    -0.329 N 
HETATM    3  C   UNL     1       5.390  26.334  54.434  1.00  0.00     0.273 A 
HETATM    4  O   UNL     1       4.887  25.307  54.017  1.00  0.00    -0.266 OA
HETATM    5  C   UNL     1       6.488  26.468  55.314  1.00  0.00     0.129 A 
HETATM    6  C   UNL     1       6.841  27.769  55.529  1.00  0.00     0.034 A 
HETATM    7  N   UNL     1       7.318  25.690  56.020  1.00  0.00    -0.272 N 
HETATM    8  H   UNL     1       7.338  24.677  56.096  1.00  0.00     0.189 HD
HETATM    9  N   UNL     1       8.227  26.428  56.707  1.00  0.00    -0.173 NA
HETATM   10  C   UNL     1       7.966  27.721  56.372  1.00  0.00     0.101 A 
ENDROOT
BRANCH   1  11
HETATM   11  C   UNL     1       5.219  29.552  55.766  1.00  0.00    -0.028 A 
HETATM   12  C   UNL     1       5.847  30.648  56.388  1.00  0.00     0.046 A 
HETATM   13  C   UNL     1       5.173  31.452  57.313  1.00  0.00     0.069 A 
HETATM   14  C   UNL     1       3.845  31.168  57.624  1.00  0.00     0.037 A 
HETATM   15  C   UNL     1       3.205  30.082  57.023  1.00  0.00     0.003 A 
HETATM   16  C   UNL     1       3.887  29.277  56.108  1.00  0.00     0.010 A 
BRANCH  13  17
HETATM   17  O   UNL     1       5.924  32.471  57.830  1.00  0.00    -0.348 OA
BRANCH  17  18
HETATM   18  C   UNL     1       5.614  32.904  59.152  1.00  0.00     0.202 C 
BRANCH  18  19
HETATM   19  C   UNL     1       6.669  32.347  60.061  1.00  0.00    -0.011 C 
HETATM   20  C   UNL     1       6.867  32.729  61.329  1.00  0.00     0.009 C 
ENDBRANCH  18  19
ENDBRANCH  17  18
ENDBRANCH  13  17
ENDBRANCH   1  11
BRANCH   2  21
HETATM   21  C   UNL     1       4.047  28.015  53.157  1.00  0.00     0.167 C 
BRANCH  21  22
HETATM   22  C   UNL     1       4.657  28.351  51.826  1.00  0.00    -0.023 A 
HETATM   23  C   UNL     1       4.836  27.377  50.850  1.00  0.00     0.125 A 
HETATM   24  N   UNL     1       5.351  27.618  49.623  1.00  0.00    -0.273 NA
HETATM   25  C   UNL     1       5.716  28.891  49.357  1.00  0.00     0.116 A 
HETATM   26  C   UNL     1       5.585  29.933  50.258  1.00  0.00     0.020 A 
HETATM   27  C   UNL     1       5.046  29.656  51.510  1.00  0.00     0.012 A 
ENDBRANCH  21  22
ENDBRANCH   2  21
BRANCH  10  28
HETATM   28  C   UNL     1       8.795  28.810  56.898  1.00  0.00     0.028 A 
HETATM   29  C   UNL     1       8.550  29.371  58.165  1.00  0.00     0.078 A 
HETATM   30  C   UNL     1       9.323  30.423  58.654  1.00  0.00     0.037 A 
HETATM   31  C   UNL     1      10.374  30.925  57.891  1.00  0.00     0.003 A 
HETATM   32  C   UNL     1      10.653  30.367  56.645  1.00  0.00     0.001 A 
HETATM   33  C   UNL     1       9.872  29.313  56.154  1.00  0.00     0.017 A 
BRANCH  29  34
HETATM   34  O   UNL     1       7.555  28.915  58.992  1.00  0.00    -0.360 OA
HETATM   35  H   UNL     1       6.713  29.265  58.621  1.00  0.00     0.217 HD
ENDBRANCH  29  34
ENDBRANCH  10  28
TORSDOF 8
ENDMDL
MODEL 10
REMARK VINA RESULT:      -7.9      9.031     13.046
REMARK  8 active torsions:
REMARK  status: ('A' for Active; 'I' for Inactive)
REMARK    1  A    between atoms: C_2  and  C_3 
REMARK    2  A    between atoms: C_3  and  O_4 
REMARK    3  A    between atoms: O_4  and  C_5 
REMARK    4  A    between atoms: C_7  and  C_8 
REMARK    5  A    between atoms: N_9  and  C_10 
REMARK    6  A    between atoms: C_10  and  C_11 
REMARK    7  A    between atoms: C_24  and  C_25 
REMARK    8  A    between atoms: C_26  and  O_27 
ROOT
HETATM    1  C   UNL     1       5.237  34.884  62.056  1.00  0.00     0.159 A 
HETATM    2  N   UNL     1       5.198  33.558  62.732  1.00  0.00    -0.329 N 
HETATM    3  C   UNL     1       5.107  33.633  64.123  1.00  0.00     0.273 A 
HETATM    4  O   UNL     1       5.111  32.727  64.935  1.00  0.00    -0.266 OA
HETATM    5  C   UNL     1       5.043  35.023  64.374  1.00  0.00     0.129 A 
HETATM    6  C   UNL     1       5.125  35.772  63.237  1.00  0.00     0.034 A 
HETATM    7  N   UNL     1       4.929  35.857  65.415  1.00  0.00    -0.272 N 
HETATM    8  H   UNL     1       4.842  35.641  66.404  1.00  0.00     0.189 HD
HETATM    9  N   UNL     1       4.933  37.155  65.013  1.00  0.00    -0.173 NA
HETATM   10  C   UNL     1       5.099  37.112  63.664  1.00  0.00     0.101 A 
ENDROOT
BRANCH   1  11
HETATM   11  C   UNL     1       4.047  35.138  61.161  1.00  0.00    -0.028 A 
HETATM   12  C   UNL     1       4.187  35.527  59.815  1.00  0.00     0.046 A 
HETATM   13  C   UNL     1       3.074  35.769  59.003  1.00  0.00     0.069 A 
HETATM   14  C   UNL     1       1.795  35.616  59.533  1.00  0.00     0.037 A 
HETATM   15  C   UNL     1       1.635  35.238  60.867  1.00  0.00     0.003 A 
HETATM   16  C   UNL     1       2.749  35.007  61.677  1.00  0.00     0.010 A 
BRANCH  13  17
HETATM   17  O   UNL     1       3.380  36.143  57.723  1.00  0.00    -0.348 OA
BRANCH  17  18
HETATM   18  C   UNL     1       2.752  37.321  57.222  1.00  0.00     0.202 C 
BRANCH  18  19
HETATM   19  C   UNL     1       3.597  38.487  57.640  1.00  0.00    -0.011 C 
HETATM   20  C   UNL     1       4.931  38.544  57.532  1.00  0.00     0.009 C 
ENDBRANCH  18  19
ENDBRANCH  17  18
ENDBRANCH  13  17
ENDBRANCH   1  11
BRANCH   2  21
HETATM   21  C   UNL     1       5.415  32.320  62.016  1.00  0.00     0.167 C 
BRANCH  21  22
HETATM   22  C   UNL     1       6.809  32.229  61.464  1.00  0.00    -0.023 A 
HETATM   23  C   UNL     1       7.051  32.331  60.099  1.00  0.00     0.125 A 
HETATM   24  N   UNL     1       8.282  32.287  59.541  1.00  0.00    -0.273 NA
HETATM   25  C   UNL     1       9.325  32.122  60.383  1.00  0.00     0.116 A 
HETATM   26  C   UNL     1       9.194  32.004  61.756  1.00  0.00     0.020 A 
HETATM   27  C   UNL     1       7.916  32.060  62.302  1.00  0.00     0.012 A 
ENDBRANCH  21  22
ENDBRANCH   2  21
BRANCH  10  28
HETATM   28  C   UNL     1       5.200  38.351  62.885  1.00  0.00     0.028 A 
HETATM   29  C   UNL     1       6.155  39.336  63.197  1.00  0.00     0.078 A 
HETATM   30  C   UNL     1       6.234  40.525  62.473  1.00  0.00     0.037 A 
HETATM   31  C   UNL     1       5.367  40.745  61.405  1.00  0.00     0.003 A 
HETATM   32  C   UNL     1       4.431  39.772  61.061  1.00  0.00     0.001 A 
HETATM   33  C   UNL     1       4.352  38.581  61.793  1.00  0.00     0.017 A 
BRANCH  29  34
HETATM   34  O   UNL     1       7.065  39.185  64.212  1.00  0.00    -0.360 OA
HETATM   35  H   UNL     1       6.961  39.977  64.789  1.00  0.00     0.217 HD
ENDBRANCH  29  34
ENDBRANCH  10  28
TORSDOF 8
ENDMDL
