MODEL 1
REMARK VINA RESULT:      -9.4      0.000      0.000
REMARK  6 active torsions:
REMARK  status: ('A' for Active; 'I' for Inactive)
REMARK    1  A    between atoms: O_2  and  C_3 
REMARK    2  A    between atoms: C_6  and  C_7 
REMARK    3  A    between atoms: C_13  and  C_14 
REMARK       I    between atoms: C_14  and  N_15 
REMARK    4  A    between atoms: N_15  and  C_16 
REMARK    5  A    between atoms: C_18  and  O_19 
REMARK    6  A    between atoms: C_24  and  C_25 
ROOT
HETATM    1  C   UNL     1       7.955  26.011  53.507  1.00  0.00     0.118 C 
HETATM    2  N   UNL     1       7.885  26.849  54.713  1.00  0.00    -0.365 N 
HETATM    3  C   UNL     1       6.693  27.346  55.154  1.00  0.00     0.138 A 
HETATM    4  N   UNL     1       5.534  27.161  54.436  1.00  0.00    -0.240 N 
HETATM    5  N   UNL     1       4.473  27.809  54.939  1.00  0.00    -0.181 NA
HETATM    6  C   UNL     1       4.955  28.367  56.052  1.00  0.00     0.160 A 
HETATM    7  C   UNL     1       6.337  28.120  56.246  1.00  0.00     0.096 A 
HETATM    8  C   UNL     1       5.461  26.534  53.130  1.00  0.00     0.221 C 
HETATM    9  C   UNL     1       6.865  26.443  52.509  1.00  0.00     0.066 C 
HETATM   10  H   UNL     1       8.724  27.418  54.838  1.00  0.00     0.161 HD
ENDROOT
BRANCH   7  11
HETATM   11  C   UNL     1       7.142  28.629  57.347  1.00  0.00     0.261 C 
HETATM   12  N   UNL     1       7.196  30.008  57.411  1.00  0.00    -0.323 N 
HETATM   13  H   UNL     1       6.788  30.495  56.621  1.00  0.00     0.169 HD
HETATM   14  O   UNL     1       7.695  27.854  58.118  1.00  0.00    -0.267 OA
BRANCH  12  15
HETATM   15  C   UNL     1       7.748  30.805  58.435  1.00  0.00     0.037 A 
HETATM   16  C   UNL     1       6.986  31.510  59.371  1.00  0.00     0.066 A 
HETATM   17  C   UNL     1       7.619  32.303  60.328  1.00  0.00     0.067 A 
HETATM   18  C   UNL     1       9.002  32.414  60.366  1.00  0.00     0.036 A 
HETATM   19  C   UNL     1       9.770  31.714  59.440  1.00  0.00     0.005 A 
HETATM   20  C   UNL     1       9.146  30.908  58.483  1.00  0.00     0.029 A 
BRANCH  17  21
HETATM   21  O   UNL     1       6.901  32.997  61.259  1.00  0.00    -0.361 OA
HETATM   22  H   UNL     1       7.425  33.045  62.077  1.00  0.00     0.217 HD
ENDBRANCH  17  21
ENDBRANCH  12  15
ENDBRANCH   7  11
BRANCH   1  23
HETATM   23  C   UNL     1       7.971  24.521  53.815  1.00  0.00    -0.035 A 
HETATM   24  C   UNL     1       7.984  24.012  55.123  1.00  0.00     0.012 A 
HETATM   25  C   UNL     1       7.939  22.633  55.358  1.00  0.00     0.037 A 
HETATM   26  C   UNL     1       7.881  21.733  54.296  1.00  0.00     0.068 A 
HETATM   27  C   UNL     1       7.929  22.217  52.992  1.00  0.00     0.037 A 
HETATM   28  C   UNL     1       7.979  23.596  52.756  1.00  0.00     0.012 A 
BRANCH  26  29
HETATM   29  O   UNL     1       7.803  20.414  54.651  1.00  0.00    -0.356 OA
HETATM   30  C   UNL     1       8.273  20.095  55.957  1.00  0.00     0.210 C 
ENDBRANCH  26  29
ENDBRANCH   1  23
BRANCH   8  31
HETATM   31  C   UNL     1       4.714  25.222  53.216  1.00  0.00     0.409 C 
HETATM   32  F   UNL     1       4.978  24.371  52.208  1.00  0.00    -0.169 F 
HETATM   33  F   UNL     1       4.973  24.570  54.373  1.00  0.00    -0.169 F 
HETATM   34  F   UNL     1       3.374  25.451  53.207  1.00  0.00    -0.169 F 
ENDBRANCH   8  31
TORSDOF 6
ENDMDL
MODEL 2
REMARK VINA RESULT:      -9.2      5.095      8.142
REMARK  6 active torsions:
REMARK  status: ('A' for Active; 'I' for Inactive)
REMARK    1  A    between atoms: O_2  and  C_3 
REMARK    2  A    between atoms: C_6  and  C_7 
REMARK    3  A    between atoms: C_13  and  C_14 
REMARK       I    between atoms: C_14  and  N_15 
REMARK    4  A    between atoms: N_15  and  C_16 
REMARK    5  A    between atoms: C_18  and  O_19 
REMARK    6  A    between atoms: C_24  and  C_25 
ROOT
HETATM    1  C   UNL     1       5.010  25.697  53.953  1.00  0.00     0.118 C 
HETATM    2  N   UNL     1       4.575  26.178  52.632  1.00  0.00    -0.365 N 
HETATM    3  C   UNL     1       5.043  27.355  52.126  1.00  0.00     0.138 A 
HETATM    4  N   UNL     1       5.858  28.178  52.868  1.00  0.00    -0.240 N 
HETATM    5  N   UNL     1       6.134  29.349  52.276  1.00  0.00    -0.181 NA
HETATM    6  C   UNL     1       5.534  29.240  51.089  1.00  0.00     0.160 A 
HETATM    7  C   UNL     1       4.831  28.020  50.929  1.00  0.00     0.096 A 
HETATM    8  C   UNL     1       6.217  27.953  54.256  1.00  0.00     0.221 C 
HETATM    9  C   UNL     1       5.288  26.897  54.877  1.00  0.00     0.066 C 
HETATM   10  H   UNL     1       3.615  25.904  52.418  1.00  0.00     0.161 HD
ENDROOT
BRANCH   7  11
HETATM   11  C   UNL     1       4.053  27.638  49.759  1.00  0.00     0.261 C 
HETATM   12  N   UNL     1       2.985  28.474  49.498  1.00  0.00    -0.323 N 
HETATM   13  H   UNL     1       2.791  29.165  50.214  1.00  0.00     0.169 HD
HETATM   14  O   UNL     1       4.370  26.653  49.102  1.00  0.00    -0.267 OA
BRANCH  12  15
HETATM   15  C   UNL     1       2.145  28.475  48.366  1.00  0.00     0.037 A 
HETATM   16  C   UNL     1       2.091  29.518  47.436  1.00  0.00     0.066 A 
HETATM   17  C   UNL     1       1.203  29.449  46.364  1.00  0.00     0.067 A 
HETATM   18  C   UNL     1       0.355  28.360  46.204  1.00  0.00     0.036 A 
HETATM   19  C   UNL     1       0.403  27.316  47.123  1.00  0.00     0.005 A 
HETATM   20  C   UNL     1       1.298  27.371  48.195  1.00  0.00     0.029 A 
BRANCH  17  21
HETATM   21  O   UNL     1       1.133  30.448  45.436  1.00  0.00    -0.361 OA
HETATM   22  H   UNL     1       1.570  30.142  44.623  1.00  0.00     0.217 HD
ENDBRANCH  17  21
ENDBRANCH  12  15
ENDBRANCH   7  11
BRANCH   1  23
HETATM   23  C   UNL     1       6.143  24.686  53.877  1.00  0.00    -0.035 A 
HETATM   24  C   UNL     1       6.672  24.045  55.007  1.00  0.00     0.012 A 
HETATM   25  C   UNL     1       7.676  23.077  54.881  1.00  0.00     0.037 A 
HETATM   26  C   UNL     1       8.173  22.728  53.628  1.00  0.00     0.068 A 
HETATM   27  C   UNL     1       7.704  23.397  52.501  1.00  0.00     0.037 A 
HETATM   28  C   UNL     1       6.705  24.369  52.626  1.00  0.00     0.012 A 
BRANCH  26  29
HETATM   29  O   UNL     1       9.124  21.745  53.629  1.00  0.00    -0.356 OA
HETATM   30  C   UNL     1       8.701  20.473  53.148  1.00  0.00     0.210 C 
ENDBRANCH  26  29
ENDBRANCH   1  23
BRANCH   8  31
HETATM   31  C   UNL     1       7.694  27.653  54.376  1.00  0.00     0.409 C 
HETATM   32  F   UNL     1       8.207  26.980  53.329  1.00  0.00    -0.169 F 
HETATM   33  F   UNL     1       8.426  28.781  54.526  1.00  0.00    -0.169 F 
HETATM   34  F   UNL     1       7.927  26.904  55.487  1.00  0.00    -0.169 F 
ENDBRANCH   8  31
TORSDOF 6
ENDMDL
MODEL 3
REMARK VINA RESULT:      -9.2      1.473      1.894
REMARK  6 active torsions:
REMARK  status: ('A' for Active; 'I' for Inactive)
REMARK    1  A    between atoms: O_2  and  C_3 
REMARK    2  A    between atoms: C_6  and  C_7 
REMARK    3  A    between atoms: C_13  and  C_14 
REMARK       I    between atoms: C_14  and  N_15 
REMARK    4  A    between atoms: N_15  and  C_16 
REMARK    5  A    between atoms: C_18  and  O_19 
REMARK    6  A    between atoms: C_24  and  C_25 
ROOT
HETATM    1  C   UNL     1       7.879  27.496  53.896  1.00  0.00     0.118 C 
HETATM    2  N   UNL     1       7.858  28.123  55.227  1.00  0.00    -0.365 N 
HETATM    3  C   UNL     1       6.706  28.649  55.735  1.00  0.00     0.138 A 
HETATM    4  N   UNL     1       5.553  28.699  54.986  1.00  0.00    -0.240 N 
HETATM    5  N   UNL     1       4.544  29.351  55.583  1.00  0.00    -0.181 NA
HETATM    6  C   UNL     1       5.048  29.665  56.779  1.00  0.00     0.160 A 
HETATM    7  C   UNL     1       6.396  29.259  56.939  1.00  0.00     0.096 A 
HETATM    8  C   UNL     1       5.454  28.310  53.592  1.00  0.00     0.221 C 
HETATM    9  C   UNL     1       6.859  28.191  52.977  1.00  0.00     0.066 C 
HETATM   10  H   UNL     1       8.743  28.580  55.453  1.00  0.00     0.161 HD
ENDROOT
BRANCH   7  11
HETATM   11  C   UNL     1       7.218  29.497  58.118  1.00  0.00     0.261 C 
HETATM   12  N   UNL     1       7.033  30.741  58.689  1.00  0.00    -0.323 N 
HETATM   13  H   UNL     1       6.457  31.381  58.154  1.00  0.00     0.169 HD
HETATM   14  O   UNL     1       7.984  28.630  58.521  1.00  0.00    -0.267 OA
BRANCH  12  15
HETATM   15  C   UNL     1       7.547  31.215  59.913  1.00  0.00     0.037 A 
HETATM   16  C   UNL     1       6.801  31.947  60.841  1.00  0.00     0.066 A 
HETATM   17  C   UNL     1       7.404  32.407  62.011  1.00  0.00     0.067 A 
HETATM   18  C   UNL     1       8.746  32.159  62.271  1.00  0.00     0.036 A 
HETATM   19  C   UNL     1       9.497  31.430  61.354  1.00  0.00     0.005 A 
HETATM   20  C   UNL     1       8.899  30.955  60.183  1.00  0.00     0.029 A 
BRANCH  17  21
HETATM   21  O   UNL     1       6.699  33.117  62.939  1.00  0.00    -0.361 OA
HETATM   22  H   UNL     1       7.156  33.963  63.091  1.00  0.00     0.217 HD
ENDBRANCH  17  21
ENDBRANCH  12  15
ENDBRANCH   7  11
BRANCH   1  23
HETATM   23  C   UNL     1       7.750  25.981  53.947  1.00  0.00    -0.035 A 
HETATM   24  C   UNL     1       7.829  25.169  52.806  1.00  0.00     0.012 A 
HETATM   25  C   UNL     1       7.763  23.775  52.910  1.00  0.00     0.037 A 
HETATM   26  C   UNL     1       7.617  23.161  54.152  1.00  0.00     0.068 A 
HETATM   27  C   UNL     1       7.476  23.952  55.288  1.00  0.00     0.037 A 
HETATM   28  C   UNL     1       7.536  25.347  55.184  1.00  0.00     0.012 A 
BRANCH  26  29
HETATM   29  O   UNL     1       7.603  21.793  54.130  1.00  0.00    -0.356 OA
HETATM   30  C   UNL     1       7.989  21.189  52.900  1.00  0.00     0.210 C 
ENDBRANCH  26  29
ENDBRANCH   1  23
BRANCH   8  31
HETATM   31  C   UNL     1       4.588  27.080  53.448  1.00  0.00     0.409 C 
HETATM   32  F   UNL     1       4.920  26.290  52.410  1.00  0.00    -0.169 F 
HETATM   33  F   UNL     1       4.613  26.313  54.562  1.00  0.00    -0.169 F 
HETATM   34  F   UNL     1       3.290  27.445  53.274  1.00  0.00    -0.169 F 
ENDBRANCH   8  31
TORSDOF 6
ENDMDL
MODEL 4
REMARK VINA RESULT:      -9.2      5.082      8.831
REMARK  6 active torsions:
REMARK  status: ('A' for Active; 'I' for Inactive)
REMARK    1  A    between atoms: O_2  and  C_3 
REMARK    2  A    between atoms: C_6  and  C_7 
REMARK    3  A    between atoms: C_13  and  C_14 
REMARK       I    between atoms: C_14  and  N_15 
REMARK    4  A    between atoms: N_15  and  C_16 
REMARK    5  A    between atoms: C_18  and  O_19 
REMARK    6  A    between atoms: C_24  and  C_25 
ROOT
HETATM    1  C   UNL     1       5.297  27.908  48.870  1.00  0.00     0.118 C 
HETATM    2  N   UNL     1       5.459  26.897  49.926  1.00  0.00    -0.365 N 
HETATM    3  C   UNL     1       5.356  27.238  51.244  1.00  0.00     0.138 A 
HETATM    4  N   UNL     1       5.196  28.548  51.632  1.00  0.00    -0.240 N 
HETATM    5  N   UNL     1       5.231  28.730  52.960  1.00  0.00    -0.181 NA
HETATM    6  C   UNL     1       5.348  27.489  53.436  1.00  0.00     0.160 A 
HETATM    7  C   UNL     1       5.435  26.507  52.418  1.00  0.00     0.096 A 
HETATM    8  C   UNL     1       5.219  29.686  50.733  1.00  0.00     0.221 C 
HETATM    9  C   UNL     1       5.805  29.272  49.372  1.00  0.00     0.066 C 
HETATM   10  H   UNL     1       6.121  26.166  49.663  1.00  0.00     0.161 HD
ENDROOT
BRANCH   7  11
HETATM   11  C   UNL     1       5.605  25.077  52.632  1.00  0.00     0.261 C 
HETATM   12  N   UNL     1       6.824  24.734  53.185  1.00  0.00    -0.323 N 
HETATM   13  H   UNL     1       7.497  25.489  53.252  1.00  0.00     0.169 HD
HETATM   14  O   UNL     1       4.709  24.297  52.332  1.00  0.00    -0.267 OA
BRANCH  12  15
HETATM   15  C   UNL     1       7.232  23.471  53.660  1.00  0.00     0.037 A 
HETATM   16  C   UNL     1       7.554  22.393  52.830  1.00  0.00     0.066 A 
HETATM   17  C   UNL     1       7.913  21.167  53.390  1.00  0.00     0.067 A 
HETATM   18  C   UNL     1       7.950  20.990  54.767  1.00  0.00     0.036 A 
HETATM   19  C   UNL     1       7.633  22.058  55.601  1.00  0.00     0.005 A 
HETATM   20  C   UNL     1       7.282  23.294  55.051  1.00  0.00     0.029 A 
BRANCH  17  21
HETATM   21  O   UNL     1       8.240  20.099  52.605  1.00  0.00    -0.361 OA
HETATM   22  H   UNL     1       9.206  19.989  52.622  1.00  0.00     0.217 HD
ENDBRANCH  17  21
ENDBRANCH  12  15
ENDBRANCH   7  11
BRANCH   1  23
HETATM   23  C   UNL     1       3.894  27.937  48.281  1.00  0.00    -0.035 A 
HETATM   24  C   UNL     1       2.916  26.981  48.592  1.00  0.00     0.012 A 
HETATM   25  C   UNL     1       1.621  27.082  48.071  1.00  0.00     0.037 A 
HETATM   26  C   UNL     1       1.274  28.136  47.229  1.00  0.00     0.068 A 
HETATM   27  C   UNL     1       2.247  29.060  46.861  1.00  0.00     0.037 A 
HETATM   28  C   UNL     1       3.545  28.957  47.377  1.00  0.00     0.012 A 
BRANCH  26  29
HETATM   29  O   UNL     1      -0.030  28.149  46.814  1.00  0.00    -0.356 OA
HETATM   30  C   UNL     1      -0.294  27.481  45.584  1.00  0.00     0.210 C 
ENDBRANCH  26  29
ENDBRANCH   1  23
BRANCH   8  31
HETATM   31  C   UNL     1       3.855  30.336  50.669  1.00  0.00     0.409 C 
HETATM   32  F   UNL     1       3.630  31.037  49.543  1.00  0.00    -0.169 F 
HETATM   33  F   UNL     1       2.859  29.427  50.784  1.00  0.00    -0.169 F 
HETATM   34  F   UNL     1       3.701  31.194  51.713  1.00  0.00    -0.169 F 
ENDBRANCH   8  31
TORSDOF 6
ENDMDL
MODEL 5
REMARK VINA RESULT:      -8.8      4.042      5.882
REMARK  6 active torsions:
REMARK  status: ('A' for Active; 'I' for Inactive)
REMARK    1  A    between atoms: O_2  and  C_3 
REMARK    2  A    between atoms: C_6  and  C_7 
REMARK    3  A    between atoms: C_13  and  C_14 
REMARK       I    between atoms: C_14  and  N_15 
REMARK    4  A    between atoms: N_15  and  C_16 
REMARK    5  A    between atoms: C_18  and  O_19 
REMARK    6  A    between atoms: C_24  and  C_25 
ROOT
HETATM    1  C   UNL     1       5.389  28.133  56.989  1.00  0.00     0.118 C 
HETATM    2  N   UNL     1       5.807  29.192  57.920  1.00  0.00    -0.365 N 
HETATM    3  C   UNL     1       7.087  29.665  57.915  1.00  0.00     0.138 A 
HETATM    4  N   UNL     1       8.052  29.105  57.110  1.00  0.00    -0.240 N 
HETATM    5  N   UNL     1       9.281  29.602  57.307  1.00  0.00    -0.181 NA
HETATM    6  C   UNL     1       9.082  30.559  58.217  1.00  0.00     0.160 A 
HETATM    7  C   UNL     1       7.734  30.650  58.643  1.00  0.00     0.096 A 
HETATM    8  C   UNL     1       7.858  27.928  56.284  1.00  0.00     0.221 C 
HETATM    9  C   UNL     1       6.574  27.193  56.704  1.00  0.00     0.066 C 
HETATM   10  H   UNL     1       5.311  29.141  58.811  1.00  0.00     0.161 HD
ENDROOT
BRANCH   7  11
HETATM   11  C   UNL     1       7.224  31.571  59.649  1.00  0.00     0.261 C 
HETATM   12  N   UNL     1       7.294  31.085  60.941  1.00  0.00    -0.323 N 
HETATM   13  H   UNL     1       7.562  30.111  61.023  1.00  0.00     0.169 HD
HETATM   14  O   UNL     1       6.788  32.668  59.319  1.00  0.00    -0.267 OA
BRANCH  12  15
HETATM   15  C   UNL     1       7.037  31.780  62.140  1.00  0.00     0.037 A 
HETATM   16  C   UNL     1       5.756  32.011  62.649  1.00  0.00     0.066 A 
HETATM   17  C   UNL     1       5.596  32.741  63.827  1.00  0.00     0.067 A 
HETATM   18  C   UNL     1       6.692  33.256  64.505  1.00  0.00     0.036 A 
HETATM   19  C   UNL     1       7.972  33.030  64.008  1.00  0.00     0.005 A 
HETATM   20  C   UNL     1       8.144  32.291  62.834  1.00  0.00     0.029 A 
BRANCH  17  21
HETATM   21  O   UNL     1       4.358  32.975  64.351  1.00  0.00    -0.361 OA
HETATM   22  H   UNL     1       3.695  32.819  63.655  1.00  0.00     0.217 HD
ENDBRANCH  17  21
ENDBRANCH  12  15
ENDBRANCH   7  11
BRANCH   1  23
HETATM   23  C   UNL     1       4.699  28.671  55.744  1.00  0.00    -0.035 A 
HETATM   24  C   UNL     1       4.337  30.018  55.594  1.00  0.00     0.012 A 
HETATM   25  C   UNL     1       3.756  30.477  54.406  1.00  0.00     0.037 A 
HETATM   26  C   UNL     1       3.524  29.606  53.344  1.00  0.00     0.068 A 
HETATM   27  C   UNL     1       3.820  28.255  53.498  1.00  0.00     0.037 A 
HETATM   28  C   UNL     1       4.396  27.792  54.688  1.00  0.00     0.012 A 
BRANCH  26  29
HETATM   29  O   UNL     1       2.987  30.178  52.224  1.00  0.00    -0.356 OA
HETATM   30  C   UNL     1       2.687  29.286  51.156  1.00  0.00     0.210 C 
ENDBRANCH  26  29
ENDBRANCH   1  23
BRANCH   8  31
HETATM   31  C   UNL     1       7.933  28.295  54.819  1.00  0.00     0.409 C 
HETATM   32  F   UNL     1       7.137  29.321  54.466  1.00  0.00    -0.169 F 
HETATM   33  F   UNL     1       9.193  28.616  54.444  1.00  0.00    -0.169 F 
HETATM   34  F   UNL     1       7.576  27.229  54.055  1.00  0.00    -0.169 F 
ENDBRANCH   8  31
TORSDOF 6
ENDMDL
MODEL 6
REMARK VINA RESULT:      -8.8      1.751      2.110
REMARK  6 active torsions:
REMARK  status: ('A' for Active; 'I' for Inactive)
REMARK    1  A    between atoms: O_2  and  C_3 
REMARK    2  A    between atoms: C_6  and  C_7 
REMARK    3  A    between atoms: C_13  and  C_14 
REMARK       I    between atoms: C_14  and  N_15 
REMARK    4  A    between atoms: N_15  and  C_16 
REMARK    5  A    between atoms: C_18  and  O_19 
REMARK    6  A    between atoms: C_24  and  C_25 
ROOT
HETATM    1  C   UNL     1       7.846  26.072  53.549  1.00  0.00     0.118 C 
HETATM    2  N   UNL     1       7.258  26.979  54.547  1.00  0.00    -0.365 N 
HETATM    3  C   UNL     1       5.958  27.382  54.447  1.00  0.00     0.138 A 
HETATM    4  N   UNL     1       5.184  27.033  53.364  1.00  0.00    -0.240 N 
HETATM    5  N   UNL     1       3.970  27.603  53.357  1.00  0.00    -0.181 NA
HETATM    6  C   UNL     1       3.943  28.281  54.506  1.00  0.00     0.160 A 
HETATM    7  C   UNL     1       5.155  28.189  55.236  1.00  0.00     0.096 A 
HETATM    8  C   UNL     1       5.666  26.314  52.200  1.00  0.00     0.221 C 
HETATM    9  C   UNL     1       7.203  26.323  52.174  1.00  0.00     0.066 C 
HETATM   10  H   UNL     1       7.943  27.636  54.923  1.00  0.00     0.161 HD
ENDROOT
BRANCH   7  11
HETATM   11  C   UNL     1       5.433  28.850  56.503  1.00  0.00     0.261 C 
HETATM   12  N   UNL     1       4.869  30.106  56.615  1.00  0.00    -0.323 N 
HETATM   13  H   UNL     1       4.447  30.469  55.768  1.00  0.00     0.169 HD
HETATM   14  O   UNL     1       6.112  28.290  57.356  1.00  0.00    -0.267 OA
BRANCH  12  15
HETATM   15  C   UNL     1       4.814  30.929  57.759  1.00  0.00     0.037 A 
HETATM   16  C   UNL     1       3.655  31.145  58.510  1.00  0.00     0.066 A 
HETATM   17  C   UNL     1       3.686  32.006  59.607  1.00  0.00     0.067 A 
HETATM   18  C   UNL     1       4.853  32.667  59.966  1.00  0.00     0.036 A 
HETATM   19  C   UNL     1       6.013  32.457  59.226  1.00  0.00     0.005 A 
HETATM   20  C   UNL     1       5.995  31.588  58.131  1.00  0.00     0.029 A 
BRANCH  17  21
HETATM   21  O   UNL     1       2.572  32.230  60.362  1.00  0.00    -0.361 OA
HETATM   22  H   UNL     1       2.851  32.598  61.219  1.00  0.00     0.217 HD
ENDBRANCH  17  21
ENDBRANCH  12  15
ENDBRANCH   7  11
BRANCH   1  23
HETATM   23  C   UNL     1       7.840  24.616  53.991  1.00  0.00    -0.035 A 
HETATM   24  C   UNL     1       7.317  24.193  55.222  1.00  0.00     0.012 A 
HETATM   25  C   UNL     1       7.281  22.835  55.559  1.00  0.00     0.037 A 
HETATM   26  C   UNL     1       7.765  21.870  54.678  1.00  0.00     0.068 A 
HETATM   27  C   UNL     1       8.344  22.276  53.479  1.00  0.00     0.037 A 
HETATM   28  C   UNL     1       8.386  23.634  53.143  1.00  0.00     0.012 A 
BRANCH  26  29
HETATM   29  O   UNL     1       7.642  20.576  55.103  1.00  0.00    -0.356 OA
HETATM   30  C   UNL     1       8.266  20.268  56.344  1.00  0.00     0.210 C 
ENDBRANCH  26  29
ENDBRANCH   1  23
BRANCH   8  31
HETATM   31  C   UNL     1       5.033  24.943  52.128  1.00  0.00     0.409 C 
HETATM   32  F   UNL     1       5.917  23.934  52.024  1.00  0.00    -0.169 F 
HETATM   33  F   UNL     1       4.257  24.689  53.206  1.00  0.00    -0.169 F 
HETATM   34  F   UNL     1       4.210  24.868  51.048  1.00  0.00    -0.169 F 
ENDBRANCH   8  31
TORSDOF 6
ENDMDL
MODEL 7
REMARK VINA RESULT:      -8.6      8.296     12.436
REMARK  6 active torsions:
REMARK  status: ('A' for Active; 'I' for Inactive)
REMARK    1  A    between atoms: O_2  and  C_3 
REMARK    2  A    between atoms: C_6  and  C_7 
REMARK    3  A    between atoms: C_13  and  C_14 
REMARK       I    between atoms: C_14  and  N_15 
REMARK    4  A    between atoms: N_15  and  C_16 
REMARK    5  A    between atoms: C_18  and  O_19 
REMARK    6  A    between atoms: C_24  and  C_25 
ROOT
HETATM    1  C   UNL     1       6.775  34.826  63.341  1.00  0.00     0.118 C 
HETATM    2  N   UNL     1       6.792  34.717  64.808  1.00  0.00    -0.365 N 
HETATM    3  C   UNL     1       5.652  34.439  65.503  1.00  0.00     0.138 A 
HETATM    4  N   UNL     1       4.434  34.347  64.870  1.00  0.00    -0.240 N 
HETATM    5  N   UNL     1       3.397  34.187  65.705  1.00  0.00    -0.181 NA
HETATM    6  C   UNL     1       3.979  34.104  66.903  1.00  0.00     0.160 A 
HETATM    7  C   UNL     1       5.387  34.257  66.850  1.00  0.00     0.096 A 
HETATM    8  C   UNL     1       4.210  34.625  63.463  1.00  0.00     0.221 C 
HETATM    9  C   UNL     1       5.415  35.377  62.876  1.00  0.00     0.066 C 
HETATM   10  H   UNL     1       7.482  35.339  65.233  1.00  0.00     0.161 HD
ENDROOT
BRANCH   7  11
HETATM   11  C   UNL     1       6.282  34.251  67.998  1.00  0.00     0.261 C 
HETATM   12  N   UNL     1       5.700  33.786  69.162  1.00  0.00    -0.323 N 
HETATM   13  H   UNL     1       4.699  33.632  69.114  1.00  0.00     0.169 HD
HETATM   14  O   UNL     1       7.441  34.632  67.879  1.00  0.00    -0.267 OA
BRANCH  12  15
HETATM   15  C   UNL     1       6.331  33.505  70.391  1.00  0.00     0.037 A 
HETATM   16  C   UNL     1       6.946  32.287  70.692  1.00  0.00     0.066 A 
HETATM   17  C   UNL     1       7.515  32.085  71.949  1.00  0.00     0.067 A 
HETATM   18  C   UNL     1       7.473  33.076  72.922  1.00  0.00     0.036 A 
HETATM   19  C   UNL     1       6.864  34.293  72.631  1.00  0.00     0.005 A 
HETATM   20  C   UNL     1       6.301  34.509  71.370  1.00  0.00     0.029 A 
BRANCH  17  21
HETATM   21  O   UNL     1       8.128  30.909  72.268  1.00  0.00    -0.361 OA
HETATM   22  H   UNL     1       9.009  30.900  71.854  1.00  0.00     0.217 HD
ENDBRANCH  17  21
ENDBRANCH  12  15
ENDBRANCH   7  11
BRANCH   1  23
HETATM   23  C   UNL     1       7.207  33.546  62.643  1.00  0.00    -0.035 A 
HETATM   24  C   UNL     1       7.080  33.350  61.259  1.00  0.00     0.012 A 
HETATM   25  C   UNL     1       7.545  32.177  60.653  1.00  0.00     0.037 A 
HETATM   26  C   UNL     1       8.147  31.175  61.412  1.00  0.00     0.068 A 
HETATM   27  C   UNL     1       8.227  31.326  62.793  1.00  0.00     0.037 A 
HETATM   28  C   UNL     1       7.757  32.496  63.401  1.00  0.00     0.012 A 
BRANCH  26  29
HETATM   29  O   UNL     1       8.595  30.094  60.704  1.00  0.00    -0.356 OA
HETATM   30  C   UNL     1       8.328  30.115  59.306  1.00  0.00     0.210 C 
ENDBRANCH  26  29
ENDBRANCH   1  23
BRANCH   8  31
HETATM   31  C   UNL     1       3.828  33.358  62.730  1.00  0.00     0.409 C 
HETATM   32  F   UNL     1       2.521  33.050  62.807  1.00  0.00    -0.169 F 
HETATM   33  F   UNL     1       4.152  33.419  61.418  1.00  0.00    -0.169 F 
HETATM   34  F   UNL     1       4.519  32.303  63.238  1.00  0.00    -0.169 F 
ENDBRANCH   8  31
TORSDOF 6
ENDMDL
MODEL 8
REMARK VINA RESULT:      -8.5      3.954      6.850
REMARK  6 active torsions:
REMARK  status: ('A' for Active; 'I' for Inactive)
REMARK    1  A    between atoms: O_2  and  C_3 
REMARK    2  A    between atoms: C_6  and  C_7 
REMARK    3  A    between atoms: C_13  and  C_14 
REMARK       I    between atoms: C_14  and  N_15 
REMARK    4  A    between atoms: N_15  and  C_16 
REMARK    5  A    between atoms: C_18  and  O_19 
REMARK    6  A    between atoms: C_24  and  C_25 
ROOT
HETATM    1  C   UNL     1       5.275  25.044  55.663  1.00  0.00     0.118 C 
HETATM    2  N   UNL     1       4.853  26.060  54.686  1.00  0.00    -0.365 N 
HETATM    3  C   UNL     1       5.303  27.345  54.773  1.00  0.00     0.138 A 
HETATM    4  N   UNL     1       6.086  27.758  55.825  1.00  0.00    -0.240 N 
HETATM    5  N   UNL     1       6.347  29.073  55.827  1.00  0.00    -0.181 NA
HETATM    6  C   UNL     1       5.770  29.500  54.701  1.00  0.00     0.160 A 
HETATM    7  C   UNL     1       5.097  28.472  53.995  1.00  0.00     0.096 A 
HETATM    8  C   UNL     1       6.427  26.939  56.974  1.00  0.00     0.221 C 
HETATM    9  C   UNL     1       5.511  25.705  57.033  1.00  0.00     0.066 C 
HETATM   10  H   UNL     1       3.903  25.899  54.348  1.00  0.00     0.161 HD
ENDROOT
BRANCH   7  11
HETATM   11  C   UNL     1       4.348  28.645  52.759  1.00  0.00     0.261 C 
HETATM   12  N   UNL     1       5.130  28.621  51.621  1.00  0.00    -0.323 N 
HETATM   13  H   UNL     1       6.131  28.621  51.783  1.00  0.00     0.169 HD
HETATM   14  O   UNL     1       3.131  28.791  52.790  1.00  0.00    -0.267 OA
BRANCH  12  15
HETATM   15  C   UNL     1       4.701  28.599  50.278  1.00  0.00     0.037 A 
HETATM   16  C   UNL     1       4.804  27.481  49.445  1.00  0.00     0.066 A 
HETATM   17  C   UNL     1       4.386  27.562  48.117  1.00  0.00     0.067 A 
HETATM   18  C   UNL     1       3.874  28.744  47.597  1.00  0.00     0.036 A 
HETATM   19  C   UNL     1       3.765  29.861  48.419  1.00  0.00     0.005 A 
HETATM   20  C   UNL     1       4.171  29.788  49.755  1.00  0.00     0.029 A 
BRANCH  17  21
HETATM   21  O   UNL     1       4.468  26.485  47.282  1.00  0.00    -0.361 OA
HETATM   22  H   UNL     1       4.374  26.799  46.366  1.00  0.00     0.217 HD
ENDBRANCH  17  21
ENDBRANCH  12  15
ENDBRANCH   7  11
BRANCH   1  23
HETATM   23  C   UNL     1       6.432  24.187  55.171  1.00  0.00    -0.035 A 
HETATM   24  C   UNL     1       7.114  23.279  55.995  1.00  0.00     0.012 A 
HETATM   25  C   UNL     1       8.135  22.470  55.482  1.00  0.00     0.037 A 
HETATM   26  C   UNL     1       8.496  22.548  54.139  1.00  0.00     0.068 A 
HETATM   27  C   UNL     1       7.872  23.485  53.321  1.00  0.00     0.037 A 
HETATM   28  C   UNL     1       6.855  24.299  53.834  1.00  0.00     0.012 A 
BRANCH  26  29
HETATM   29  O   UNL     1       9.479  21.681  53.746  1.00  0.00    -0.356 OA
HETATM   30  C   UNL     1       9.035  20.418  53.264  1.00  0.00     0.210 C 
ENDBRANCH  26  29
ENDBRANCH   1  23
BRANCH   8  31
HETATM   31  C   UNL     1       7.908  26.635  56.984  1.00  0.00     0.409 C 
HETATM   32  F   UNL     1       8.242  25.547  57.701  1.00  0.00    -0.169 F 
HETATM   33  F   UNL     1       8.395  26.459  55.734  1.00  0.00    -0.169 F 
HETATM   34  F   UNL     1       8.593  27.686  57.507  1.00  0.00    -0.169 F 
ENDBRANCH   8  31
TORSDOF 6
ENDMDL
MODEL 9
REMARK VINA RESULT:      -8.4      1.693      2.295
REMARK  6 active torsions:
REMARK  status: ('A' for Active; 'I' for Inactive)
REMARK    1  A    between atoms: O_2  and  C_3 
REMARK    2  A    between atoms: C_6  and  C_7 
REMARK    3  A    between atoms: C_13  and  C_14 
REMARK       I    between atoms: C_14  and  N_15 
REMARK    4  A    between atoms: N_15  and  C_16 
REMARK    5  A    between atoms: C_18  and  O_19 
REMARK    6  A    between atoms: C_24  and  C_25 
ROOT
HETATM    1  C   UNL     1       7.884  26.443  53.769  1.00  0.00     0.118 C 
HETATM    2  N   UNL     1       7.283  27.617  54.420  1.00  0.00    -0.365 N 
HETATM    3  C   UNL     1       5.964  27.919  54.241  1.00  0.00     0.138 A 
HETATM    4  N   UNL     1       5.178  27.197  53.373  1.00  0.00    -0.240 N 
HETATM    5  N   UNL     1       3.941  27.691  53.220  1.00  0.00    -0.181 NA
HETATM    6  C   UNL     1       3.915  28.720  54.071  1.00  0.00     0.160 A 
HETATM    7  C   UNL     1       5.148  28.921  54.739  1.00  0.00     0.096 A 
HETATM    8  C   UNL     1       5.660  26.139  52.505  1.00  0.00     0.221 C 
HETATM    9  C   UNL     1       7.195  26.188  52.417  1.00  0.00     0.066 C 
HETATM   10  H   UNL     1       7.948  28.385  54.523  1.00  0.00     0.161 HD
ENDROOT
BRANCH   7  11
HETATM   11  C   UNL     1       5.430  29.985  55.693  1.00  0.00     0.261 C 
HETATM   12  N   UNL     1       5.985  29.543  56.878  1.00  0.00    -0.323 N 
HETATM   13  H   UNL     1       6.007  28.536  56.997  1.00  0.00     0.169 HD
HETATM   14  O   UNL     1       5.178  31.150  55.410  1.00  0.00    -0.267 OA
BRANCH  12  15
HETATM   15  C   UNL     1       6.516  30.321  57.927  1.00  0.00     0.037 A 
HETATM   16  C   UNL     1       7.725  30.041  58.571  1.00  0.00     0.066 A 
HETATM   17  C   UNL     1       8.155  30.847  59.624  1.00  0.00     0.067 A 
HETATM   18  C   UNL     1       7.396  31.927  60.057  1.00  0.00     0.036 A 
HETATM   19  C   UNL     1       6.193  32.215  59.421  1.00  0.00     0.005 A 
HETATM   20  C   UNL     1       5.758  31.420  58.357  1.00  0.00     0.029 A 
BRANCH  17  21
HETATM   21  O   UNL     1       9.334  30.603  60.267  1.00  0.00    -0.361 OA
HETATM   22  H   UNL     1       9.184  30.684  61.225  1.00  0.00     0.217 HD
ENDBRANCH  17  21
ENDBRANCH  12  15
ENDBRANCH   7  11
BRANCH   1  23
HETATM   23  C   UNL     1       7.954  25.226  54.679  1.00  0.00    -0.035 A 
HETATM   24  C   UNL     1       8.339  23.955  54.227  1.00  0.00     0.012 A 
HETATM   25  C   UNL     1       8.444  22.878  55.115  1.00  0.00     0.037 A 
HETATM   26  C   UNL     1       8.168  23.044  56.470  1.00  0.00     0.068 A 
HETATM   27  C   UNL     1       7.726  24.282  56.926  1.00  0.00     0.037 A 
HETATM   28  C   UNL     1       7.615  25.359  56.039  1.00  0.00     0.012 A 
BRANCH  26  29
HETATM   29  O   UNL     1       8.343  21.929  57.244  1.00  0.00    -0.356 OA
HETATM   30  C   UNL     1       8.601  20.720  56.539  1.00  0.00     0.210 C 
ENDBRANCH  26  29
ENDBRANCH   1  23
BRANCH   8  31
HETATM   31  C   UNL     1       5.087  24.806  52.930  1.00  0.00     0.409 C 
HETATM   32  F   UNL     1       3.913  24.501  52.347  1.00  0.00    -0.169 F 
HETATM   33  F   UNL     1       5.940  23.787  52.675  1.00  0.00    -0.169 F 
HETATM   34  F   UNL     1       4.882  24.797  54.274  1.00  0.00    -0.169 F 
ENDBRANCH   8  31
TORSDOF 6
ENDMDL
MODEL 10
REMARK VINA RESULT:      -8.3      2.725      7.911
REMARK  6 active torsions:
REMARK  status: ('A' for Active; 'I' for Inactive)
REMARK    1  A    between atoms: O_2  and  C_3 
REMARK    2  A    between atoms: C_6  and  C_7 
REMARK    3  A    between atoms: C_13  and  C_14 
REMARK       I    between atoms: C_14  and  N_15 
REMARK    4  A    between atoms: N_15  and  C_16 
REMARK    5  A    between atoms: C_18  and  O_19 
REMARK    6  A    between atoms: C_24  and  C_25 
ROOT
HETATM    1  C   UNL     1       5.019  27.621  56.796  1.00  0.00     0.118 C 
HETATM    2  N   UNL     1       5.225  26.578  55.779  1.00  0.00    -0.365 N 
HETATM    3  C   UNL     1       5.014  26.838  54.456  1.00  0.00     0.138 A 
HETATM    4  N   UNL     1       4.512  28.048  54.038  1.00  0.00    -0.240 N 
HETATM    5  N   UNL     1       4.252  28.104  52.723  1.00  0.00    -0.181 NA
HETATM    6  C   UNL     1       4.667  26.916  52.278  1.00  0.00     0.160 A 
HETATM    7  C   UNL     1       5.152  26.074  53.309  1.00  0.00     0.096 A 
HETATM    8  C   UNL     1       4.067  29.110  54.921  1.00  0.00     0.221 C 
HETATM    9  C   UNL     1       3.890  28.567  56.350  1.00  0.00     0.066 C 
HETATM   10  H   UNL     1       5.005  25.645  56.133  1.00  0.00     0.161 HD
ENDROOT
BRANCH   7  11
HETATM   11  C   UNL     1       5.635  24.711  53.133  1.00  0.00     0.261 C 
HETATM   12  N   UNL     1       6.655  24.362  53.996  1.00  0.00    -0.323 N 
HETATM   13  H   UNL     1       7.033  25.122  54.551  1.00  0.00     0.169 HD
HETATM   14  O   UNL     1       5.138  23.986  52.279  1.00  0.00    -0.267 OA
BRANCH  12  15
HETATM   15  C   UNL     1       7.224  23.086  54.190  1.00  0.00     0.037 A 
HETATM   16  C   UNL     1       7.531  22.203  53.151  1.00  0.00     0.066 A 
HETATM   17  C   UNL     1       8.058  20.945  53.439  1.00  0.00     0.067 A 
HETATM   18  C   UNL     1       8.278  20.543  54.751  1.00  0.00     0.036 A 
HETATM   19  C   UNL     1       7.977  21.416  55.792  1.00  0.00     0.005 A 
HETATM   20  C   UNL     1       7.458  22.683  55.513  1.00  0.00     0.029 A 
BRANCH  17  21
HETATM   21  O   UNL     1       8.374  20.065  52.445  1.00  0.00    -0.361 OA
HETATM   22  H   UNL     1       9.089  20.451  51.909  1.00  0.00     0.217 HD
ENDBRANCH  17  21
ENDBRANCH  12  15
ENDBRANCH   7  11
BRANCH   1  23
HETATM   23  C   UNL     1       6.306  28.323  57.200  1.00  0.00    -0.035 A 
HETATM   24  C   UNL     1       6.326  29.527  57.920  1.00  0.00     0.012 A 
HETATM   25  C   UNL     1       7.536  30.106  58.319  1.00  0.00     0.037 A 
HETATM   26  C   UNL     1       8.751  29.498  58.010  1.00  0.00     0.068 A 
HETATM   27  C   UNL     1       8.753  28.336  57.245  1.00  0.00     0.037 A 
HETATM   28  C   UNL     1       7.544  27.759  56.840  1.00  0.00     0.012 A 
BRANCH  26  29
HETATM   29  O   UNL     1       9.863  30.137  58.487  1.00  0.00    -0.356 OA
HETATM   30  C   UNL     1      10.500  31.030  57.580  1.00  0.00     0.210 C 
ENDBRANCH  26  29
ENDBRANCH   1  23
BRANCH   8  31
HETATM   31  C   UNL     1       4.978  30.310  54.803  1.00  0.00     0.409 C 
HETATM   32  F   UNL     1       4.915  31.156  55.848  1.00  0.00    -0.169 F 
HETATM   33  F   UNL     1       6.274  29.947  54.657  1.00  0.00    -0.169 F 
HETATM   34  F   UNL     1       4.662  31.024  53.690  1.00  0.00    -0.169 F 
ENDBRANCH   8  31
TORSDOF 6
ENDMDL
