MODEL 1
REMARK VINA RESULT:      -9.5      0.000      0.000
REMARK  10 active torsions:
REMARK  status: ('A' for Active; 'I' for Inactive)
REMARK    1  A    between atoms: C_8  and  N_9 
REMARK    2  A    between atoms: C_10  and  S_11 
REMARK    3  A    between atoms: S_11  and  C_12 
REMARK    4  A    between atoms: C_12  and  C_13 
REMARK       I    between atoms: C_13  and  N_14 
REMARK    5  A    between atoms: N_14  and  C_15 
REMARK    6  A    between atoms: C_15  and  C_16 
REMARK    7  A    between atoms: C_16  and  C_17 
REMARK    8  A    between atoms: C_19  and  O_20 
REMARK    9  A    between atoms: C_22  and  O_23 
REMARK   10  A    between atoms: C_31  and  N_32 
ROOT
HETATM    1  N   UNL     1       5.786  28.786  56.066  1.00  0.00    -0.275 N 
HETATM    2  C   UNL     1       6.650  29.501  56.939  1.00  0.00     0.177 A 
HETATM    3  N   UNL     1       6.516  30.757  57.291  1.00  0.00    -0.204 NA
HETATM    4  C   UNL     1       5.442  31.366  56.745  1.00  0.00     0.162 A 
HETATM    5  C   UNL     1       4.507  30.868  55.878  1.00  0.00     0.081 A 
HETATM    6  C   UNL     1       4.664  29.503  55.472  1.00  0.00     0.124 A 
HETATM    7  N   UNL     1       5.063  32.656  56.978  1.00  0.00    -0.260 N 
HETATM    8  H   UNL     1       5.513  33.336  57.580  1.00  0.00     0.191 HD
HETATM    9  N   UNL     1       3.948  33.009  56.302  1.00  0.00    -0.177 NA
HETATM   10  C   UNL     1       3.597  31.903  55.625  1.00  0.00     0.068 A 
HETATM   11  C   UNL     1       2.385  31.927  54.773  1.00  0.00     0.073 C 
ENDROOT
BRANCH   2  12
HETATM   12  S   UNL     1       8.051  28.684  57.660  1.00  0.00    -0.082 SA
BRANCH  12  13
HETATM   13  C   UNL     1       8.400  29.850  59.009  1.00  0.00     0.185 C 
BRANCH  13  14
HETATM   14  C   UNL     1       9.578  30.761  58.689  1.00  0.00     0.227 C 
HETATM   15  N   UNL     1       9.761  31.874  59.473  1.00  0.00    -0.360 N 
HETATM   16  H   UNL     1      10.532  32.455  59.153  1.00  0.00     0.162 HD
HETATM   17  O   UNL     1      10.397  30.536  57.800  1.00  0.00    -0.273 OA
BRANCH  15  18
HETATM   18  C   UNL     1       8.831  32.407  60.450  1.00  0.00     0.127 C 
BRANCH  18  19
HETATM   19  C   UNL     1       9.064  31.872  61.863  1.00  0.00     0.058 C 
BRANCH  19  20
HETATM   20  C   UNL     1       7.866  32.165  62.733  1.00  0.00    -0.054 A 
HETATM   21  C   UNL     1       6.588  31.717  62.358  1.00  0.00     0.046 A 
HETATM   22  C   UNL     1       5.460  32.059  63.114  1.00  0.00     0.102 A 
HETATM   23  C   UNL     1       5.607  32.862  64.261  1.00  0.00     0.101 A 
HETATM   24  C   UNL     1       6.882  33.290  64.645  1.00  0.00     0.040 A 
HETATM   25  C   UNL     1       8.002  32.946  63.884  1.00  0.00     0.010 A 
BRANCH  22  26
HETATM   26  O   UNL     1       4.176  31.684  62.803  1.00  0.00    -0.353 OA
HETATM   27  C   UNL     1       3.635  32.128  61.569  1.00  0.00     0.210 C 
ENDBRANCH  22  26
BRANCH  23  28
HETATM   28  O   UNL     1       4.452  33.169  64.938  1.00  0.00    -0.353 OA
HETATM   29  C   UNL     1       4.004  34.516  64.898  1.00  0.00     0.210 C 
ENDBRANCH  23  28
ENDBRANCH  19  20
ENDBRANCH  18  19
ENDBRANCH  15  18
ENDBRANCH  13  14
ENDBRANCH  12  13
ENDBRANCH   2  12
BRANCH   1  30
HETATM   30  C   UNL     1       5.979  27.395  55.794  1.00  0.00     0.051 A 
HETATM   31  C   UNL     1       6.769  26.962  54.702  1.00  0.00    -0.013 A 
HETATM   32  C   UNL     1       7.360  27.948  53.724  1.00  0.00     0.052 C 
HETATM   33  C   UNL     1       7.015  25.583  54.558  1.00  0.00     0.042 A 
HETATM   34 CL   UNL     1       8.035  24.968  53.305  1.00  0.00    -0.084 Cl
HETATM   35  C   UNL     1       6.463  24.657  55.447  1.00  0.00     0.024 A 
HETATM   36  C   UNL     1       5.668  25.087  56.504  1.00  0.00     0.004 A 
HETATM   37  C   UNL     1       5.439  26.449  56.685  1.00  0.00     0.031 A 
ENDBRANCH   1  30
BRANCH   6  38
HETATM   38  N   UNL     1       3.845  28.949  54.598  1.00  0.00    -0.384 N 
HETATM   39  H   UNL     1       4.108  28.135  54.063  1.00  0.00     0.157 HD
HETATM   40  H   UNL     1       2.918  29.332  54.462  1.00  0.00     0.157 HD
ENDBRANCH   6  38
TORSDOF 10
ENDMDL
MODEL 2
REMARK VINA RESULT:      -9.1      1.655      2.090
REMARK  10 active torsions:
REMARK  status: ('A' for Active; 'I' for Inactive)
REMARK    1  A    between atoms: C_8  and  N_9 
REMARK    2  A    between atoms: C_10  and  S_11 
REMARK    3  A    between atoms: S_11  and  C_12 
REMARK    4  A    between atoms: C_12  and  C_13 
REMARK       I    between atoms: C_13  and  N_14 
REMARK    5  A    between atoms: N_14  and  C_15 
REMARK    6  A    between atoms: C_15  and  C_16 
REMARK    7  A    between atoms: C_16  and  C_17 
REMARK    8  A    between atoms: C_19  and  O_20 
REMARK    9  A    between atoms: C_22  and  O_23 
REMARK   10  A    between atoms: C_31  and  N_32 
ROOT
HETATM    1  N   UNL     1       6.291  26.793  54.989  1.00  0.00    -0.275 N 
HETATM    2  C   UNL     1       6.874  27.865  55.717  1.00  0.00     0.177 A 
HETATM    3  N   UNL     1       6.513  29.124  55.649  1.00  0.00    -0.204 NA
HETATM    4  C   UNL     1       5.490  29.354  54.799  1.00  0.00     0.162 A 
HETATM    5  C   UNL     1       4.809  28.475  54.001  1.00  0.00     0.081 A 
HETATM    6  C   UNL     1       5.217  27.103  54.054  1.00  0.00     0.124 A 
HETATM    7  N   UNL     1       4.910  30.567  54.575  1.00  0.00    -0.260 N 
HETATM    8  H   UNL     1       5.145  31.457  54.999  1.00  0.00     0.191 HD
HETATM    9  N   UNL     1       3.905  30.513  53.672  1.00  0.00    -0.177 NA
HETATM   10  C   UNL     1       3.835  29.219  53.320  1.00  0.00     0.068 A 
HETATM   11  C   UNL     1       2.813  28.787  52.338  1.00  0.00     0.073 C 
ENDROOT
BRANCH   2  12
HETATM   12  S   UNL     1       8.209  27.545  56.842  1.00  0.00    -0.082 SA
BRANCH  12  13
HETATM   13  C   UNL     1       7.993  28.965  57.956  1.00  0.00     0.185 C 
BRANCH  13  14
HETATM   14  C   UNL     1       9.228  29.854  57.998  1.00  0.00     0.227 C 
HETATM   15  N   UNL     1       9.471  30.563  59.149  1.00  0.00    -0.360 N 
HETATM   16  H   UNL     1      10.280  31.173  59.069  1.00  0.00     0.162 HD
HETATM   17  O   UNL     1      10.042  29.941  57.080  1.00  0.00    -0.273 OA
BRANCH  15  18
HETATM   18  C   UNL     1       8.565  30.732  60.268  1.00  0.00     0.127 C 
BRANCH  18  19
HETATM   19  C   UNL     1       8.972  31.862  61.214  1.00  0.00     0.058 C 
BRANCH  19  20
HETATM   20  C   UNL     1       7.882  32.109  62.228  1.00  0.00    -0.054 A 
HETATM   21  C   UNL     1       6.547  31.789  61.930  1.00  0.00     0.046 A 
HETATM   22  C   UNL     1       5.519  32.095  62.831  1.00  0.00     0.102 A 
HETATM   23  C   UNL     1       5.827  32.733  64.048  1.00  0.00     0.101 A 
HETATM   24  C   UNL     1       7.159  33.032  64.352  1.00  0.00     0.040 A 
HETATM   25  C   UNL     1       8.178  32.725  63.447  1.00  0.00     0.010 A 
BRANCH  22  26
HETATM   26  O   UNL     1       4.189  31.839  62.605  1.00  0.00    -0.353 OA
HETATM   27  C   UNL     1       3.544  32.551  61.561  1.00  0.00     0.210 C 
ENDBRANCH  22  26
BRANCH  23  28
HETATM   28  O   UNL     1       4.764  33.016  64.869  1.00  0.00    -0.353 OA
HETATM   29  C   UNL     1       4.326  34.365  64.938  1.00  0.00     0.210 C 
ENDBRANCH  23  28
ENDBRANCH  19  20
ENDBRANCH  18  19
ENDBRANCH  15  18
ENDBRANCH  13  14
ENDBRANCH  12  13
ENDBRANCH   2  12
BRANCH   1  30
HETATM   30  C   UNL     1       6.712  25.440  55.182  1.00  0.00     0.051 A 
HETATM   31  C   UNL     1       7.514  24.775  54.222  1.00  0.00    -0.013 A 
HETATM   32  C   UNL     1       7.876  25.434  52.914  1.00  0.00     0.052 C 
HETATM   33  C   UNL     1       7.990  23.485  54.525  1.00  0.00     0.042 A 
HETATM   34 CL   UNL     1       9.043  22.630  53.453  1.00  0.00    -0.084 Cl
HETATM   35  C   UNL     1       7.651  22.855  55.726  1.00  0.00     0.024 A 
HETATM   36  C   UNL     1       6.843  23.505  56.654  1.00  0.00     0.004 A 
HETATM   37  C   UNL     1       6.388  24.794  56.390  1.00  0.00     0.031 A 
ENDBRANCH   1  30
BRANCH   6  38
HETATM   38  N   UNL     1       4.657  26.191  53.282  1.00  0.00    -0.384 N 
HETATM   39  H   UNL     1       4.325  26.409  52.354  1.00  0.00     0.157 HD
HETATM   40  H   UNL     1       4.566  25.238  53.611  1.00  0.00     0.157 HD
ENDBRANCH   6  38
TORSDOF 10
ENDMDL
MODEL 3
REMARK VINA RESULT:      -8.7      2.664      3.747
REMARK  10 active torsions:
REMARK  status: ('A' for Active; 'I' for Inactive)
REMARK    1  A    between atoms: C_8  and  N_9 
REMARK    2  A    between atoms: C_10  and  S_11 
REMARK    3  A    between atoms: S_11  and  C_12 
REMARK    4  A    between atoms: C_12  and  C_13 
REMARK       I    between atoms: C_13  and  N_14 
REMARK    5  A    between atoms: N_14  and  C_15 
REMARK    6  A    between atoms: C_15  and  C_16 
REMARK    7  A    between atoms: C_16  and  C_17 
REMARK    8  A    between atoms: C_19  and  O_20 
REMARK    9  A    between atoms: C_22  and  O_23 
REMARK   10  A    between atoms: C_31  and  N_32 
ROOT
HETATM    1  N   UNL     1       6.268  26.621  53.205  1.00  0.00    -0.275 N 
HETATM    2  C   UNL     1       6.851  27.862  53.576  1.00  0.00     0.177 A 
HETATM    3  N   UNL     1       6.594  29.025  53.026  1.00  0.00    -0.204 NA
HETATM    4  C   UNL     1       5.685  28.969  52.030  1.00  0.00     0.162 A 
HETATM    5  C   UNL     1       5.026  27.886  51.514  1.00  0.00     0.081 A 
HETATM    6  C   UNL     1       5.322  26.611  52.096  1.00  0.00     0.124 A 
HETATM    7  N   UNL     1       5.223  30.040  51.324  1.00  0.00    -0.260 N 
HETATM    8  H   UNL     1       5.479  31.015  51.434  1.00  0.00     0.191 HD
HETATM    9  N   UNL     1       4.316  29.700  50.382  1.00  0.00    -0.177 NA
HETATM   10  C   UNL     1       4.186  28.368  50.500  1.00  0.00     0.068 A 
HETATM   11  C   UNL     1       3.241  27.648  49.615  1.00  0.00     0.073 C 
ENDROOT
BRANCH   2  12
HETATM   12  S   UNL     1       8.035  27.922  54.897  1.00  0.00    -0.082 SA
BRANCH  12  13
HETATM   13  C   UNL     1       6.967  28.588  56.209  1.00  0.00     0.185 C 
BRANCH  13  14
HETATM   14  C   UNL     1       7.436  28.170  57.596  1.00  0.00     0.227 C 
HETATM   15  N   UNL     1       7.583  29.151  58.548  1.00  0.00    -0.360 N 
HETATM   16  H   UNL     1       7.954  28.793  59.423  1.00  0.00     0.162 HD
HETATM   17  O   UNL     1       7.647  27.005  57.926  1.00  0.00    -0.273 OA
BRANCH  15  18
HETATM   18  C   UNL     1       7.548  30.584  58.325  1.00  0.00     0.127 C 
BRANCH  18  19
HETATM   19  C   UNL     1       8.609  31.346  59.119  1.00  0.00     0.058 C 
BRANCH  19  20
HETATM   20  C   UNL     1       8.021  31.861  60.410  1.00  0.00    -0.054 A 
HETATM   21  C   UNL     1       6.721  32.393  60.437  1.00  0.00     0.046 A 
HETATM   22  C   UNL     1       6.202  32.953  61.611  1.00  0.00     0.102 A 
HETATM   23  C   UNL     1       6.992  32.985  62.776  1.00  0.00     0.101 A 
HETATM   24  C   UNL     1       8.277  32.436  62.753  1.00  0.00     0.040 A 
HETATM   25  C   UNL     1       8.789  31.882  61.577  1.00  0.00     0.010 A 
BRANCH  22  26
HETATM   26  O   UNL     1       4.953  33.514  61.715  1.00  0.00    -0.353 OA
HETATM   27  C   UNL     1       3.906  32.954  60.937  1.00  0.00     0.210 C 
ENDBRANCH  22  26
BRANCH  23  28
HETATM   28  O   UNL     1       6.418  33.566  63.880  1.00  0.00    -0.353 OA
HETATM   29  C   UNL     1       7.116  33.469  65.113  1.00  0.00     0.210 C 
ENDBRANCH  23  28
ENDBRANCH  19  20
ENDBRANCH  18  19
ENDBRANCH  15  18
ENDBRANCH  13  14
ENDBRANCH  12  13
ENDBRANCH   2  12
BRANCH   1  30
HETATM   30  C   UNL     1       6.564  25.413  53.911  1.00  0.00     0.051 A 
HETATM   31  C   UNL     1       7.485  24.468  53.397  1.00  0.00    -0.013 A 
HETATM   32  C   UNL     1       8.117  24.649  52.039  1.00  0.00     0.052 C 
HETATM   33  C   UNL     1       7.819  23.356  54.196  1.00  0.00     0.042 A 
HETATM   34 CL   UNL     1       8.995  22.195  53.688  1.00  0.00    -0.084 Cl
HETATM   35  C   UNL     1       7.231  23.166  55.449  1.00  0.00     0.024 A 
HETATM   36  C   UNL     1       6.309  24.086  55.937  1.00  0.00     0.004 A 
HETATM   37  C   UNL     1       5.988  25.209  55.179  1.00  0.00     0.031 A 
ENDBRANCH   1  30
BRANCH   6  38
HETATM   38  N   UNL     1       4.778  25.502  51.631  1.00  0.00    -0.384 N 
HETATM   39  H   UNL     1       4.758  24.651  52.171  1.00  0.00     0.157 HD
HETATM   40  H   UNL     1       4.350  25.497  50.713  1.00  0.00     0.157 HD
ENDBRANCH   6  38
TORSDOF 10
ENDMDL
MODEL 4
REMARK VINA RESULT:      -8.7      3.022      8.046
REMARK  10 active torsions:
REMARK  status: ('A' for Active; 'I' for Inactive)
REMARK    1  A    between atoms: C_8  and  N_9 
REMARK    2  A    between atoms: C_10  and  S_11 
REMARK    3  A    between atoms: S_11  and  C_12 
REMARK    4  A    between atoms: C_12  and  C_13 
REMARK       I    between atoms: C_13  and  N_14 
REMARK    5  A    between atoms: N_14  and  C_15 
REMARK    6  A    between atoms: C_15  and  C_16 
REMARK    7  A    between atoms: C_16  and  C_17 
REMARK    8  A    between atoms: C_19  and  O_20 
REMARK    9  A    between atoms: C_22  and  O_23 
REMARK   10  A    between atoms: C_31  and  N_32 
ROOT
HETATM    1  N   UNL     1       7.216  31.377  59.495  1.00  0.00    -0.275 N 
HETATM    2  C   UNL     1       6.230  32.254  58.968  1.00  0.00     0.177 A 
HETATM    3  N   UNL     1       5.580  33.171  59.643  1.00  0.00    -0.204 NA
HETATM    4  C   UNL     1       5.927  33.239  60.946  1.00  0.00     0.162 A 
HETATM    5  C   UNL     1       6.830  32.485  61.646  1.00  0.00     0.081 A 
HETATM    6  C   UNL     1       7.524  31.466  60.916  1.00  0.00     0.124 A 
HETATM    7  N   UNL     1       5.423  34.127  61.851  1.00  0.00    -0.260 N 
HETATM    8  H   UNL     1       4.734  34.853  61.692  1.00  0.00     0.191 HD
HETATM    9  N   UNL     1       5.946  33.974  63.087  1.00  0.00    -0.177 NA
HETATM   10  C   UNL     1       6.822  32.963  62.963  1.00  0.00     0.068 A 
HETATM   11  C   UNL     1       7.603  32.529  64.145  1.00  0.00     0.073 C 
ENDROOT
BRANCH   2  12
HETATM   12  S   UNL     1       5.793  32.163  57.250  1.00  0.00    -0.082 SA
BRANCH  12  13
HETATM   13  C   UNL     1       3.986  32.073  57.417  1.00  0.00     0.185 C 
BRANCH  13  14
HETATM   14  C   UNL     1       3.533  30.761  58.044  1.00  0.00     0.227 C 
HETATM   15  N   UNL     1       3.861  29.593  57.398  1.00  0.00    -0.360 N 
HETATM   16  H   UNL     1       3.469  28.773  57.852  1.00  0.00     0.162 HD
HETATM   17  O   UNL     1       2.931  30.684  59.113  1.00  0.00    -0.273 OA
BRANCH  15  18
HETATM   18  C   UNL     1       4.411  29.469  56.062  1.00  0.00     0.127 C 
BRANCH  18  19
HETATM   19  C   UNL     1       4.013  28.170  55.361  1.00  0.00     0.058 C 
BRANCH  19  20
HETATM   20  C   UNL     1       5.089  27.128  55.547  1.00  0.00    -0.054 A 
HETATM   21  C   UNL     1       6.054  26.916  54.548  1.00  0.00     0.046 A 
HETATM   22  C   UNL     1       7.002  25.893  54.675  1.00  0.00     0.102 A 
HETATM   23  C   UNL     1       6.986  25.066  55.815  1.00  0.00     0.101 A 
HETATM   24  C   UNL     1       6.038  25.292  56.818  1.00  0.00     0.040 A 
HETATM   25  C   UNL     1       5.095  26.314  56.682  1.00  0.00     0.010 A 
BRANCH  22  26
HETATM   26  O   UNL     1       7.961  25.604  53.736  1.00  0.00    -0.353 OA
HETATM   27  C   UNL     1       7.529  25.303  52.417  1.00  0.00     0.210 C 
ENDBRANCH  22  26
BRANCH  23  28
HETATM   28  O   UNL     1       7.936  24.075  55.857  1.00  0.00    -0.353 OA
HETATM   29  C   UNL     1       8.566  23.820  57.104  1.00  0.00     0.210 C 
ENDBRANCH  23  28
ENDBRANCH  19  20
ENDBRANCH  18  19
ENDBRANCH  15  18
ENDBRANCH  13  14
ENDBRANCH  12  13
ENDBRANCH   2  12
BRANCH   1  30
HETATM   30  C   UNL     1       7.920  30.453  58.660  1.00  0.00     0.051 A 
HETATM   31  C   UNL     1       9.273  30.669  58.302  1.00  0.00    -0.013 A 
HETATM   32  C   UNL     1       9.998  31.929  58.707  1.00  0.00     0.052 C 
HETATM   33  C   UNL     1       9.941  29.664  57.575  1.00  0.00     0.042 A 
HETATM   34 CL   UNL     1      11.615  29.802  57.166  1.00  0.00    -0.084 Cl
HETATM   35  C   UNL     1       9.279  28.499  57.180  1.00  0.00     0.024 A 
HETATM   36  C   UNL     1       7.943  28.305  57.515  1.00  0.00     0.004 A 
HETATM   37  C   UNL     1       7.272  29.269  58.262  1.00  0.00     0.031 A 
ENDBRANCH   1  30
BRANCH   6  38
HETATM   38  N   UNL     1       8.374  30.653  61.515  1.00  0.00    -0.384 N 
HETATM   39  H   UNL     1       8.165  29.676  61.659  1.00  0.00     0.157 HD
HETATM   40  H   UNL     1       9.271  31.001  61.829  1.00  0.00     0.157 HD
ENDBRANCH   6  38
TORSDOF 10
ENDMDL
MODEL 5
REMARK VINA RESULT:      -8.6      6.279     11.478
REMARK  10 active torsions:
REMARK  status: ('A' for Active; 'I' for Inactive)
REMARK    1  A    between atoms: C_8  and  N_9 
REMARK    2  A    between atoms: C_10  and  S_11 
REMARK    3  A    between atoms: S_11  and  C_12 
REMARK    4  A    between atoms: C_12  and  C_13 
REMARK       I    between atoms: C_13  and  N_14 
REMARK    5  A    between atoms: N_14  and  C_15 
REMARK    6  A    between atoms: C_15  and  C_16 
REMARK    7  A    between atoms: C_16  and  C_17 
REMARK    8  A    between atoms: C_19  and  O_20 
REMARK    9  A    between atoms: C_22  and  O_23 
REMARK   10  A    between atoms: C_31  and  N_32 
ROOT
HETATM    1  N   UNL     1       7.018  26.099  55.434  1.00  0.00    -0.275 N 
HETATM    2  C   UNL     1       7.278  26.192  54.040  1.00  0.00     0.177 A 
HETATM    3  N   UNL     1       7.781  25.243  53.288  1.00  0.00    -0.204 NA
HETATM    4  C   UNL     1       8.047  24.100  53.956  1.00  0.00     0.162 A 
HETATM    5  C   UNL     1       7.888  23.813  55.285  1.00  0.00     0.081 A 
HETATM    6  C   UNL     1       7.363  24.857  56.114  1.00  0.00     0.124 A 
HETATM    7  N   UNL     1       8.541  22.958  53.398  1.00  0.00    -0.260 N 
HETATM    8  H   UNL     1       8.775  22.791  52.426  1.00  0.00     0.191 HD
HETATM    9  N   UNL     1       8.715  21.965  54.298  1.00  0.00    -0.177 NA
HETATM   10  C   UNL     1       8.306  22.487  55.465  1.00  0.00     0.068 A 
HETATM   11  C   UNL     1       8.344  21.653  56.689  1.00  0.00     0.073 C 
ENDROOT
BRANCH   2  12
HETATM   12  S   UNL     1       6.909  27.696  53.171  1.00  0.00    -0.082 SA
BRANCH  12  13
HETATM   13  C   UNL     1       5.498  27.118  52.183  1.00  0.00     0.185 C 
BRANCH  13  14
HETATM   14  C   UNL     1       4.400  28.168  52.082  1.00  0.00     0.227 C 
HETATM   15  N   UNL     1       4.385  28.978  50.972  1.00  0.00    -0.360 N 
HETATM   16  H   UNL     1       3.658  29.686  51.015  1.00  0.00     0.162 HD
HETATM   17  O   UNL     1       3.503  28.304  52.912  1.00  0.00    -0.273 OA
BRANCH  15  18
HETATM   18  C   UNL     1       5.430  29.094  49.973  1.00  0.00     0.127 C 
BRANCH  18  19
HETATM   19  C   UNL     1       4.962  29.770  48.684  1.00  0.00     0.058 C 
BRANCH  19  20
HETATM   20  C   UNL     1       3.767  29.042  48.120  1.00  0.00    -0.054 A 
HETATM   21  C   UNL     1       3.863  27.687  47.762  1.00  0.00     0.046 A 
HETATM   22  C   UNL     1       2.785  27.028  47.157  1.00  0.00     0.102 A 
HETATM   23  C   UNL     1       1.592  27.732  46.903  1.00  0.00     0.101 A 
HETATM   24  C   UNL     1       1.491  29.075  47.279  1.00  0.00     0.040 A 
HETATM   25  C   UNL     1       2.572  29.725  47.880  1.00  0.00     0.010 A 
BRANCH  22  26
HETATM   26  O   UNL     1       2.806  25.715  46.756  1.00  0.00    -0.353 OA
HETATM   27  C   UNL     1       3.053  24.723  47.741  1.00  0.00     0.210 C 
ENDBRANCH  22  26
BRANCH  23  28
HETATM   28  O   UNL     1       0.589  27.022  46.292  1.00  0.00    -0.353 OA
HETATM   29  C   UNL     1      -0.368  27.751  45.537  1.00  0.00     0.210 C 
ENDBRANCH  23  28
ENDBRANCH  19  20
ENDBRANCH  18  19
ENDBRANCH  15  18
ENDBRANCH  13  14
ENDBRANCH  12  13
ENDBRANCH   2  12
BRANCH   1  30
HETATM   30  C   UNL     1       6.404  27.171  56.155  1.00  0.00     0.051 A 
HETATM   31  C   UNL     1       7.180  28.102  56.888  1.00  0.00    -0.013 A 
HETATM   32  C   UNL     1       8.675  27.945  57.018  1.00  0.00     0.052 C 
HETATM   33  C   UNL     1       6.525  29.200  57.480  1.00  0.00     0.042 A 
HETATM   34 CL   UNL     1       7.398  30.431  58.323  1.00  0.00    -0.084 Cl
HETATM   35  C   UNL     1       5.139  29.350  57.382  1.00  0.00     0.024 A 
HETATM   36  C   UNL     1       4.381  28.419  56.680  1.00  0.00     0.004 A 
HETATM   37  C   UNL     1       5.011  27.344  56.059  1.00  0.00     0.031 A 
ENDBRANCH   1  30
BRANCH   6  38
HETATM   38  N   UNL     1       7.224  24.693  57.416  1.00  0.00    -0.384 N 
HETATM   39  H   UNL     1       6.322  24.744  57.866  1.00  0.00     0.157 HD
HETATM   40  H   UNL     1       8.034  24.494  57.989  1.00  0.00     0.157 HD
ENDBRANCH   6  38
TORSDOF 10
ENDMDL
MODEL 6
REMARK VINA RESULT:      -8.6      7.219     10.222
REMARK  10 active torsions:
REMARK  status: ('A' for Active; 'I' for Inactive)
REMARK    1  A    between atoms: C_8  and  N_9 
REMARK    2  A    between atoms: C_10  and  S_11 
REMARK    3  A    between atoms: S_11  and  C_12 
REMARK    4  A    between atoms: C_12  and  C_13 
REMARK       I    between atoms: C_13  and  N_14 
REMARK    5  A    between atoms: N_14  and  C_15 
REMARK    6  A    between atoms: C_15  and  C_16 
REMARK    7  A    between atoms: C_16  and  C_17 
REMARK    8  A    between atoms: C_19  and  O_20 
REMARK    9  A    between atoms: C_22  and  O_23 
REMARK   10  A    between atoms: C_31  and  N_32 
ROOT
HETATM    1  N   UNL     1       3.770  29.975  48.651  1.00  0.00    -0.275 N 
HETATM    2  C   UNL     1       3.860  30.148  50.059  1.00  0.00     0.177 A 
HETATM    3  N   UNL     1       4.546  31.080  50.675  1.00  0.00    -0.204 NA
HETATM    4  C   UNL     1       5.198  31.919  49.842  1.00  0.00     0.162 A 
HETATM    5  C   UNL     1       5.255  31.916  48.474  1.00  0.00     0.081 A 
HETATM    6  C   UNL     1       4.526  30.884  47.799  1.00  0.00     0.124 A 
HETATM    7  N   UNL     1       5.952  32.987  50.230  1.00  0.00    -0.260 N 
HETATM    8  H   UNL     1       6.132  33.311  51.173  1.00  0.00     0.191 HD
HETATM    9  N   UNL     1       6.493  33.657  49.189  1.00  0.00    -0.177 NA
HETATM   10  C   UNL     1       6.059  33.001  48.100  1.00  0.00     0.068 A 
HETATM   11  C   UNL     1       6.455  33.482  46.756  1.00  0.00     0.073 C 
ENDROOT
BRANCH   2  12
HETATM   12  S   UNL     1       2.985  29.046  51.142  1.00  0.00    -0.082 SA
BRANCH  12  13
HETATM   13  C   UNL     1       4.390  28.072  51.756  1.00  0.00     0.185 C 
BRANCH  13  14
HETATM   14  C   UNL     1       4.221  27.680  53.217  1.00  0.00     0.227 C 
HETATM   15  N   UNL     1       4.697  26.453  53.614  1.00  0.00    -0.360 N 
HETATM   16  H   UNL     1       4.489  26.249  54.587  1.00  0.00     0.162 HD
HETATM   17  O   UNL     1       3.723  28.412  54.071  1.00  0.00    -0.273 OA
BRANCH  15  18
HETATM   18  C   UNL     1       5.159  25.385  52.749  1.00  0.00     0.127 C 
BRANCH  18  19
HETATM   19  C   UNL     1       6.673  25.385  52.540  1.00  0.00     0.058 C 
BRANCH  19  20
HETATM   20  C   UNL     1       7.310  24.282  53.350  1.00  0.00    -0.054 A 
HETATM   21  C   UNL     1       7.597  24.475  54.711  1.00  0.00     0.046 A 
HETATM   22  C   UNL     1       8.267  23.490  55.448  1.00  0.00     0.102 A 
HETATM   23  C   UNL     1       8.658  22.293  54.816  1.00  0.00     0.101 A 
HETATM   24  C   UNL     1       8.352  22.094  53.466  1.00  0.00     0.040 A 
HETATM   25  C   UNL     1       7.686  23.084  52.738  1.00  0.00     0.010 A 
BRANCH  22  26
HETATM   26  O   UNL     1       8.607  23.609  56.773  1.00  0.00    -0.353 OA
HETATM   27  C   UNL     1       8.647  24.913  57.333  1.00  0.00     0.210 C 
ENDBRANCH  22  26
BRANCH  23  28
HETATM   28  O   UNL     1       9.325  21.385  55.600  1.00  0.00    -0.353 OA
HETATM   29  C   UNL     1       8.749  20.095  55.748  1.00  0.00     0.210 C 
ENDBRANCH  23  28
ENDBRANCH  19  20
ENDBRANCH  18  19
ENDBRANCH  15  18
ENDBRANCH  13  14
ENDBRANCH  12  13
ENDBRANCH   2  12
BRANCH   1  30
HETATM   30  C   UNL     1       2.939  28.966  48.072  1.00  0.00     0.051 A 
HETATM   31  C   UNL     1       3.417  27.649  47.865  1.00  0.00    -0.013 A 
HETATM   32  C   UNL     1       4.851  27.283  48.158  1.00  0.00     0.052 C 
HETATM   33  C   UNL     1       2.514  26.674  47.399  1.00  0.00     0.042 A 
HETATM   34 CL   UNL     1       2.985  25.023  47.196  1.00  0.00    -0.084 Cl
HETATM   35  C   UNL     1       1.187  27.001  47.109  1.00  0.00     0.024 A 
HETATM   36  C   UNL     1       0.730  28.302  47.292  1.00  0.00     0.004 A 
HETATM   37  C   UNL     1       1.596  29.275  47.783  1.00  0.00     0.031 A 
ENDBRANCH   1  30
BRANCH   6  38
HETATM   38  N   UNL     1       4.564  30.765  46.485  1.00  0.00    -0.384 N 
HETATM   39  H   UNL     1       5.087  31.407  45.907  1.00  0.00     0.157 HD
HETATM   40  H   UNL     1       4.074  30.004  46.033  1.00  0.00     0.157 HD
ENDBRANCH   6  38
TORSDOF 10
ENDMDL
MODEL 7
REMARK VINA RESULT:      -8.3      2.868      4.434
REMARK  10 active torsions:
REMARK  status: ('A' for Active; 'I' for Inactive)
REMARK    1  A    between atoms: C_8  and  N_9 
REMARK    2  A    between atoms: C_10  and  S_11 
REMARK    3  A    between atoms: S_11  and  C_12 
REMARK    4  A    between atoms: C_12  and  C_13 
REMARK       I    between atoms: C_13  and  N_14 
REMARK    5  A    between atoms: N_14  and  C_15 
REMARK    6  A    between atoms: C_15  and  C_16 
REMARK    7  A    between atoms: C_16  and  C_17 
REMARK    8  A    between atoms: C_19  and  O_20 
REMARK    9  A    between atoms: C_22  and  O_23 
REMARK   10  A    between atoms: C_31  and  N_32 
ROOT
HETATM    1  N   UNL     1       5.992  26.618  52.788  1.00  0.00    -0.275 N 
HETATM    2  C   UNL     1       6.473  27.939  52.994  1.00  0.00     0.177 A 
HETATM    3  N   UNL     1       6.194  28.981  52.248  1.00  0.00    -0.204 NA
HETATM    4  C   UNL     1       5.370  28.709  51.214  1.00  0.00     0.162 A 
HETATM    5  C   UNL     1       4.816  27.516  50.836  1.00  0.00     0.081 A 
HETATM    6  C   UNL     1       5.137  26.371  51.634  1.00  0.00     0.124 A 
HETATM    7  N   UNL     1       4.905  29.623  50.315  1.00  0.00    -0.260 N 
HETATM    8  H   UNL     1       5.096  30.618  50.285  1.00  0.00     0.191 HD
HETATM    9  N   UNL     1       4.095  29.078  49.381  1.00  0.00    -0.177 NA
HETATM   10  C   UNL     1       4.032  27.776  49.703  1.00  0.00     0.068 A 
HETATM   11  C   UNL     1       3.201  26.863  48.883  1.00  0.00     0.073 C 
ENDROOT
BRANCH   2  12
HETATM   12  S   UNL     1       7.545  28.286  54.366  1.00  0.00    -0.082 SA
BRANCH  12  13
HETATM   13  C   UNL     1       6.334  29.040  55.492  1.00  0.00     0.185 C 
BRANCH  13  14
HETATM   14  C   UNL     1       6.666  28.770  56.954  1.00  0.00     0.227 C 
HETATM   15  N   UNL     1       6.086  29.575  57.904  1.00  0.00    -0.360 N 
HETATM   16  H   UNL     1       6.408  29.364  58.844  1.00  0.00     0.162 HD
HETATM   17  O   UNL     1       7.387  27.850  57.335  1.00  0.00    -0.273 OA
BRANCH  15  18
HETATM   18  C   UNL     1       5.351  30.802  57.665  1.00  0.00     0.127 C 
BRANCH  18  19
HETATM   19  C   UNL     1       5.998  32.031  58.304  1.00  0.00     0.058 C 
BRANCH  19  20
HETATM   20  C   UNL     1       5.301  32.372  59.599  1.00  0.00    -0.054 A 
HETATM   21  C   UNL     1       5.958  32.195  60.828  1.00  0.00     0.046 A 
HETATM   22  C   UNL     1       5.288  32.425  62.037  1.00  0.00     0.102 A 
HETATM   23  C   UNL     1       3.942  32.836  62.019  1.00  0.00     0.101 A 
HETATM   24  C   UNL     1       3.296  33.033  60.795  1.00  0.00     0.040 A 
HETATM   25  C   UNL     1       3.971  32.798  59.594  1.00  0.00     0.010 A 
BRANCH  22  26
HETATM   26  O   UNL     1       5.849  32.252  63.278  1.00  0.00    -0.353 OA
HETATM   27  C   UNL     1       6.845  33.174  63.691  1.00  0.00     0.210 C 
ENDBRANCH  22  26
BRANCH  23  28
HETATM   28  O   UNL     1       3.351  33.024  63.244  1.00  0.00    -0.353 OA
HETATM   29  C   UNL     1       2.878  34.327  63.555  1.00  0.00     0.210 C 
ENDBRANCH  23  28
ENDBRANCH  19  20
ENDBRANCH  18  19
ENDBRANCH  15  18
ENDBRANCH  13  14
ENDBRANCH  12  13
ENDBRANCH   2  12
BRANCH   1  30
HETATM   30  C   UNL     1       6.299  25.559  53.698  1.00  0.00     0.051 A 
HETATM   31  C   UNL     1       7.340  24.637  53.429  1.00  0.00    -0.013 A 
HETATM   32  C   UNL     1       8.102  24.676  52.127  1.00  0.00     0.052 C 
HETATM   33  C   UNL     1       7.669  23.690  54.418  1.00  0.00     0.042 A 
HETATM   34 CL   UNL     1       8.978  22.580  54.212  1.00  0.00    -0.084 Cl
HETATM   35  C   UNL     1       6.962  23.631  55.622  1.00  0.00     0.024 A 
HETATM   36  C   UNL     1       5.925  24.524  55.870  1.00  0.00     0.004 A 
HETATM   37  C   UNL     1       5.605  25.491  54.921  1.00  0.00     0.031 A 
ENDBRANCH   1  30
BRANCH   6  38
HETATM   38  N   UNL     1       4.695  25.169  51.317  1.00  0.00    -0.384 N 
HETATM   39  H   UNL     1       5.065  24.334  51.746  1.00  0.00     0.157 HD
HETATM   40  H   UNL     1       3.951  25.067  50.638  1.00  0.00     0.157 HD
ENDBRANCH   6  38
TORSDOF 10
ENDMDL
MODEL 8
REMARK VINA RESULT:      -8.2      7.846     11.196
REMARK  10 active torsions:
REMARK  status: ('A' for Active; 'I' for Inactive)
REMARK    1  A    between atoms: C_8  and  N_9 
REMARK    2  A    between atoms: C_10  and  S_11 
REMARK    3  A    between atoms: S_11  and  C_12 
REMARK    4  A    between atoms: C_12  and  C_13 
REMARK       I    between atoms: C_13  and  N_14 
REMARK    5  A    between atoms: N_14  and  C_15 
REMARK    6  A    between atoms: C_15  and  C_16 
REMARK    7  A    between atoms: C_16  and  C_17 
REMARK    8  A    between atoms: C_19  and  O_20 
REMARK    9  A    between atoms: C_22  and  O_23 
REMARK   10  A    between atoms: C_31  and  N_32 
ROOT
HETATM    1  N   UNL     1       3.235  29.967  47.751  1.00  0.00    -0.275 N 
HETATM    2  C   UNL     1       3.592  28.605  47.558  1.00  0.00     0.177 A 
HETATM    3  N   UNL     1       2.809  27.667  47.084  1.00  0.00    -0.204 NA
HETATM    4  C   UNL     1       1.569  28.098  46.767  1.00  0.00     0.162 A 
HETATM    5  C   UNL     1       1.026  29.349  46.890  1.00  0.00     0.081 A 
HETATM    6  C   UNL     1       1.872  30.371  47.431  1.00  0.00     0.124 A 
HETATM    7  N   UNL     1       0.581  27.329  46.227  1.00  0.00    -0.260 N 
HETATM    8  H   UNL     1       0.621  26.346  45.983  1.00  0.00     0.191 HD
HETATM    9  N   UNL     1      -0.562  28.016  46.009  1.00  0.00    -0.177 NA
HETATM   10  C   UNL     1      -0.289  29.268  46.412  1.00  0.00     0.068 A 
HETATM   11  C   UNL     1      -1.334  30.312  46.300  1.00  0.00     0.073 C 
ENDROOT
BRANCH   2  12
HETATM   12  S   UNL     1       5.230  28.055  47.965  1.00  0.00    -0.082 SA
BRANCH  12  13
HETATM   13  C   UNL     1       4.966  27.638  49.714  1.00  0.00     0.185 C 
BRANCH  13  14
HETATM   14  C   UNL     1       4.542  26.188  49.900  1.00  0.00     0.227 C 
HETATM   15  N   UNL     1       4.943  25.542  51.044  1.00  0.00    -0.360 N 
HETATM   16  H   UNL     1       4.667  24.564  51.058  1.00  0.00     0.162 HD
HETATM   17  O   UNL     1       3.827  25.576  49.108  1.00  0.00    -0.273 OA
BRANCH  15  18
HETATM   18  C   UNL     1       5.913  26.018  52.011  1.00  0.00     0.127 C 
BRANCH  18  19
HETATM   19  C   UNL     1       7.262  25.304  51.918  1.00  0.00     0.058 C 
BRANCH  19  20
HETATM   20  C   UNL     1       7.420  24.340  53.069  1.00  0.00    -0.054 A 
HETATM   21  C   UNL     1       7.215  24.771  54.390  1.00  0.00     0.046 A 
HETATM   22  C   UNL     1       7.445  23.907  55.468  1.00  0.00     0.102 A 
HETATM   23  C   UNL     1       7.888  22.592  55.225  1.00  0.00     0.101 A 
HETATM   24  C   UNL     1       8.072  22.159  53.908  1.00  0.00     0.040 A 
HETATM   25  C   UNL     1       7.842  23.029  52.839  1.00  0.00     0.010 A 
BRANCH  22  26
HETATM   26  O   UNL     1       7.292  24.256  56.787  1.00  0.00    -0.353 OA
HETATM   27  C   UNL     1       8.258  25.123  57.361  1.00  0.00     0.210 C 
ENDBRANCH  22  26
BRANCH  23  28
HETATM   28  O   UNL     1       8.107  21.813  56.334  1.00  0.00    -0.353 OA
HETATM   29  C   UNL     1       7.903  20.413  56.205  1.00  0.00     0.210 C 
ENDBRANCH  23  28
ENDBRANCH  19  20
ENDBRANCH  18  19
ENDBRANCH  15  18
ENDBRANCH  13  14
ENDBRANCH  12  13
ENDBRANCH   2  12
BRANCH   1  30
HETATM   30  C   UNL     1       4.184  30.932  48.213  1.00  0.00     0.051 A 
HETATM   31  C   UNL     1       4.954  31.699  47.304  1.00  0.00    -0.013 A 
HETATM   32  C   UNL     1       4.875  31.461  45.816  1.00  0.00     0.052 C 
HETATM   33  C   UNL     1       5.785  32.712  47.820  1.00  0.00     0.042 A 
HETATM   34 CL   UNL     1       6.698  33.753  46.784  1.00  0.00    -0.084 Cl
HETATM   35  C   UNL     1       5.881  32.935  49.196  1.00  0.00     0.024 A 
HETATM   36  C   UNL     1       5.140  32.162  50.084  1.00  0.00     0.004 A 
HETATM   37  C   UNL     1       4.287  31.177  49.595  1.00  0.00     0.031 A 
ENDBRANCH   1  30
BRANCH   6  38
HETATM   38  N   UNL     1       1.422  31.594  47.638  1.00  0.00    -0.384 N 
HETATM   39  H   UNL     1       0.472  31.856  47.422  1.00  0.00     0.157 HD
HETATM   40  H   UNL     1       2.031  32.295  48.041  1.00  0.00     0.157 HD
ENDBRANCH   6  38
TORSDOF 10
ENDMDL
MODEL 9
REMARK VINA RESULT:      -7.9      5.004      7.972
REMARK  10 active torsions:
REMARK  status: ('A' for Active; 'I' for Inactive)
REMARK    1  A    between atoms: C_8  and  N_9 
REMARK    2  A    between atoms: C_10  and  S_11 
REMARK    3  A    between atoms: S_11  and  C_12 
REMARK    4  A    between atoms: C_12  and  C_13 
REMARK       I    between atoms: C_13  and  N_14 
REMARK    5  A    between atoms: N_14  and  C_15 
REMARK    6  A    between atoms: C_15  and  C_16 
REMARK    7  A    between atoms: C_16  and  C_17 
REMARK    8  A    between atoms: C_19  and  O_20 
REMARK    9  A    between atoms: C_22  and  O_23 
REMARK   10  A    between atoms: C_31  and  N_32 
ROOT
HETATM    1  N   UNL     1       3.735  28.105  50.262  1.00  0.00    -0.275 N 
HETATM    2  C   UNL     1       4.600  26.978  50.286  1.00  0.00     0.177 A 
HETATM    3  N   UNL     1       4.583  25.979  49.436  1.00  0.00    -0.204 NA
HETATM    4  C   UNL     1       3.641  26.096  48.475  1.00  0.00     0.162 A 
HETATM    5  C   UNL     1       2.710  27.081  48.286  1.00  0.00     0.081 A 
HETATM    6  C   UNL     1       2.710  28.161  49.227  1.00  0.00     0.124 A 
HETATM    7  N   UNL     1       3.441  25.211  47.457  1.00  0.00    -0.260 N 
HETATM    8  H   UNL     1       3.952  24.358  47.265  1.00  0.00     0.191 HD
HETATM    9  N   UNL     1       2.429  25.572  46.637  1.00  0.00    -0.177 NA
HETATM   10  C   UNL     1       1.979  26.731  47.142  1.00  0.00     0.068 A 
HETATM   11  C   UNL     1       0.859  27.432  46.470  1.00  0.00     0.073 C 
ENDROOT
BRANCH   2  12
HETATM   12  S   UNL     1       5.843  26.845  51.546  1.00  0.00    -0.082 SA
BRANCH  12  13
HETATM   13  C   UNL     1       4.955  25.772  52.714  1.00  0.00     0.185 C 
BRANCH  13  14
HETATM   14  C   UNL     1       5.864  25.252  53.819  1.00  0.00     0.227 C 
HETATM   15  N   UNL     1       5.901  25.950  55.002  1.00  0.00    -0.360 N 
HETATM   16  H   UNL     1       6.575  25.569  55.660  1.00  0.00     0.162 HD
HETATM   17  O   UNL     1       6.532  24.223  53.732  1.00  0.00    -0.273 OA
BRANCH  15  18
HETATM   18  C   UNL     1       5.330  27.260  55.252  1.00  0.00     0.127 C 
BRANCH  18  19
HETATM   19  C   UNL     1       6.243  28.410  54.827  1.00  0.00     0.058 C 
BRANCH  19  20
HETATM   20  C   UNL     1       6.825  29.087  56.044  1.00  0.00    -0.054 A 
HETATM   21  C   UNL     1       8.190  28.955  56.347  1.00  0.00     0.046 A 
HETATM   22  C   UNL     1       8.720  29.507  57.520  1.00  0.00     0.102 A 
HETATM   23  C   UNL     1       7.874  30.202  58.406  1.00  0.00     0.101 A 
HETATM   24  C   UNL     1       6.520  30.351  58.092  1.00  0.00     0.040 A 
HETATM   25  C   UNL     1       5.999  29.795  56.921  1.00  0.00     0.010 A 
BRANCH  22  26
HETATM   26  O   UNL     1      10.035  29.401  57.902  1.00  0.00    -0.353 OA
HETATM   27  C   UNL     1      11.029  29.833  56.985  1.00  0.00     0.210 C 
ENDBRANCH  22  26
BRANCH  23  28
HETATM   28  O   UNL     1       8.464  30.698  59.542  1.00  0.00    -0.353 OA
HETATM   29  C   UNL     1       8.764  32.086  59.576  1.00  0.00     0.210 C 
ENDBRANCH  23  28
ENDBRANCH  19  20
ENDBRANCH  18  19
ENDBRANCH  15  18
ENDBRANCH  13  14
ENDBRANCH  12  13
ENDBRANCH   2  12
BRANCH   1  30
HETATM   30  C   UNL     1       3.877  29.178  51.196  1.00  0.00     0.051 A 
HETATM   31  C   UNL     1       4.545  30.375  50.845  1.00  0.00    -0.013 A 
HETATM   32  C   UNL     1       5.219  30.531  49.503  1.00  0.00     0.052 C 
HETATM   33  C   UNL     1       4.549  31.437  51.770  1.00  0.00     0.042 A 
HETATM   34 CL   UNL     1       5.267  32.965  51.397  1.00  0.00    -0.084 Cl
HETATM   35  C   UNL     1       3.943  31.303  53.022  1.00  0.00     0.024 A 
HETATM   36  C   UNL     1       3.308  30.115  53.370  1.00  0.00     0.004 A 
HETATM   37  C   UNL     1       3.263  29.065  52.458  1.00  0.00     0.031 A 
ENDBRANCH   1  30
BRANCH   6  38
HETATM   38  N   UNL     1       1.816  29.129  49.159  1.00  0.00    -0.384 N 
HETATM   39  H   UNL     1       1.578  29.575  48.286  1.00  0.00     0.157 HD
HETATM   40  H   UNL     1       1.334  29.431  49.997  1.00  0.00     0.157 HD
ENDBRANCH   6  38
TORSDOF 10
ENDMDL
MODEL 10
REMARK VINA RESULT:      -7.9      4.122      6.633
REMARK  10 active torsions:
REMARK  status: ('A' for Active; 'I' for Inactive)
REMARK    1  A    between atoms: C_8  and  N_9 
REMARK    2  A    between atoms: C_10  and  S_11 
REMARK    3  A    between atoms: S_11  and  C_12 
REMARK    4  A    between atoms: C_12  and  C_13 
REMARK       I    between atoms: C_13  and  N_14 
REMARK    5  A    between atoms: N_14  and  C_15 
REMARK    6  A    between atoms: C_15  and  C_16 
REMARK    7  A    between atoms: C_16  and  C_17 
REMARK    8  A    between atoms: C_19  and  O_20 
REMARK    9  A    between atoms: C_22  and  O_23 
REMARK   10  A    between atoms: C_31  and  N_32 
ROOT
HETATM    1  N   UNL     1       4.607  27.964  52.085  1.00  0.00    -0.275 N 
HETATM    2  C   UNL     1       3.604  28.773  52.683  1.00  0.00     0.177 A 
HETATM    3  N   UNL     1       2.587  29.318  52.061  1.00  0.00    -0.204 NA
HETATM    4  C   UNL     1       2.544  29.044  50.740  1.00  0.00     0.162 A 
HETATM    5  C   UNL     1       3.409  28.308  49.976  1.00  0.00     0.081 A 
HETATM    6  C   UNL     1       4.535  27.732  50.648  1.00  0.00     0.124 A 
HETATM    7  N   UNL     1       1.572  29.462  49.879  1.00  0.00    -0.260 N 
HETATM    8  H   UNL     1       0.755  30.023  50.089  1.00  0.00     0.191 HD
HETATM    9  N   UNL     1       1.776  29.044  48.610  1.00  0.00    -0.177 NA
HETATM   10  C   UNL     1       2.908  28.324  48.667  1.00  0.00     0.068 A 
HETATM   11  C   UNL     1       3.429  27.689  47.434  1.00  0.00     0.073 C 
ENDROOT
BRANCH   2  12
HETATM   12  S   UNL     1       3.666  29.114  54.424  1.00  0.00    -0.082 SA
BRANCH  12  13
HETATM   13  C   UNL     1       3.837  30.922  54.357  1.00  0.00     0.185 C 
BRANCH  13  14
HETATM   14  C   UNL     1       3.025  31.615  55.442  1.00  0.00     0.227 C 
HETATM   15  N   UNL     1       3.700  32.383  56.360  1.00  0.00    -0.360 N 
HETATM   16  H   UNL     1       3.090  32.758  57.080  1.00  0.00     0.162 HD
HETATM   17  O   UNL     1       1.798  31.565  55.519  1.00  0.00    -0.273 OA
BRANCH  15  18
HETATM   18  C   UNL     1       5.137  32.441  56.548  1.00  0.00     0.127 C 
BRANCH  18  19
HETATM   19  C   UNL     1       5.584  32.011  57.945  1.00  0.00     0.058 C 
BRANCH  19  20
HETATM   20  C   UNL     1       6.336  30.704  57.871  1.00  0.00    -0.054 A 
HETATM   21  C   UNL     1       7.733  30.678  58.011  1.00  0.00     0.046 A 
HETATM   22  C   UNL     1       8.446  29.483  57.856  1.00  0.00     0.102 A 
HETATM   23  C   UNL     1       7.754  28.293  57.555  1.00  0.00     0.101 A 
HETATM   24  C   UNL     1       6.361  28.317  57.436  1.00  0.00     0.040 A 
HETATM   25  C   UNL     1       5.658  29.515  57.590  1.00  0.00     0.010 A 
BRANCH  22  26
HETATM   26  O   UNL     1       9.812  29.376  57.952  1.00  0.00    -0.353 OA
HETATM   27  C   UNL     1      10.592  30.508  57.599  1.00  0.00     0.210 C 
ENDBRANCH  22  26
BRANCH  23  28
HETATM   28  O   UNL     1       8.525  27.168  57.401  1.00  0.00    -0.353 OA
HETATM   29  C   UNL     1       7.953  25.922  57.772  1.00  0.00     0.210 C 
ENDBRANCH  23  28
ENDBRANCH  19  20
ENDBRANCH  18  19
ENDBRANCH  15  18
ENDBRANCH  13  14
ENDBRANCH  12  13
ENDBRANCH   2  12
BRANCH   1  30
HETATM   30  C   UNL     1       5.643  27.358  52.863  1.00  0.00     0.051 A 
HETATM   31  C   UNL     1       5.609  25.980  53.186  1.00  0.00    -0.013 A 
HETATM   32  C   UNL     1       4.433  25.115  52.805  1.00  0.00     0.052 C 
HETATM   33  C   UNL     1       6.716  25.421  53.855  1.00  0.00     0.042 A 
HETATM   34 CL   UNL     1       6.802  23.732  54.216  1.00  0.00    -0.084 Cl
HETATM   35  C   UNL     1       7.807  26.211  54.228  1.00  0.00     0.024 A 
HETATM   36  C   UNL     1       7.822  27.570  53.928  1.00  0.00     0.004 A 
HETATM   37  C   UNL     1       6.754  28.136  53.239  1.00  0.00     0.031 A 
ENDBRANCH   1  30
BRANCH   6  38
HETATM   38  N   UNL     1       5.454  27.052  49.988  1.00  0.00    -0.384 N 
HETATM   39  H   UNL     1       5.223  26.232  49.447  1.00  0.00     0.157 HD
HETATM   40  H   UNL     1       6.418  27.361  50.001  1.00  0.00     0.157 HD
ENDBRANCH   6  38
TORSDOF 10
ENDMDL
