MODEL 1
REMARK VINA RESULT:      -9.3      0.000      0.000
REMARK  4 active torsions:
REMARK  status: ('A' for Active; 'I' for Inactive)
REMARK    1  A    between atoms: C_6  and  C_7 
REMARK    2  A    between atoms: C_8  and  C_9 
REMARK       I    between atoms: C_9  and  N_10 
REMARK    3  A    between atoms: N_10  and  C_11 
REMARK    4  A    between atoms: C_18  and  C_19 
REMARK       I    between atoms: C_19  and  N_20 
ROOT
HETATM    1  C   UNL     1       5.495  25.565  52.035  1.00  0.00     0.035 A 
HETATM    2  C   UNL     1       5.362  25.878  50.675  1.00  0.00     0.046 A 
HETATM    3  C   UNL     1       4.858  27.143  50.297  1.00  0.00     0.030 A 
HETATM    4  C   UNL     1       4.500  28.046  51.288  1.00  0.00     0.063 A 
HETATM    5  N   UNL     1       4.055  29.155  50.626  1.00  0.00    -0.277 N 
HETATM    6  H   UNL     1       3.710  30.016  51.034  1.00  0.00     0.189 HD
HETATM    7  N   UNL     1       4.101  29.061  49.287  1.00  0.00    -0.168 NA
HETATM    8  C   UNL     1       4.598  27.822  49.067  1.00  0.00     0.156 A 
HETATM    9  C   UNL     1       4.617  27.767  52.651  1.00  0.00     0.034 A 
HETATM   10  C   UNL     1       5.126  26.510  53.001  1.00  0.00     0.032 A 
ENDROOT
BRANCH   1  11
HETATM   11  N   UNL     1       6.017  24.342  52.510  1.00  0.00    -0.327 N 
HETATM   12  C   UNL     1       7.342  24.010  52.691  1.00  0.00     0.227 C 
HETATM   13  O   UNL     1       8.312  24.684  52.377  1.00  0.00    -0.273 OA
HETATM   14  H   UNL     1       5.343  23.611  52.673  1.00  0.00     0.169 HD
BRANCH  12  15
HETATM   15  C   UNL     1       7.611  22.686  53.328  1.00  0.00     0.087 A 
HETATM   16  C   UNL     1       7.638  22.510  54.836  1.00  0.00     0.032 A 
HETATM   17  C   UNL     1       8.880  22.259  54.010  1.00  0.00     0.025 A 
BRANCH  16  18
HETATM   18  C   UNL     1       7.611  23.672  55.801  1.00  0.00    -0.051 A 
HETATM   19  C   UNL     1       6.452  24.450  55.969  1.00  0.00     0.031 A 
HETATM   20  C   UNL     1       6.431  25.538  56.844  1.00  0.00     0.034 A 
HETATM   21  C   UNL     1       7.567  25.884  57.568  1.00  0.00     0.024 A 
HETATM   22 CL   UNL     1       4.987  26.458  57.025  1.00  0.00    -0.084 Cl
HETATM   23  C   UNL     1       8.732  25.137  57.409  1.00  0.00     0.002 A 
HETATM   24  C   UNL     1       8.752  24.051  56.529  1.00  0.00     0.007 A 
ENDBRANCH  16  18
ENDBRANCH  12  15
ENDBRANCH   1  11
BRANCH   8  25
HETATM   25  C   UNL     1       4.819  27.324  47.702  1.00  0.00     0.270 C 
HETATM   26  N   UNL     1       6.109  27.452  47.263  1.00  0.00    -0.365 N 
HETATM   27  H   UNL     1       6.796  27.854  47.889  1.00  0.00     0.159 HD
HETATM   28  H   UNL     1       6.357  27.126  46.343  1.00  0.00     0.159 HD
HETATM   29  O   UNL     1       3.953  26.829  46.989  1.00  0.00    -0.266 OA
ENDBRANCH   8  25
TORSDOF 4
ENDMDL
MODEL 2
REMARK VINA RESULT:      -9.0      4.773      7.131
REMARK  4 active torsions:
REMARK  status: ('A' for Active; 'I' for Inactive)
REMARK    1  A    between atoms: C_6  and  C_7 
REMARK    2  A    between atoms: C_8  and  C_9 
REMARK       I    between atoms: C_9  and  N_10 
REMARK    3  A    between atoms: N_10  and  C_11 
REMARK    4  A    between atoms: C_18  and  C_19 
REMARK       I    between atoms: C_19  and  N_20 
ROOT
HETATM    1  C   UNL     1       6.553  28.120  56.191  1.00  0.00     0.035 A 
HETATM    2  C   UNL     1       6.175  29.289  56.867  1.00  0.00     0.046 A 
HETATM    3  C   UNL     1       7.098  29.926  57.728  1.00  0.00     0.030 A 
HETATM    4  C   UNL     1       8.359  29.369  57.888  1.00  0.00     0.063 A 
HETATM    5  N   UNL     1       9.010  30.190  58.765  1.00  0.00    -0.277 N 
HETATM    6  H   UNL     1       9.956  30.089  59.114  1.00  0.00     0.189 HD
HETATM    7  N   UNL     1       8.288  31.243  59.184  1.00  0.00    -0.168 NA
HETATM    8  C   UNL     1       7.102  31.094  58.550  1.00  0.00     0.156 A 
HETATM    9  C   UNL     1       8.768  28.205  57.234  1.00  0.00     0.034 A 
HETATM   10  C   UNL     1       7.839  27.598  56.379  1.00  0.00     0.032 A 
ENDROOT
BRANCH   1  11
HETATM   11  N   UNL     1       5.714  27.432  55.288  1.00  0.00    -0.327 N 
HETATM   12  C   UNL     1       5.889  27.282  53.929  1.00  0.00     0.227 C 
HETATM   13  O   UNL     1       6.755  27.805  53.243  1.00  0.00    -0.273 OA
HETATM   14  H   UNL     1       4.858  27.066  55.675  1.00  0.00     0.169 HD
BRANCH  12  15
HETATM   15  C   UNL     1       4.911  26.395  53.231  1.00  0.00     0.087 A 
HETATM   16  C   UNL     1       5.074  24.886  53.200  1.00  0.00     0.032 A 
HETATM   17  C   UNL     1       5.116  25.691  51.919  1.00  0.00     0.025 A 
BRANCH  16  18
HETATM   18  C   UNL     1       6.322  24.183  53.676  1.00  0.00    -0.051 A 
HETATM   19  C   UNL     1       6.663  24.151  55.040  1.00  0.00     0.031 A 
HETATM   20  C   UNL     1       7.828  23.520  55.480  1.00  0.00     0.034 A 
HETATM   21  C   UNL     1       8.688  22.912  54.573  1.00  0.00     0.024 A 
HETATM   22 CL   UNL     1       8.201  23.498  57.161  1.00  0.00    -0.084 Cl
HETATM   23  C   UNL     1       8.380  22.942  53.215  1.00  0.00     0.002 A 
HETATM   24  C   UNL     1       7.215  23.577  52.775  1.00  0.00     0.007 A 
ENDBRANCH  16  18
ENDBRANCH  12  15
ENDBRANCH   1  11
BRANCH   8  25
HETATM   25  C   UNL     1       6.015  32.067  58.734  1.00  0.00     0.270 C 
HETATM   26  N   UNL     1       5.261  31.853  59.856  1.00  0.00    -0.365 N 
HETATM   27  H   UNL     1       5.501  31.078  60.462  1.00  0.00     0.159 HD
HETATM   28  H   UNL     1       4.500  32.478  60.071  1.00  0.00     0.159 HD
HETATM   29  O   UNL     1       5.776  33.001  57.978  1.00  0.00    -0.266 OA
ENDBRANCH   8  25
TORSDOF 4
ENDMDL
MODEL 3
REMARK VINA RESULT:      -8.7      5.513      8.192
REMARK  4 active torsions:
REMARK  status: ('A' for Active; 'I' for Inactive)
REMARK    1  A    between atoms: C_6  and  C_7 
REMARK    2  A    between atoms: C_8  and  C_9 
REMARK       I    between atoms: C_9  and  N_10 
REMARK    3  A    between atoms: N_10  and  C_11 
REMARK    4  A    between atoms: C_18  and  C_19 
REMARK       I    between atoms: C_19  and  N_20 
ROOT
HETATM    1  C   UNL     1       8.055  28.392  57.512  1.00  0.00     0.035 A 
HETATM    2  C   UNL     1       7.908  29.387  58.489  1.00  0.00     0.046 A 
HETATM    3  C   UNL     1       8.846  30.442  58.556  1.00  0.00     0.030 A 
HETATM    4  C   UNL     1       9.898  30.462  57.651  1.00  0.00     0.063 A 
HETATM    5  N   UNL     1      10.623  31.578  57.961  1.00  0.00    -0.277 N 
HETATM    6  H   UNL     1      11.465  31.910  57.505  1.00  0.00     0.189 HD
HETATM    7  N   UNL     1      10.129  32.297  58.983  1.00  0.00    -0.168 NA
HETATM    8  C   UNL     1       9.029  31.608  59.362  1.00  0.00     0.156 A 
HETATM    9  C   UNL     1      10.077  29.487  56.668  1.00  0.00     0.034 A 
HETATM   10  C   UNL     1       9.130  28.457  56.616  1.00  0.00     0.032 A 
ENDROOT
BRANCH   1  11
HETATM   11  N   UNL     1       7.154  27.318  57.347  1.00  0.00    -0.327 N 
HETATM   12  C   UNL     1       7.410  25.975  57.517  1.00  0.00     0.227 C 
HETATM   13  O   UNL     1       8.497  25.463  57.745  1.00  0.00    -0.273 OA
HETATM   14  H   UNL     1       6.238  27.562  57.004  1.00  0.00     0.169 HD
BRANCH  12  15
HETATM   15  C   UNL     1       6.238  25.057  57.399  1.00  0.00     0.087 A 
HETATM   16  C   UNL     1       5.842  24.425  56.076  1.00  0.00     0.032 A 
HETATM   17  C   UNL     1       4.904  25.379  56.784  1.00  0.00     0.025 A 
BRANCH  16  18
HETATM   18  C   UNL     1       6.453  24.827  54.755  1.00  0.00    -0.051 A 
HETATM   19  C   UNL     1       5.961  25.927  54.031  1.00  0.00     0.031 A 
HETATM   20  C   UNL     1       6.509  26.287  52.799  1.00  0.00     0.034 A 
HETATM   21  C   UNL     1       7.558  25.555  52.252  1.00  0.00     0.024 A 
HETATM   22 CL   UNL     1       5.881  27.647  51.952  1.00  0.00    -0.084 Cl
HETATM   23  C   UNL     1       8.054  24.453  52.943  1.00  0.00     0.002 A 
HETATM   24  C   UNL     1       7.501  24.091  54.175  1.00  0.00     0.007 A 
ENDBRANCH  16  18
ENDBRANCH  12  15
ENDBRANCH   1  11
BRANCH   8  25
HETATM   25  C   UNL     1       8.181  32.078  60.466  1.00  0.00     0.270 C 
HETATM   26  N   UNL     1       6.924  32.459  60.081  1.00  0.00    -0.365 N 
HETATM   27  H   UNL     1       6.672  32.384  59.103  1.00  0.00     0.159 HD
HETATM   28  H   UNL     1       6.268  32.785  60.773  1.00  0.00     0.159 HD
HETATM   29  O   UNL     1       8.528  32.135  61.640  1.00  0.00    -0.266 OA
ENDBRANCH   8  25
TORSDOF 4
ENDMDL
MODEL 4
REMARK VINA RESULT:      -8.7      1.909      3.258
REMARK  4 active torsions:
REMARK  status: ('A' for Active; 'I' for Inactive)
REMARK    1  A    between atoms: C_6  and  C_7 
REMARK    2  A    between atoms: C_8  and  C_9 
REMARK       I    between atoms: C_9  and  N_10 
REMARK    3  A    between atoms: N_10  and  C_11 
REMARK    4  A    between atoms: C_18  and  C_19 
REMARK       I    between atoms: C_19  and  N_20 
ROOT
HETATM    1  C   UNL     1       5.544  25.868  52.153  1.00  0.00     0.035 A 
HETATM    2  C   UNL     1       5.300  26.869  53.104  1.00  0.00     0.046 A 
HETATM    3  C   UNL     1       4.765  28.110  52.690  1.00  0.00     0.030 A 
HETATM    4  C   UNL     1       4.499  28.308  51.342  1.00  0.00     0.063 A 
HETATM    5  N   UNL     1       4.001  29.577  51.253  1.00  0.00    -0.277 N 
HETATM    6  H   UNL     1       3.700  30.061  50.415  1.00  0.00     0.189 HD
HETATM    7  N   UNL     1       3.908  30.223  52.427  1.00  0.00    -0.168 NA
HETATM    8  C   UNL     1       4.375  29.328  53.327  1.00  0.00     0.156 A 
HETATM    9  C   UNL     1       4.731  27.336  50.368  1.00  0.00     0.034 A 
HETATM   10  C   UNL     1       5.254  26.112  50.804  1.00  0.00     0.032 A 
ENDROOT
BRANCH   1  11
HETATM   11  N   UNL     1       6.046  24.589  52.474  1.00  0.00    -0.327 N 
HETATM   12  C   UNL     1       7.366  24.199  52.542  1.00  0.00     0.227 C 
HETATM   13  O   UNL     1       8.341  24.871  52.238  1.00  0.00    -0.273 OA
HETATM   14  H   UNL     1       5.356  23.866  52.605  1.00  0.00     0.169 HD
BRANCH  12  15
HETATM   15  C   UNL     1       7.622  22.811  53.030  1.00  0.00     0.087 A 
HETATM   16  C   UNL     1       7.645  22.470  54.510  1.00  0.00     0.032 A 
HETATM   17  C   UNL     1       8.886  22.300  53.662  1.00  0.00     0.025 A 
BRANCH  16  18
HETATM   18  C   UNL     1       7.625  23.519  55.597  1.00  0.00    -0.051 A 
HETATM   19  C   UNL     1       6.455  24.241  55.889  1.00  0.00     0.031 A 
HETATM   20  C   UNL     1       6.441  25.226  56.878  1.00  0.00     0.034 A 
HETATM   21  C   UNL     1       7.594  25.523  57.596  1.00  0.00     0.024 A 
HETATM   22 CL   UNL     1       4.983  26.080  57.208  1.00  0.00    -0.084 Cl
HETATM   23  C   UNL     1       8.769  24.831  57.316  1.00  0.00     0.002 A 
HETATM   24  C   UNL     1       8.783  23.848  56.323  1.00  0.00     0.007 A 
ENDBRANCH  16  18
ENDBRANCH  12  15
ENDBRANCH   1  11
BRANCH   8  25
HETATM   25  C   UNL     1       4.430  29.649  54.760  1.00  0.00     0.270 C 
HETATM   26  N   UNL     1       5.129  30.790  55.049  1.00  0.00    -0.365 N 
HETATM   27  H   UNL     1       5.534  31.317  54.286  1.00  0.00     0.159 HD
HETATM   28  H   UNL     1       5.209  31.096  56.006  1.00  0.00     0.159 HD
HETATM   29  O   UNL     1       3.907  28.985  55.647  1.00  0.00    -0.266 OA
ENDBRANCH   8  25
TORSDOF 4
ENDMDL
MODEL 5
REMARK VINA RESULT:      -8.4      3.564      5.070
REMARK  4 active torsions:
REMARK  status: ('A' for Active; 'I' for Inactive)
REMARK    1  A    between atoms: C_6  and  C_7 
REMARK    2  A    between atoms: C_8  and  C_9 
REMARK       I    between atoms: C_9  and  N_10 
REMARK    3  A    between atoms: N_10  and  C_11 
REMARK    4  A    between atoms: C_18  and  C_19 
REMARK       I    between atoms: C_19  and  N_20 
ROOT
HETATM    1  C   UNL     1       5.722  27.450  54.856  1.00  0.00     0.035 A 
HETATM    2  C   UNL     1       4.945  28.560  54.494  1.00  0.00     0.046 A 
HETATM    3  C   UNL     1       4.375  29.371  55.501  1.00  0.00     0.030 A 
HETATM    4  C   UNL     1       4.596  29.042  56.831  1.00  0.00     0.063 A 
HETATM    5  N   UNL     1       3.929  29.990  57.555  1.00  0.00    -0.277 N 
HETATM    6  H   UNL     1       3.870  30.063  58.564  1.00  0.00     0.189 HD
HETATM    7  N   UNL     1       3.301  30.917  56.814  1.00  0.00    -0.168 NA
HETATM    8  C   UNL     1       3.568  30.549  55.540  1.00  0.00     0.156 A 
HETATM    9  C   UNL     1       5.361  27.944  57.229  1.00  0.00     0.034 A 
HETATM   10  C   UNL     1       5.923  27.161  56.213  1.00  0.00     0.032 A 
ENDROOT
BRANCH   1  11
HETATM   11  N   UNL     1       6.357  26.601  53.925  1.00  0.00    -0.327 N 
HETATM   12  C   UNL     1       5.847  25.458  53.349  1.00  0.00     0.227 C 
HETATM   13  O   UNL     1       4.784  24.917  53.619  1.00  0.00    -0.273 OA
HETATM   14  H   UNL     1       7.316  26.825  53.708  1.00  0.00     0.169 HD
BRANCH  12  15
HETATM   15  C   UNL     1       6.688  24.816  52.295  1.00  0.00     0.087 A 
HETATM   16  C   UNL     1       7.561  23.609  52.587  1.00  0.00     0.032 A 
HETATM   17  C   UNL     1       8.181  24.918  52.152  1.00  0.00     0.025 A 
BRANCH  16  18
HETATM   18  C   UNL     1       7.815  23.096  53.985  1.00  0.00    -0.051 A 
HETATM   19  C   UNL     1       8.292  23.947  54.997  1.00  0.00     0.031 A 
HETATM   20  C   UNL     1       8.549  23.470  56.283  1.00  0.00     0.034 A 
HETATM   21  C   UNL     1       8.344  22.130  56.593  1.00  0.00     0.024 A 
HETATM   22 CL   UNL     1       9.124  24.550  57.493  1.00  0.00    -0.084 Cl
HETATM   23  C   UNL     1       7.886  21.263  55.605  1.00  0.00     0.002 A 
HETATM   24  C   UNL     1       7.633  21.741  54.316  1.00  0.00     0.007 A 
ENDBRANCH  16  18
ENDBRANCH  12  15
ENDBRANCH   1  11
BRANCH   8  25
HETATM   25  C   UNL     1       3.060  31.328  54.402  1.00  0.00     0.270 C 
HETATM   26  N   UNL     1       1.908  32.017  54.668  1.00  0.00    -0.365 N 
HETATM   27  H   UNL     1       1.508  31.954  55.596  1.00  0.00     0.159 HD
HETATM   28  H   UNL     1       1.493  32.589  53.950  1.00  0.00     0.159 HD
HETATM   29  O   UNL     1       3.593  31.386  53.299  1.00  0.00    -0.266 OA
ENDBRANCH   8  25
TORSDOF 4
ENDMDL
MODEL 6
REMARK VINA RESULT:      -8.3      7.872     10.501
REMARK  4 active torsions:
REMARK  status: ('A' for Active; 'I' for Inactive)
REMARK    1  A    between atoms: C_6  and  C_7 
REMARK    2  A    between atoms: C_8  and  C_9 
REMARK       I    between atoms: C_9  and  N_10 
REMARK    3  A    between atoms: N_10  and  C_11 
REMARK    4  A    between atoms: C_18  and  C_19 
REMARK       I    between atoms: C_19  and  N_20 
ROOT
HETATM    1  C   UNL     1       8.067  32.155  60.698  1.00  0.00     0.035 A 
HETATM    2  C   UNL     1       6.669  32.226  60.626  1.00  0.00     0.046 A 
HETATM    3  C   UNL     1       5.921  32.466  61.801  1.00  0.00     0.030 A 
HETATM    4  C   UNL     1       6.595  32.620  63.004  1.00  0.00     0.063 A 
HETATM    5  N   UNL     1       5.623  32.833  63.941  1.00  0.00    -0.277 N 
HETATM    6  H   UNL     1       5.751  32.985  64.934  1.00  0.00     0.189 HD
HETATM    7  N   UNL     1       4.372  32.843  63.452  1.00  0.00    -0.168 NA
HETATM    8  C   UNL     1       4.539  32.619  62.129  1.00  0.00     0.156 A 
HETATM    9  C   UNL     1       7.985  32.552  63.114  1.00  0.00     0.034 A 
HETATM   10  C   UNL     1       8.705  32.322  61.934  1.00  0.00     0.032 A 
ENDROOT
BRANCH   1  11
HETATM   11  N   UNL     1       8.900  31.950  59.576  1.00  0.00    -0.327 N 
HETATM   12  C   UNL     1       9.486  30.771  59.171  1.00  0.00     0.227 C 
HETATM   13  O   UNL     1       9.472  29.706  59.771  1.00  0.00    -0.273 OA
HETATM   14  H   UNL     1       9.140  32.777  59.051  1.00  0.00     0.169 HD
BRANCH  12  15
HETATM   15  C   UNL     1      10.220  30.810  57.872  1.00  0.00     0.087 A 
HETATM   16  C   UNL     1       9.712  30.083  56.639  1.00  0.00     0.032 A 
HETATM   17  C   UNL     1      11.034  29.700  57.267  1.00  0.00     0.025 A 
BRANCH  16  18
HETATM   18  C   UNL     1       8.562  29.105  56.676  1.00  0.00    -0.051 A 
HETATM   19  C   UNL     1       8.763  27.758  57.024  1.00  0.00     0.031 A 
HETATM   20  C   UNL     1       7.706  26.847  57.037  1.00  0.00     0.034 A 
HETATM   21  C   UNL     1       6.420  27.253  56.695  1.00  0.00     0.024 A 
HETATM   22 CL   UNL     1       7.998  25.209  57.477  1.00  0.00    -0.084 Cl
HETATM   23  C   UNL     1       6.197  28.579  56.333  1.00  0.00     0.002 A 
HETATM   24  C   UNL     1       7.258  29.489  56.317  1.00  0.00     0.007 A 
ENDBRANCH  16  18
ENDBRANCH  12  15
ENDBRANCH   1  11
BRANCH   8  25
HETATM   25  C   UNL     1       3.388  32.566  61.216  1.00  0.00     0.270 C 
HETATM   26  N   UNL     1       3.111  31.313  60.741  1.00  0.00    -0.365 N 
HETATM   27  H   UNL     1       3.688  30.540  61.047  1.00  0.00     0.159 HD
HETATM   28  H   UNL     1       2.331  31.178  60.117  1.00  0.00     0.159 HD
HETATM   29  O   UNL     1       2.709  33.533  60.889  1.00  0.00    -0.266 OA
ENDBRANCH   8  25
TORSDOF 4
ENDMDL
MODEL 7
REMARK VINA RESULT:      -8.3      2.529      3.864
REMARK  4 active torsions:
REMARK  status: ('A' for Active; 'I' for Inactive)
REMARK    1  A    between atoms: C_6  and  C_7 
REMARK    2  A    between atoms: C_8  and  C_9 
REMARK       I    between atoms: C_9  and  N_10 
REMARK    3  A    between atoms: N_10  and  C_11 
REMARK    4  A    between atoms: C_18  and  C_19 
REMARK       I    between atoms: C_19  and  N_20 
ROOT
HETATM    1  C   UNL     1       5.978  27.489  55.274  1.00  0.00     0.035 A 
HETATM    2  C   UNL     1       5.798  27.316  53.894  1.00  0.00     0.046 A 
HETATM    3  C   UNL     1       4.765  28.017  53.232  1.00  0.00     0.030 A 
HETATM    4  C   UNL     1       3.946  28.859  53.972  1.00  0.00     0.063 A 
HETATM    5  N   UNL     1       3.059  29.383  53.074  1.00  0.00    -0.277 N 
HETATM    6  H   UNL     1       2.310  30.040  53.263  1.00  0.00     0.189 HD
HETATM    7  N   UNL     1       3.233  28.966  51.809  1.00  0.00    -0.168 NA
HETATM    8  C   UNL     1       4.287  28.121  51.890  1.00  0.00     0.156 A 
HETATM    9  C   UNL     1       4.094  29.054  55.346  1.00  0.00     0.034 A 
HETATM   10  C   UNL     1       5.130  28.354  55.978  1.00  0.00     0.032 A 
ENDROOT
BRANCH   1  11
HETATM   11  N   UNL     1       6.999  26.857  56.016  1.00  0.00    -0.327 N 
HETATM   12  C   UNL     1       6.886  25.744  56.820  1.00  0.00     0.227 C 
HETATM   13  O   UNL     1       5.853  25.160  57.115  1.00  0.00    -0.273 OA
HETATM   14  H   UNL     1       7.898  27.314  56.003  1.00  0.00     0.169 HD
BRANCH  12  15
HETATM   15  C   UNL     1       8.158  25.209  57.392  1.00  0.00     0.087 A 
HETATM   16  C   UNL     1       9.029  24.224  56.633  1.00  0.00     0.032 A 
HETATM   17  C   UNL     1       8.383  23.829  57.943  1.00  0.00     0.025 A 
BRANCH  16  18
HETATM   18  C   UNL     1       8.589  23.550  55.355  1.00  0.00    -0.051 A 
HETATM   19  C   UNL     1       8.300  24.298  54.200  1.00  0.00     0.031 A 
HETATM   20  C   UNL     1       7.871  23.679  53.025  1.00  0.00     0.034 A 
HETATM   21  C   UNL     1       7.711  22.299  52.972  1.00  0.00     0.024 A 
HETATM   22 CL   UNL     1       7.537  24.634  51.632  1.00  0.00    -0.084 Cl
HETATM   23  C   UNL     1       7.977  21.536  54.106  1.00  0.00     0.002 A 
HETATM   24  C   UNL     1       8.403  22.158  55.283  1.00  0.00     0.007 A 
ENDBRANCH  16  18
ENDBRANCH  12  15
ENDBRANCH   1  11
BRANCH   8  25
HETATM   25  C   UNL     1       4.812  27.446  50.695  1.00  0.00     0.270 C 
HETATM   26  N   UNL     1       4.483  26.120  50.613  1.00  0.00    -0.365 N 
HETATM   27  H   UNL     1       3.915  25.715  51.347  1.00  0.00     0.159 HD
HETATM   28  H   UNL     1       4.790  25.578  49.821  1.00  0.00     0.159 HD
HETATM   29  O   UNL     1       5.484  27.987  49.824  1.00  0.00    -0.266 OA
ENDBRANCH   8  25
TORSDOF 4
ENDMDL
MODEL 8
REMARK VINA RESULT:      -8.1      2.622      3.907
REMARK  4 active torsions:
REMARK  status: ('A' for Active; 'I' for Inactive)
REMARK    1  A    between atoms: C_6  and  C_7 
REMARK    2  A    between atoms: C_8  and  C_9 
REMARK       I    between atoms: C_9  and  N_10 
REMARK    3  A    between atoms: N_10  and  C_11 
REMARK    4  A    between atoms: C_18  and  C_19 
REMARK       I    between atoms: C_19  and  N_20 
ROOT
HETATM    1  C   UNL     1       6.528  26.698  53.288  1.00  0.00     0.035 A 
HETATM    2  C   UNL     1       5.714  27.796  52.974  1.00  0.00     0.046 A 
HETATM    3  C   UNL     1       4.941  27.774  51.791  1.00  0.00     0.030 A 
HETATM    4  C   UNL     1       5.014  26.662  50.963  1.00  0.00     0.063 A 
HETATM    5  N   UNL     1       4.174  26.931  49.919  1.00  0.00    -0.277 N 
HETATM    6  H   UNL     1       3.978  26.339  49.120  1.00  0.00     0.189 HD
HETATM    7  N   UNL     1       3.550  28.118  49.998  1.00  0.00    -0.168 NA
HETATM    8  C   UNL     1       4.013  28.651  51.151  1.00  0.00     0.156 A 
HETATM    9  C   UNL     1       5.815  25.554  51.243  1.00  0.00     0.034 A 
HETATM   10  C   UNL     1       6.565  25.595  52.425  1.00  0.00     0.032 A 
ENDROOT
BRANCH   1  11
HETATM   11  N   UNL     1       7.311  26.615  54.460  1.00  0.00    -0.327 N 
HETATM   12  C   UNL     1       6.977  26.003  55.649  1.00  0.00     0.227 C 
HETATM   13  O   UNL     1       5.897  25.507  55.936  1.00  0.00    -0.273 OA
HETATM   14  H   UNL     1       8.186  27.115  54.441  1.00  0.00     0.169 HD
BRANCH  12  15
HETATM   15  C   UNL     1       8.046  25.954  56.690  1.00  0.00     0.087 A 
HETATM   16  C   UNL     1       8.873  24.704  56.936  1.00  0.00     0.032 A 
HETATM   17  C   UNL     1       7.973  25.256  58.020  1.00  0.00     0.025 A 
BRANCH  16  18
HETATM   18  C   UNL     1       8.549  23.367  56.311  1.00  0.00    -0.051 A 
HETATM   19  C   UNL     1       8.416  23.228  54.919  1.00  0.00     0.031 A 
HETATM   20  C   UNL     1       8.095  21.998  54.341  1.00  0.00     0.034 A 
HETATM   21  C   UNL     1       7.889  20.877  55.137  1.00  0.00     0.024 A 
HETATM   22 CL   UNL     1       7.951  21.872  52.630  1.00  0.00    -0.084 Cl
HETATM   23  C   UNL     1       8.001  20.991  56.520  1.00  0.00     0.002 A 
HETATM   24  C   UNL     1       8.319  22.224  57.097  1.00  0.00     0.007 A 
ENDBRANCH  16  18
ENDBRANCH  12  15
ENDBRANCH   1  11
BRANCH   8  25
HETATM   25  C   UNL     1       3.555  29.969  51.616  1.00  0.00     0.270 C 
HETATM   26  N   UNL     1       2.224  30.204  51.401  1.00  0.00    -0.365 N 
HETATM   27  H   UNL     1       1.667  29.480  50.964  1.00  0.00     0.159 HD
HETATM   28  H   UNL     1       1.818  31.078  51.698  1.00  0.00     0.159 HD
HETATM   29  O   UNL     1       4.268  30.807  52.156  1.00  0.00    -0.266 OA
ENDBRANCH   8  25
TORSDOF 4
ENDMDL
MODEL 9
REMARK VINA RESULT:      -8.0      3.325      8.074
REMARK  4 active torsions:
REMARK  status: ('A' for Active; 'I' for Inactive)
REMARK    1  A    between atoms: C_6  and  C_7 
REMARK    2  A    between atoms: C_8  and  C_9 
REMARK       I    between atoms: C_9  and  N_10 
REMARK    3  A    between atoms: N_10  and  C_11 
REMARK    4  A    between atoms: C_18  and  C_19 
REMARK       I    between atoms: C_19  and  N_20 
ROOT
HETATM    1  C   UNL     1       5.268  25.869  53.553  1.00  0.00     0.035 A 
HETATM    2  C   UNL     1       6.015  25.856  54.739  1.00  0.00     0.046 A 
HETATM    3  C   UNL     1       7.017  24.876  54.922  1.00  0.00     0.030 A 
HETATM    4  C   UNL     1       7.232  23.942  53.918  1.00  0.00     0.063 A 
HETATM    5  N   UNL     1       8.241  23.142  54.376  1.00  0.00    -0.277 N 
HETATM    6  H   UNL     1       8.658  22.349  53.903  1.00  0.00     0.189 HD
HETATM    7  N   UNL     1       8.712  23.479  55.588  1.00  0.00    -0.168 NA
HETATM    8  C   UNL     1       7.966  24.551  55.939  1.00  0.00     0.156 A 
HETATM    9  C   UNL     1       6.506  23.923  52.725  1.00  0.00     0.034 A 
HETATM   10  C   UNL     1       5.524  24.909  52.564  1.00  0.00     0.032 A 
ENDROOT
BRANCH   1  11
HETATM   11  N   UNL     1       4.269  26.825  53.266  1.00  0.00    -0.327 N 
HETATM   12  C   UNL     1       4.448  28.114  52.815  1.00  0.00     0.227 C 
HETATM   13  O   UNL     1       5.514  28.697  52.676  1.00  0.00    -0.273 OA
HETATM   14  H   UNL     1       3.323  26.548  53.479  1.00  0.00     0.169 HD
BRANCH  12  15
HETATM   15  C   UNL     1       3.208  28.872  52.471  1.00  0.00     0.087 A 
HETATM   16  C   UNL     1       2.683  28.953  51.049  1.00  0.00     0.032 A 
HETATM   17  C   UNL     1       3.133  30.202  51.775  1.00  0.00     0.025 A 
BRANCH  16  18
HETATM   18  C   UNL     1       3.466  28.466  49.853  1.00  0.00    -0.051 A 
HETATM   19  C   UNL     1       3.136  27.260  49.210  1.00  0.00     0.031 A 
HETATM   20  C   UNL     1       3.872  26.797  48.118  1.00  0.00     0.034 A 
HETATM   21  C   UNL     1       4.963  27.518  47.645  1.00  0.00     0.024 A 
HETATM   22 CL   UNL     1       3.427  25.319  47.356  1.00  0.00    -0.084 Cl
HETATM   23  C   UNL     1       5.319  28.708  48.273  1.00  0.00     0.002 A 
HETATM   24  C   UNL     1       4.583  29.169  49.368  1.00  0.00     0.007 A 
ENDBRANCH  16  18
ENDBRANCH  12  15
ENDBRANCH   1  11
BRANCH   8  25
HETATM   25  C   UNL     1       8.181  25.239  57.220  1.00  0.00     0.270 C 
HETATM   26  N   UNL     1       8.737  24.450  58.190  1.00  0.00    -0.365 N 
HETATM   27  H   UNL     1       8.962  23.489  57.964  1.00  0.00     0.159 HD
HETATM   28  H   UNL     1       8.932  24.840  59.098  1.00  0.00     0.159 HD
HETATM   29  O   UNL     1       7.906  26.413  57.439  1.00  0.00    -0.266 OA
ENDBRANCH   8  25
TORSDOF 4
ENDMDL
MODEL 10
REMARK VINA RESULT:      -8.0     10.920     13.620
REMARK  4 active torsions:
REMARK  status: ('A' for Active; 'I' for Inactive)
REMARK    1  A    between atoms: C_6  and  C_7 
REMARK    2  A    between atoms: C_8  and  C_9 
REMARK       I    between atoms: C_9  and  N_10 
REMARK    3  A    between atoms: N_10  and  C_11 
REMARK    4  A    between atoms: C_18  and  C_19 
REMARK       I    between atoms: C_19  and  N_20 
ROOT
HETATM    1  C   UNL     1       6.739  32.962  62.895  1.00  0.00     0.035 A 
HETATM    2  C   UNL     1       6.323  32.748  61.573  1.00  0.00     0.046 A 
HETATM    3  C   UNL     1       7.114  31.953  60.713  1.00  0.00     0.030 A 
HETATM    4  C   UNL     1       8.294  31.408  61.202  1.00  0.00     0.063 A 
HETATM    5  N   UNL     1       8.829  30.707  60.158  1.00  0.00    -0.277 N 
HETATM    6  H   UNL     1       9.694  30.179  60.153  1.00  0.00     0.189 HD
HETATM    7  N   UNL     1       8.097  30.737  59.033  1.00  0.00    -0.168 NA
HETATM    8  C   UNL     1       7.031  31.503  59.360  1.00  0.00     0.156 A 
HETATM    9  C   UNL     1       8.740  31.603  62.510  1.00  0.00     0.034 A 
HETATM   10  C   UNL     1       7.934  32.387  63.345  1.00  0.00     0.032 A 
ENDROOT
BRANCH   1  11
HETATM   11  N   UNL     1       6.001  33.714  63.835  1.00  0.00    -0.327 N 
HETATM   12  C   UNL     1       4.650  33.640  64.093  1.00  0.00     0.227 C 
HETATM   13  O   UNL     1       3.826  32.977  63.480  1.00  0.00    -0.273 OA
HETATM   14  H   UNL     1       6.515  34.429  64.327  1.00  0.00     0.169 HD
BRANCH  12  15
HETATM   15  C   UNL     1       4.148  34.463  65.234  1.00  0.00     0.087 A 
HETATM   16  C   UNL     1       3.876  35.950  65.093  1.00  0.00     0.032 A 
HETATM   17  C   UNL     1       4.940  35.450  66.046  1.00  0.00     0.025 A 
BRANCH  16  18
HETATM   18  C   UNL     1       4.284  36.751  63.879  1.00  0.00    -0.051 A 
HETATM   19  C   UNL     1       3.412  36.912  62.788  1.00  0.00     0.031 A 
HETATM   20  C   UNL     1       3.795  37.632  61.655  1.00  0.00     0.034 A 
HETATM   21  C   UNL     1       5.061  38.204  61.577  1.00  0.00     0.024 A 
HETATM   22 CL   UNL     1       2.692  37.811  60.346  1.00  0.00    -0.084 Cl
HETATM   23  C   UNL     1       5.948  38.047  62.638  1.00  0.00     0.002 A 
HETATM   24  C   UNL     1       5.564  37.322  63.770  1.00  0.00     0.007 A 
ENDBRANCH  16  18
ENDBRANCH  12  15
ENDBRANCH   1  11
BRANCH   8  25
HETATM   25  C   UNL     1       5.965  31.776  58.386  1.00  0.00     0.270 C 
HETATM   26  N   UNL     1       5.102  30.731  58.196  1.00  0.00    -0.365 N 
HETATM   27  H   UNL     1       5.246  29.880  58.726  1.00  0.00     0.159 HD
HETATM   28  H   UNL     1       4.331  30.831  57.555  1.00  0.00     0.159 HD
HETATM   29  O   UNL     1       5.823  32.833  57.781  1.00  0.00    -0.266 OA
ENDBRANCH   8  25
TORSDOF 4
ENDMDL
