MODEL 1
REMARK VINA RESULT:     -10.8      0.000      0.000
REMARK  9 active torsions:
REMARK  status: ('A' for Active; 'I' for Inactive)
REMARK    1  A    between atoms: C_2  and  C_3 
REMARK    2  A    between atoms: C_3  and  N_4 
REMARK    3  A    between atoms: N_4  and  C_7 
REMARK    4  A    between atoms: C_12  and  N_13 
REMARK       I    between atoms: N_13  and  C_14 
REMARK    5  A    between atoms: C_14  and  C_16 
REMARK    6  A    between atoms: C_20  and  C_22 
REMARK    7  A    between atoms: C_22  and  N_24 
REMARK       I    between atoms: N_24  and  C_25 
REMARK    8  A    between atoms: C_25  and  C_27 
REMARK    9  A    between atoms: C_30  and  O_31 
ROOT
HETATM    1  C   UNL     1       8.433  30.638  58.482  1.00  0.00     0.033 A 
HETATM    2  C   UNL     1       9.764  30.508  58.066  1.00  0.00     0.017 A 
HETATM    3  C   UNL     1      10.098  29.649  57.022  1.00  0.00     0.002 A 
HETATM    4  C   UNL     1       9.103  28.919  56.372  1.00  0.00     0.009 A 
HETATM    5  C   UNL     1       7.756  29.055  56.745  1.00  0.00    -0.035 A 
HETATM    6  C   UNL     1       7.435  29.916  57.814  1.00  0.00     0.026 A 
ENDROOT
BRANCH   1   7
HETATM    7  C   UNL     1       8.142  31.578  59.605  1.00  0.00     0.257 C 
HETATM    8  N   UNL     1       7.212  31.152  60.532  1.00  0.00    -0.301 N 
HETATM    9  H   UNL     1       6.796  30.235  60.483  1.00  0.00     0.171 HD
HETATM   10  O   UNL     1       8.758  32.639  59.633  1.00  0.00    -0.267 OA
BRANCH   8  11
HETATM   11  C   UNL     1       6.869  31.935  61.601  1.00  0.00     0.174 A 
HETATM   12  N   UNL     1       5.855  32.752  61.735  1.00  0.00    -0.228 NA
HETATM   13  C   UNL     1       5.895  33.345  62.966  1.00  0.00     0.050 A 
HETATM   14  C   UNL     1       4.852  34.323  63.373  1.00  0.00     0.062 C 
HETATM   15  C   UNL     1       6.931  32.941  63.780  1.00  0.00     0.013 A 
HETATM   16  C   UNL     1       5.287  35.101  64.626  1.00  0.00     0.039 C 
HETATM   17  C   UNL     1       5.897  34.160  65.688  1.00  0.00     0.191 C 
HETATM   18  C   UNL     1       7.173  33.441  65.161  1.00  0.00     0.081 C 
HETATM   19  S   UNL     1       7.916  31.818  62.957  1.00  0.00    -0.055 SA
BRANCH  17  20
HETATM   20  N   UNL     1       6.254  34.948  66.930  1.00  0.00    -0.071 N 
HETATM   21  H   UNL     1       6.209  35.957  66.726  1.00  0.00     0.277 HD
HETATM   22  H   UNL     1       7.238  34.756  67.170  1.00  0.00     0.277 HD
BRANCH  20  23
HETATM   23  C   UNL     1       5.424  34.655  68.147  1.00  0.00     0.232 C 
BRANCH  23  24
HETATM   24  C   UNL     1       6.341  34.218  69.280  1.00  0.00     0.023 C 
HETATM   25  C   UNL     1       7.704  34.884  69.167  1.00  0.00     0.007 C 
ENDBRANCH  23  24
ENDBRANCH  20  23
ENDBRANCH  17  20
ENDBRANCH   8  11
ENDBRANCH   1   7
BRANCH   5  26
HETATM   26  C   UNL     1       6.648  28.268  56.066  1.00  0.00     0.114 C 
HETATM   27  C   UNL     1       5.936  29.046  54.958  1.00  0.00     0.037 C 
BRANCH  26  28
HETATM   28  N   UNL     1       7.182  27.021  55.548  1.00  0.00    -0.349 N 
HETATM   29  C   UNL     1       6.419  25.877  55.465  1.00  0.00     0.252 C 
HETATM   30  O   UNL     1       5.226  25.824  55.744  1.00  0.00    -0.268 OA
HETATM   31  H   UNL     1       8.167  26.991  55.323  1.00  0.00     0.163 HD
BRANCH  29  32
HETATM   32  C   UNL     1       7.121  24.667  54.967  1.00  0.00     0.033 A 
HETATM   33  C   UNL     1       7.426  24.584  53.604  1.00  0.00     0.020 A 
HETATM   34  C   UNL     1       8.103  23.469  53.096  1.00  0.00     0.039 A 
HETATM   35  C   UNL     1       8.471  22.418  53.944  1.00  0.00     0.089 A 
HETATM   36  C   UNL     1       8.137  22.503  55.307  1.00  0.00     0.068 A 
HETATM   37 CL   UNL     1       8.541  21.234  56.413  1.00  0.00    -0.081 Cl
HETATM   38  C   UNL     1       7.465  23.617  55.819  1.00  0.00     0.043 A 
BRANCH  35  39
HETATM   39  O   UNL     1       9.134  21.292  53.539  1.00  0.00    -0.354 OA
HETATM   40  C   UNL     1       8.388  20.282  52.872  1.00  0.00     0.210 C 
ENDBRANCH  35  39
ENDBRANCH  29  32
ENDBRANCH  26  28
ENDBRANCH   5  26
TORSDOF 9
ENDMDL
MODEL 2
REMARK VINA RESULT:     -10.1      4.095     12.837
REMARK  9 active torsions:
REMARK  status: ('A' for Active; 'I' for Inactive)
REMARK    1  A    between atoms: C_2  and  C_3 
REMARK    2  A    between atoms: C_3  and  N_4 
REMARK    3  A    between atoms: N_4  and  C_7 
REMARK    4  A    between atoms: C_12  and  N_13 
REMARK       I    between atoms: N_13  and  C_14 
REMARK    5  A    between atoms: C_14  and  C_16 
REMARK    6  A    between atoms: C_20  and  C_22 
REMARK    7  A    between atoms: C_22  and  N_24 
REMARK       I    between atoms: N_24  and  C_25 
REMARK    8  A    between atoms: C_25  and  C_27 
REMARK    9  A    between atoms: C_30  and  O_31 
ROOT
HETATM    1  C   UNL     1       8.553  30.436  58.616  1.00  0.00     0.033 A 
HETATM    2  C   UNL     1       9.746  30.903  59.182  1.00  0.00     0.017 A 
HETATM    3  C   UNL     1       9.733  31.968  60.079  1.00  0.00     0.002 A 
HETATM    4  C   UNL     1       8.526  32.571  60.430  1.00  0.00     0.009 A 
HETATM    5  C   UNL     1       7.312  32.102  59.905  1.00  0.00    -0.035 A 
HETATM    6  C   UNL     1       7.341  31.034  58.986  1.00  0.00     0.026 A 
ENDROOT
BRANCH   1   7
HETATM    7  C   UNL     1       8.636  29.288  57.663  1.00  0.00     0.257 C 
HETATM    8  N   UNL     1       7.476  28.562  57.481  1.00  0.00    -0.301 N 
HETATM    9  H   UNL     1       6.609  28.827  57.923  1.00  0.00     0.171 HD
HETATM   10  O   UNL     1       9.709  29.089  57.104  1.00  0.00    -0.267 OA
BRANCH   8  11
HETATM   11  C   UNL     1       7.439  27.490  56.632  1.00  0.00     0.174 A 
HETATM   12  N   UNL     1       7.181  27.461  55.348  1.00  0.00    -0.228 NA
HETATM   13  C   UNL     1       7.240  26.175  54.890  1.00  0.00     0.050 A 
HETATM   14  C   UNL     1       6.985  25.864  53.458  1.00  0.00     0.062 C 
HETATM   15  C   UNL     1       7.583  25.230  55.833  1.00  0.00     0.013 A 
HETATM   16  C   UNL     1       6.766  24.356  53.254  1.00  0.00     0.039 C 
HETATM   17  C   UNL     1       7.810  23.526  54.033  1.00  0.00     0.191 C 
HETATM   18  C   UNL     1       7.717  23.771  55.568  1.00  0.00     0.081 C 
HETATM   19  S   UNL     1       7.788  25.973  57.355  1.00  0.00    -0.055 SA
BRANCH  17  20
HETATM   20  N   UNL     1       7.604  22.052  53.758  1.00  0.00    -0.071 N 
HETATM   21  H   UNL     1       7.072  21.932  52.884  1.00  0.00     0.277 HD
HETATM   22  H   UNL     1       7.009  21.658  54.502  1.00  0.00     0.277 HD
BRANCH  20  23
HETATM   23  C   UNL     1       8.855  21.223  53.690  1.00  0.00     0.232 C 
BRANCH  23  24
HETATM   24  C   UNL     1       8.700  20.015  54.603  1.00  0.00     0.023 C 
HETATM   25  C   UNL     1       8.964  20.388  56.053  1.00  0.00     0.007 C 
ENDBRANCH  23  24
ENDBRANCH  20  23
ENDBRANCH  17  20
ENDBRANCH   8  11
ENDBRANCH   1   7
BRANCH   5  26
HETATM   26  C   UNL     1       5.979  32.742  60.258  1.00  0.00     0.114 C 
HETATM   27  C   UNL     1       4.770  31.955  59.750  1.00  0.00     0.037 C 
BRANCH  26  28
HETATM   28  N   UNL     1       5.894  32.930  61.695  1.00  0.00    -0.349 N 
HETATM   29  C   UNL     1       5.664  34.166  62.258  1.00  0.00     0.252 C 
HETATM   30  O   UNL     1       5.441  35.185  61.614  1.00  0.00    -0.268 OA
HETATM   31  H   UNL     1       6.093  32.134  62.285  1.00  0.00     0.163 HD
BRANCH  29  32
HETATM   32  C   UNL     1       5.661  34.209  63.743  1.00  0.00     0.033 A 
HETATM   33  C   UNL     1       6.795  33.760  64.427  1.00  0.00     0.020 A 
HETATM   34  C   UNL     1       6.840  33.800  65.826  1.00  0.00     0.039 A 
HETATM   35  C   UNL     1       5.746  34.277  66.556  1.00  0.00     0.089 A 
HETATM   36  C   UNL     1       4.603  34.702  65.857  1.00  0.00     0.068 A 
HETATM   37 CL   UNL     1       3.203  35.285  66.692  1.00  0.00    -0.081 Cl
HETATM   38  C   UNL     1       4.555  34.668  64.460  1.00  0.00     0.043 A 
BRANCH  35  39
HETATM   39  O   UNL     1       5.700  34.354  67.922  1.00  0.00    -0.354 OA
HETATM   40  C   UNL     1       6.907  34.646  68.614  1.00  0.00     0.210 C 
ENDBRANCH  35  39
ENDBRANCH  29  32
ENDBRANCH  26  28
ENDBRANCH   5  26
TORSDOF 9
ENDMDL
MODEL 3
REMARK VINA RESULT:      -9.7      2.493      4.262
REMARK  9 active torsions:
REMARK  status: ('A' for Active; 'I' for Inactive)
REMARK    1  A    between atoms: C_2  and  C_3 
REMARK    2  A    between atoms: C_3  and  N_4 
REMARK    3  A    between atoms: N_4  and  C_7 
REMARK    4  A    between atoms: C_12  and  N_13 
REMARK       I    between atoms: N_13  and  C_14 
REMARK    5  A    between atoms: C_14  and  C_16 
REMARK    6  A    between atoms: C_20  and  C_22 
REMARK    7  A    between atoms: C_22  and  N_24 
REMARK       I    between atoms: N_24  and  C_25 
REMARK    8  A    between atoms: C_25  and  C_27 
REMARK    9  A    between atoms: C_30  and  O_31 
ROOT
HETATM    1  C   UNL     1       4.893  29.596  55.063  1.00  0.00     0.033 A 
HETATM    2  C   UNL     1       4.041  30.631  54.656  1.00  0.00     0.017 A 
HETATM    3  C   UNL     1       3.454  30.608  53.393  1.00  0.00     0.002 A 
HETATM    4  C   UNL     1       3.703  29.545  52.526  1.00  0.00     0.009 A 
HETATM    5  C   UNL     1       4.526  28.478  52.920  1.00  0.00    -0.035 A 
HETATM    6  C   UNL     1       5.125  28.521  54.195  1.00  0.00     0.026 A 
ENDROOT
BRANCH   1   7
HETATM    7  C   UNL     1       5.487  29.680  56.431  1.00  0.00     0.257 C 
HETATM    8  N   UNL     1       5.933  30.924  56.827  1.00  0.00    -0.301 N 
HETATM    9  H   UNL     1       5.812  31.741  56.247  1.00  0.00     0.171 HD
HETATM   10  O   UNL     1       5.518  28.653  57.101  1.00  0.00    -0.267 OA
BRANCH   8  11
HETATM   11  C   UNL     1       6.496  31.114  58.060  1.00  0.00     0.174 A 
HETATM   12  N   UNL     1       7.592  30.596  58.557  1.00  0.00    -0.228 NA
HETATM   13  C   UNL     1       7.782  31.047  59.833  1.00  0.00     0.050 A 
HETATM   14  C   UNL     1       8.960  30.607  60.627  1.00  0.00     0.062 C 
HETATM   15  C   UNL     1       6.838  31.942  60.288  1.00  0.00     0.013 A 
HETATM   16  C   UNL     1       8.782  30.956  62.114  1.00  0.00     0.039 C 
HETATM   17  C   UNL     1       8.242  32.392  62.293  1.00  0.00     0.191 C 
HETATM   18  C   UNL     1       6.842  32.571  61.637  1.00  0.00     0.081 C 
HETATM   19  S   UNL     1       5.645  32.188  59.094  1.00  0.00    -0.055 SA
BRANCH  17  20
HETATM   20  N   UNL     1       8.140  32.724  63.767  1.00  0.00    -0.071 N 
HETATM   21  H   UNL     1       8.821  33.459  64.005  1.00  0.00     0.277 HD
HETATM   22  H   UNL     1       8.423  31.895  64.311  1.00  0.00     0.277 HD
BRANCH  20  23
HETATM   23  C   UNL     1       6.779  33.139  64.246  1.00  0.00     0.232 C 
BRANCH  23  24
HETATM   24  C   UNL     1       6.907  33.750  65.635  1.00  0.00     0.023 C 
HETATM   25  C   UNL     1       5.539  34.077  66.216  1.00  0.00     0.007 C 
ENDBRANCH  23  24
ENDBRANCH  20  23
ENDBRANCH  17  20
ENDBRANCH   8  11
ENDBRANCH   1   7
BRANCH   5  26
HETATM   26  C   UNL     1       4.827  27.308  51.997  1.00  0.00     0.114 C 
HETATM   27  C   UNL     1       5.343  27.732  50.621  1.00  0.00     0.037 C 
BRANCH  26  28
HETATM   28  N   UNL     1       5.771  26.411  52.639  1.00  0.00    -0.349 N 
HETATM   29  C   UNL     1       5.570  25.049  52.686  1.00  0.00     0.252 C 
HETATM   30  O   UNL     1       4.635  24.473  52.140  1.00  0.00    -0.268 OA
HETATM   31  H   UNL     1       6.551  26.825  53.130  1.00  0.00     0.163 HD
BRANCH  29  32
HETATM   32  C   UNL     1       6.595  24.270  53.426  1.00  0.00     0.033 A 
HETATM   33  C   UNL     1       7.282  23.257  52.750  1.00  0.00     0.020 A 
HETATM   34  C   UNL     1       8.268  22.510  53.406  1.00  0.00     0.039 A 
HETATM   35  C   UNL     1       8.568  22.761  54.749  1.00  0.00     0.089 A 
HETATM   36  C   UNL     1       7.853  23.765  55.425  1.00  0.00     0.068 A 
HETATM   37 CL   UNL     1       8.155  24.118  57.092  1.00  0.00    -0.081 Cl
HETATM   38  C   UNL     1       6.871  24.516  54.773  1.00  0.00     0.043 A 
BRANCH  35  39
HETATM   39  O   UNL     1       9.515  22.084  55.471  1.00  0.00    -0.354 OA
HETATM   40  C   UNL     1       9.267  20.720  55.783  1.00  0.00     0.210 C 
ENDBRANCH  35  39
ENDBRANCH  29  32
ENDBRANCH  26  28
ENDBRANCH   5  26
TORSDOF 9
ENDMDL
MODEL 4
REMARK VINA RESULT:      -9.3      6.035     12.827
REMARK  9 active torsions:
REMARK  status: ('A' for Active; 'I' for Inactive)
REMARK    1  A    between atoms: C_2  and  C_3 
REMARK    2  A    between atoms: C_3  and  N_4 
REMARK    3  A    between atoms: N_4  and  C_7 
REMARK    4  A    between atoms: C_12  and  N_13 
REMARK       I    between atoms: N_13  and  C_14 
REMARK    5  A    between atoms: C_14  and  C_16 
REMARK    6  A    between atoms: C_20  and  C_22 
REMARK    7  A    between atoms: C_22  and  N_24 
REMARK       I    between atoms: N_24  and  C_25 
REMARK    8  A    between atoms: C_25  and  C_27 
REMARK    9  A    between atoms: C_30  and  O_31 
ROOT
HETATM    1  C   UNL     1       6.446  25.598  52.675  1.00  0.00     0.033 A 
HETATM    2  C   UNL     1       7.217  24.671  51.963  1.00  0.00     0.017 A 
HETATM    3  C   UNL     1       8.040  23.771  52.636  1.00  0.00     0.002 A 
HETATM    4  C   UNL     1       8.092  23.780  54.030  1.00  0.00     0.009 A 
HETATM    5  C   UNL     1       7.305  24.676  54.770  1.00  0.00    -0.035 A 
HETATM    6  C   UNL     1       6.488  25.591  54.075  1.00  0.00     0.026 A 
ENDROOT
BRANCH   1   7
HETATM    7  C   UNL     1       5.582  26.533  51.893  1.00  0.00     0.257 C 
HETATM    8  N   UNL     1       5.911  26.698  50.562  1.00  0.00    -0.301 N 
HETATM    9  H   UNL     1       6.657  26.173  50.131  1.00  0.00     0.171 HD
HETATM   10  O   UNL     1       4.644  27.064  52.478  1.00  0.00    -0.267 OA
BRANCH   8  11
HETATM   11  C   UNL     1       5.187  27.532  49.753  1.00  0.00     0.174 A 
HETATM   12  N   UNL     1       5.321  28.822  49.566  1.00  0.00    -0.228 NA
HETATM   13  C   UNL     1       4.380  29.262  48.678  1.00  0.00     0.050 A 
HETATM   14  C   UNL     1       4.312  30.696  48.290  1.00  0.00     0.062 C 
HETATM   15  C   UNL     1       3.553  28.286  48.164  1.00  0.00     0.013 A 
HETATM   16  C   UNL     1       2.989  31.009  47.572  1.00  0.00     0.039 C 
HETATM   17  C   UNL     1       2.648  29.925  46.525  1.00  0.00     0.191 C 
HETATM   18  C   UNL     1       2.463  28.525  47.179  1.00  0.00     0.081 C 
HETATM   19  S   UNL     1       3.936  26.774  48.856  1.00  0.00    -0.055 SA
BRANCH  17  20
HETATM   20  N   UNL     1       1.375  30.298  45.794  1.00  0.00    -0.071 N 
HETATM   21  H   UNL     1       1.487  30.111  44.787  1.00  0.00     0.277 HD
HETATM   22  H   UNL     1       1.236  31.316  45.874  1.00  0.00     0.277 HD
BRANCH  20  23
HETATM   23  C   UNL     1       0.124  29.627  46.284  1.00  0.00     0.232 C 
BRANCH  23  24
HETATM   24  C   UNL     1      -0.936  30.686  46.548  1.00  0.00     0.023 C 
HETATM   25  C   UNL     1      -0.682  31.396  47.870  1.00  0.00     0.007 C 
ENDBRANCH  23  24
ENDBRANCH  20  23
ENDBRANCH  17  20
ENDBRANCH   8  11
ENDBRANCH   1   7
BRANCH   5  26
HETATM   26  C   UNL     1       7.344  24.720  56.289  1.00  0.00     0.114 C 
HETATM   27  C   UNL     1       8.142  23.574  56.913  1.00  0.00     0.037 C 
BRANCH  26  28
HETATM   28  N   UNL     1       7.871  26.001  56.725  1.00  0.00    -0.349 N 
HETATM   29  C   UNL     1       7.047  27.041  57.097  1.00  0.00     0.252 C 
HETATM   30  O   UNL     1       5.825  26.962  57.162  1.00  0.00    -0.268 OA
HETATM   31  H   UNL     1       8.870  26.140  56.671  1.00  0.00     0.163 HD
BRANCH  29  32
HETATM   32  C   UNL     1       7.732  28.307  57.465  1.00  0.00     0.033 A 
HETATM   33  C   UNL     1       6.981  29.321  58.067  1.00  0.00     0.020 A 
HETATM   34  C   UNL     1       7.591  30.524  58.445  1.00  0.00     0.039 A 
HETATM   35  C   UNL     1       8.956  30.728  58.213  1.00  0.00     0.089 A 
HETATM   36  C   UNL     1       9.694  29.710  57.585  1.00  0.00     0.068 A 
HETATM   37 CL   UNL     1      11.380  29.898  57.247  1.00  0.00    -0.081 Cl
HETATM   38  C   UNL     1       9.089  28.506  57.209  1.00  0.00     0.043 A 
BRANCH  35  39
HETATM   39  O   UNL     1       9.637  31.867  58.550  1.00  0.00    -0.354 OA
HETATM   40  C   UNL     1       9.627  32.272  59.912  1.00  0.00     0.210 C 
ENDBRANCH  35  39
ENDBRANCH  29  32
ENDBRANCH  26  28
ENDBRANCH   5  26
TORSDOF 9
ENDMDL
MODEL 5
REMARK VINA RESULT:      -9.3      1.953      2.757
REMARK  9 active torsions:
REMARK  status: ('A' for Active; 'I' for Inactive)
REMARK    1  A    between atoms: C_2  and  C_3 
REMARK    2  A    between atoms: C_3  and  N_4 
REMARK    3  A    between atoms: N_4  and  C_7 
REMARK    4  A    between atoms: C_12  and  N_13 
REMARK       I    between atoms: N_13  and  C_14 
REMARK    5  A    between atoms: C_14  and  C_16 
REMARK    6  A    between atoms: C_20  and  C_22 
REMARK    7  A    between atoms: C_22  and  N_24 
REMARK       I    between atoms: N_24  and  C_25 
REMARK    8  A    between atoms: C_25  and  C_27 
REMARK    9  A    between atoms: C_30  and  O_31 
ROOT
HETATM    1  C   UNL     1       5.625  31.530  58.832  1.00  0.00     0.033 A 
HETATM    2  C   UNL     1       4.457  31.265  58.105  1.00  0.00     0.017 A 
HETATM    3  C   UNL     1       4.507  30.504  56.939  1.00  0.00     0.002 A 
HETATM    4  C   UNL     1       5.723  29.989  56.493  1.00  0.00     0.009 A 
HETATM    5  C   UNL     1       6.904  30.209  57.219  1.00  0.00    -0.035 A 
HETATM    6  C   UNL     1       6.842  30.994  58.388  1.00  0.00     0.026 A 
ENDROOT
BRANCH   1   7
HETATM    7  C   UNL     1       5.503  32.349  60.074  1.00  0.00     0.257 C 
HETATM    8  N   UNL     1       5.765  31.698  61.263  1.00  0.00    -0.301 N 
HETATM    9  H   UNL     1       6.077  30.739  61.285  1.00  0.00     0.171 HD
HETATM   10  O   UNL     1       5.200  33.531  59.948  1.00  0.00    -0.267 OA
BRANCH   8  11
HETATM   11  C   UNL     1       5.682  32.353  62.461  1.00  0.00     0.174 A 
HETATM   12  N   UNL     1       4.625  32.836  63.067  1.00  0.00    -0.228 NA
HETATM   13  C   UNL     1       4.993  33.425  64.245  1.00  0.00     0.050 A 
HETATM   14  C   UNL     1       3.978  34.054  65.130  1.00  0.00     0.062 C 
HETATM   15  C   UNL     1       6.336  33.352  64.545  1.00  0.00     0.013 A 
HETATM   16  C   UNL     1       4.649  34.936  66.195  1.00  0.00     0.039 C 
HETATM   17  C   UNL     1       5.867  34.226  66.827  1.00  0.00     0.191 C 
HETATM   18  C   UNL     1       6.967  33.913  65.771  1.00  0.00     0.081 C 
HETATM   19  S   UNL     1       7.173  32.563  63.285  1.00  0.00    -0.055 SA
BRANCH  17  20
HETATM   20  N   UNL     1       6.463  35.095  67.914  1.00  0.00    -0.071 N 
HETATM   21  H   UNL     1       5.780  35.813  68.198  1.00  0.00     0.277 HD
HETATM   22  H   UNL     1       7.262  35.613  67.520  1.00  0.00     0.277 HD
BRANCH  20  23
HETATM   23  C   UNL     1       6.948  34.367  69.134  1.00  0.00     0.232 C 
BRANCH  23  24
HETATM   24  C   UNL     1       8.116  35.135  69.738  1.00  0.00     0.023 C 
HETATM   25  C   UNL     1       8.704  34.388  70.926  1.00  0.00     0.007 C 
ENDBRANCH  23  24
ENDBRANCH  20  23
ENDBRANCH  17  20
ENDBRANCH   8  11
ENDBRANCH   1   7
BRANCH   5  26
HETATM   26  C   UNL     1       8.248  29.671  56.757  1.00  0.00     0.114 C 
HETATM   27  C   UNL     1       9.339  29.748  57.827  1.00  0.00     0.037 C 
BRANCH  26  28
HETATM   28  N   UNL     1       8.092  28.305  56.290  1.00  0.00    -0.349 N 
HETATM   29  C   UNL     1       7.871  27.257  57.158  1.00  0.00     0.252 C 
HETATM   30  O   UNL     1       7.716  27.386  58.367  1.00  0.00    -0.268 OA
HETATM   31  H   UNL     1       8.233  28.126  55.306  1.00  0.00     0.163 HD
BRANCH  29  32
HETATM   32  C   UNL     1       7.788  25.911  56.536  1.00  0.00     0.033 A 
HETATM   33  C   UNL     1       8.419  24.840  57.177  1.00  0.00     0.020 A 
HETATM   34  C   UNL     1       8.350  23.550  56.634  1.00  0.00     0.039 A 
HETATM   35  C   UNL     1       7.662  23.322  55.438  1.00  0.00     0.089 A 
HETATM   36  C   UNL     1       7.054  24.412  54.791  1.00  0.00     0.068 A 
HETATM   37 CL   UNL     1       6.203  24.211  53.297  1.00  0.00    -0.081 Cl
HETATM   38  C   UNL     1       7.116  25.700  55.331  1.00  0.00     0.043 A 
BRANCH  35  39
HETATM   39  O   UNL     1       7.541  22.099  54.834  1.00  0.00    -0.354 OA
HETATM   40  C   UNL     1       8.202  20.993  55.433  1.00  0.00     0.210 C 
ENDBRANCH  35  39
ENDBRANCH  29  32
ENDBRANCH  26  28
ENDBRANCH   5  26
TORSDOF 9
ENDMDL
MODEL 6
REMARK VINA RESULT:      -9.2      1.581      2.206
REMARK  9 active torsions:
REMARK  status: ('A' for Active; 'I' for Inactive)
REMARK    1  A    between atoms: C_2  and  C_3 
REMARK    2  A    between atoms: C_3  and  N_4 
REMARK    3  A    between atoms: N_4  and  C_7 
REMARK    4  A    between atoms: C_12  and  N_13 
REMARK       I    between atoms: N_13  and  C_14 
REMARK    5  A    between atoms: C_14  and  C_16 
REMARK    6  A    between atoms: C_20  and  C_22 
REMARK    7  A    between atoms: C_22  and  N_24 
REMARK       I    between atoms: N_24  and  C_25 
REMARK    8  A    between atoms: C_25  and  C_27 
REMARK    9  A    between atoms: C_30  and  O_31 
ROOT
HETATM    1  C   UNL     1       5.878  30.772  58.010  1.00  0.00     0.033 A 
HETATM    2  C   UNL     1       4.592  30.274  57.763  1.00  0.00     0.017 A 
HETATM    3  C   UNL     1       4.376  29.351  56.742  1.00  0.00     0.002 A 
HETATM    4  C   UNL     1       5.445  28.906  55.964  1.00  0.00     0.009 A 
HETATM    5  C   UNL     1       6.749  29.362  56.212  1.00  0.00    -0.035 A 
HETATM    6  C   UNL     1       6.951  30.307  57.238  1.00  0.00     0.026 A 
ENDROOT
BRANCH   1   7
HETATM    7  C   UNL     1       6.042  31.756  59.121  1.00  0.00     0.257 C 
HETATM    8  N   UNL     1       4.986  31.861  60.004  1.00  0.00    -0.301 N 
HETATM    9  H   UNL     1       4.175  31.266  59.934  1.00  0.00     0.171 HD
HETATM   10  O   UNL     1       7.098  32.378  59.179  1.00  0.00    -0.267 OA
BRANCH   8  11
HETATM   11  C   UNL     1       5.030  32.733  61.058  1.00  0.00     0.174 A 
HETATM   12  N   UNL     1       4.882  34.034  61.061  1.00  0.00    -0.228 NA
HETATM   13  C   UNL     1       5.011  34.514  62.334  1.00  0.00     0.050 A 
HETATM   14  C   UNL     1       4.887  35.969  62.614  1.00  0.00     0.062 C 
HETATM   15  C   UNL     1       5.221  33.559  63.305  1.00  0.00     0.013 A 
HETATM   16  C   UNL     1       5.404  36.303  64.023  1.00  0.00     0.039 C 
HETATM   17  C   UNL     1       4.891  35.286  65.066  1.00  0.00     0.191 C 
HETATM   18  C   UNL     1       5.382  33.841  64.757  1.00  0.00     0.081 C 
HETATM   19  S   UNL     1       5.310  32.012  62.591  1.00  0.00    -0.055 SA
BRANCH  17  20
HETATM   20  N   UNL     1       5.366  35.681  66.448  1.00  0.00    -0.071 N 
HETATM   21  H   UNL     1       4.820  36.488  66.785  1.00  0.00     0.277 HD
HETATM   22  H   UNL     1       6.339  36.013  66.380  1.00  0.00     0.277 HD
BRANCH  20  23
HETATM   23  C   UNL     1       5.327  34.594  67.484  1.00  0.00     0.232 C 
BRANCH  23  24
HETATM   24  C   UNL     1       6.716  34.431  68.084  1.00  0.00     0.023 C 
HETATM   25  C   UNL     1       6.869  35.271  69.343  1.00  0.00     0.007 C 
ENDBRANCH  23  24
ENDBRANCH  20  23
ENDBRANCH  17  20
ENDBRANCH   8  11
ENDBRANCH   1   7
BRANCH   5  26
HETATM   26  C   UNL     1       7.935  28.907  55.378  1.00  0.00     0.114 C 
HETATM   27  C   UNL     1       9.279  29.426  55.892  1.00  0.00     0.037 C 
BRANCH  26  28
HETATM   28  N   UNL     1       7.948  27.457  55.300  1.00  0.00    -0.349 N 
HETATM   29  C   UNL     1       7.543  26.782  54.169  1.00  0.00     0.252 C 
HETATM   30  O   UNL     1       7.213  27.329  53.122  1.00  0.00    -0.268 OA
HETATM   31  H   UNL     1       8.186  26.944  56.137  1.00  0.00     0.163 HD
BRANCH  29  32
HETATM   32  C   UNL     1       7.558  25.300  54.261  1.00  0.00     0.033 A 
HETATM   33  C   UNL     1       7.236  24.556  53.121  1.00  0.00     0.020 A 
HETATM   34  C   UNL     1       7.256  23.156  53.160  1.00  0.00     0.039 A 
HETATM   35  C   UNL     1       7.585  22.486  54.343  1.00  0.00     0.089 A 
HETATM   36  C   UNL     1       7.882  23.245  55.489  1.00  0.00     0.068 A 
HETATM   37 CL   UNL     1       8.278  22.487  56.993  1.00  0.00    -0.081 Cl
HETATM   38  C   UNL     1       7.868  24.643  55.453  1.00  0.00     0.043 A 
BRANCH  35  39
HETATM   39  O   UNL     1       7.631  21.124  54.475  1.00  0.00    -0.354 OA
HETATM   40  C   UNL     1       8.545  20.406  53.657  1.00  0.00     0.210 C 
ENDBRANCH  35  39
ENDBRANCH  29  32
ENDBRANCH  26  28
ENDBRANCH   5  26
TORSDOF 9
ENDMDL
MODEL 7
REMARK VINA RESULT:      -9.1      4.441     12.645
REMARK  9 active torsions:
REMARK  status: ('A' for Active; 'I' for Inactive)
REMARK    1  A    between atoms: C_2  and  C_3 
REMARK    2  A    between atoms: C_3  and  N_4 
REMARK    3  A    between atoms: N_4  and  C_7 
REMARK    4  A    between atoms: C_12  and  N_13 
REMARK       I    between atoms: N_13  and  C_14 
REMARK    5  A    between atoms: C_14  and  C_16 
REMARK    6  A    between atoms: C_20  and  C_22 
REMARK    7  A    between atoms: C_22  and  N_24 
REMARK       I    between atoms: N_24  and  C_25 
REMARK    8  A    between atoms: C_25  and  C_27 
REMARK    9  A    between atoms: C_30  and  O_31 
ROOT
HETATM    1  C   UNL     1       7.711  31.560  60.246  1.00  0.00     0.033 A 
HETATM    2  C   UNL     1       9.071  31.398  60.539  1.00  0.00     0.017 A 
HETATM    3  C   UNL     1       9.581  31.798  61.772  1.00  0.00     0.002 A 
HETATM    4  C   UNL     1       8.735  32.354  62.731  1.00  0.00     0.009 A 
HETATM    5  C   UNL     1       7.362  32.498  62.478  1.00  0.00    -0.035 A 
HETATM    6  C   UNL     1       6.862  32.103  61.221  1.00  0.00     0.026 A 
ENDROOT
BRANCH   1   7
HETATM    7  C   UNL     1       7.227  31.108  58.908  1.00  0.00     0.257 C 
HETATM    8  N   UNL     1       7.388  29.767  58.623  1.00  0.00    -0.301 N 
HETATM    9  H   UNL     1       7.758  29.121  59.303  1.00  0.00     0.171 HD
HETATM   10  O   UNL     1       6.712  31.947  58.176  1.00  0.00    -0.267 OA
BRANCH   8  11
HETATM   11  C   UNL     1       6.981  29.245  57.424  1.00  0.00     0.174 A 
HETATM   12  N   UNL     1       5.776  28.905  57.038  1.00  0.00    -0.228 NA
HETATM   13  C   UNL     1       5.818  28.414  55.763  1.00  0.00     0.050 A 
HETATM   14  C   UNL     1       4.578  27.954  55.084  1.00  0.00     0.062 C 
HETATM   15  C   UNL     1       7.063  28.419  55.171  1.00  0.00     0.013 A 
HETATM   16  C   UNL     1       4.912  27.139  53.824  1.00  0.00     0.039 C 
HETATM   17  C   UNL     1       6.022  27.819  52.992  1.00  0.00     0.191 C 
HETATM   18  C   UNL     1       7.352  27.942  53.791  1.00  0.00     0.081 C 
HETATM   19  S   UNL     1       8.228  29.012  56.268  1.00  0.00    -0.055 SA
BRANCH  17  20
HETATM   20  N   UNL     1       6.280  27.024  51.730  1.00  0.00    -0.071 N 
HETATM   21  H   UNL     1       7.211  27.257  51.357  1.00  0.00     0.277 HD
HETATM   22  H   UNL     1       5.608  27.325  51.008  1.00  0.00     0.277 HD
BRANCH  20  23
HETATM   23  C   UNL     1       6.163  25.533  51.865  1.00  0.00     0.232 C 
BRANCH  23  24
HETATM   24  C   UNL     1       7.559  24.927  51.905  1.00  0.00     0.023 C 
HETATM   25  C   UNL     1       7.621  23.761  52.879  1.00  0.00     0.007 C 
ENDBRANCH  23  24
ENDBRANCH  20  23
ENDBRANCH  17  20
ENDBRANCH   8  11
ENDBRANCH   1   7
BRANCH   5  26
HETATM   26  C   UNL     1       6.413  33.110  63.496  1.00  0.00     0.114 C 
HETATM   27  C   UNL     1       7.095  33.504  64.807  1.00  0.00     0.037 C 
BRANCH  26  28
HETATM   28  N   UNL     1       5.741  34.255  62.909  1.00  0.00    -0.349 N 
HETATM   29  C   UNL     1       4.370  34.320  62.798  1.00  0.00     0.252 C 
HETATM   30  O   UNL     1       3.603  33.472  63.240  1.00  0.00    -0.268 OA
HETATM   31  H   UNL     1       6.317  34.979  62.502  1.00  0.00     0.163 HD
BRANCH  29  32
HETATM   32  C   UNL     1       3.833  35.530  62.124  1.00  0.00     0.033 A 
HETATM   33  C   UNL     1       4.172  36.786  62.637  1.00  0.00     0.020 A 
HETATM   34  C   UNL     1       3.701  37.953  62.021  1.00  0.00     0.039 A 
HETATM   35  C   UNL     1       2.876  37.874  60.894  1.00  0.00     0.089 A 
HETATM   36  C   UNL     1       2.522  36.605  60.404  1.00  0.00     0.068 A 
HETATM   37 CL   UNL     1       1.489  36.428  59.027  1.00  0.00    -0.081 Cl
HETATM   38  C   UNL     1       2.993  35.438  61.013  1.00  0.00     0.043 A 
BRANCH  35  39
HETATM   39  O   UNL     1       2.370  38.957  60.226  1.00  0.00    -0.354 OA
HETATM   40  C   UNL     1       2.238  40.178  60.942  1.00  0.00     0.210 C 
ENDBRANCH  35  39
ENDBRANCH  29  32
ENDBRANCH  26  28
ENDBRANCH   5  26
TORSDOF 9
ENDMDL
MODEL 8
REMARK VINA RESULT:      -9.0      4.827     13.156
REMARK  9 active torsions:
REMARK  status: ('A' for Active; 'I' for Inactive)
REMARK    1  A    between atoms: C_2  and  C_3 
REMARK    2  A    between atoms: C_3  and  N_4 
REMARK    3  A    between atoms: N_4  and  C_7 
REMARK    4  A    between atoms: C_12  and  N_13 
REMARK       I    between atoms: N_13  and  C_14 
REMARK    5  A    between atoms: C_14  and  C_16 
REMARK    6  A    between atoms: C_20  and  C_22 
REMARK    7  A    between atoms: C_22  and  N_24 
REMARK       I    between atoms: N_24  and  C_25 
REMARK    8  A    between atoms: C_25  and  C_27 
REMARK    9  A    between atoms: C_30  and  O_31 
ROOT
HETATM    1  C   UNL     1       7.511  31.762  60.291  1.00  0.00     0.033 A 
HETATM    2  C   UNL     1       8.843  31.510  60.642  1.00  0.00     0.017 A 
HETATM    3  C   UNL     1       9.338  31.919  61.878  1.00  0.00     0.002 A 
HETATM    4  C   UNL     1       8.503  32.573  62.783  1.00  0.00     0.009 A 
HETATM    5  C   UNL     1       7.155  32.809  62.472  1.00  0.00    -0.035 A 
HETATM    6  C   UNL     1       6.671  32.404  61.212  1.00  0.00     0.026 A 
ENDROOT
BRANCH   1   7
HETATM    7  C   UNL     1       7.042  31.295  58.952  1.00  0.00     0.257 C 
HETATM    8  N   UNL     1       7.251  29.962  58.663  1.00  0.00    -0.301 N 
HETATM    9  H   UNL     1       7.645  29.328  59.342  1.00  0.00     0.171 HD
HETATM   10  O   UNL     1       6.496  32.117  58.222  1.00  0.00    -0.267 OA
BRANCH   8  11
HETATM   11  C   UNL     1       6.862  29.428  57.465  1.00  0.00     0.174 A 
HETATM   12  N   UNL     1       5.658  29.121  57.049  1.00  0.00    -0.228 NA
HETATM   13  C   UNL     1       5.721  28.601  55.786  1.00  0.00     0.050 A 
HETATM   14  C   UNL     1       4.486  28.168  55.080  1.00  0.00     0.062 C 
HETATM   15  C   UNL     1       6.982  28.553  55.232  1.00  0.00     0.013 A 
HETATM   16  C   UNL     1       4.829  27.315  53.847  1.00  0.00     0.039 C 
HETATM   17  C   UNL     1       5.985  27.940  53.036  1.00  0.00     0.191 C 
HETATM   18  C   UNL     1       7.295  28.037  53.871  1.00  0.00     0.081 C 
HETATM   19  S   UNL     1       8.133  29.130  56.351  1.00  0.00    -0.055 SA
BRANCH  17  20
HETATM   20  N   UNL     1       6.252  27.111  51.798  1.00  0.00    -0.071 N 
HETATM   21  H   UNL     1       7.196  27.317  51.439  1.00  0.00     0.277 HD
HETATM   22  H   UNL     1       5.602  27.408  51.056  1.00  0.00     0.277 HD
BRANCH  20  23
HETATM   23  C   UNL     1       6.103  25.626  51.966  1.00  0.00     0.232 C 
BRANCH  23  24
HETATM   24  C   UNL     1       7.479  24.978  51.903  1.00  0.00     0.023 C 
HETATM   25  C   UNL     1       7.799  24.248  53.198  1.00  0.00     0.007 C 
ENDBRANCH  23  24
ENDBRANCH  20  23
ENDBRANCH  17  20
ENDBRANCH   8  11
ENDBRANCH   1   7
BRANCH   5  26
HETATM   26  C   UNL     1       6.219  33.528  63.430  1.00  0.00     0.114 C 
HETATM   27  C   UNL     1       6.638  33.410  64.897  1.00  0.00     0.037 C 
BRANCH  26  28
HETATM   28  N   UNL     1       6.107  34.924  63.046  1.00  0.00    -0.349 N 
HETATM   29  C   UNL     1       4.934  35.631  63.195  1.00  0.00     0.252 C 
HETATM   30  O   UNL     1       3.922  35.181  63.721  1.00  0.00    -0.268 OA
HETATM   31  H   UNL     1       6.898  35.347  62.582  1.00  0.00     0.163 HD
BRANCH  29  32
HETATM   32  C   UNL     1       4.957  37.032  62.703  1.00  0.00     0.033 A 
HETATM   33  C   UNL     1       3.829  37.527  62.042  1.00  0.00     0.020 A 
HETATM   34  C   UNL     1       3.803  38.849  61.578  1.00  0.00     0.039 A 
HETATM   35  C   UNL     1       4.911  39.684  61.760  1.00  0.00     0.089 A 
HETATM   36  C   UNL     1       6.048  39.166  62.405  1.00  0.00     0.068 A 
HETATM   37 CL   UNL     1       7.463  40.132  62.647  1.00  0.00    -0.081 Cl
HETATM   38  C   UNL     1       6.077  37.849  62.873  1.00  0.00     0.043 A 
BRANCH  35  39
HETATM   39  O   UNL     1       4.976  40.986  61.343  1.00  0.00    -0.354 OA
HETATM   40  C   UNL     1       5.265  41.234  59.974  1.00  0.00     0.210 C 
ENDBRANCH  35  39
ENDBRANCH  29  32
ENDBRANCH  26  28
ENDBRANCH   5  26
TORSDOF 9
ENDMDL
MODEL 9
REMARK VINA RESULT:      -9.0      4.728     13.307
REMARK  9 active torsions:
REMARK  status: ('A' for Active; 'I' for Inactive)
REMARK    1  A    between atoms: C_2  and  C_3 
REMARK    2  A    between atoms: C_3  and  N_4 
REMARK    3  A    between atoms: N_4  and  C_7 
REMARK    4  A    between atoms: C_12  and  N_13 
REMARK       I    between atoms: N_13  and  C_14 
REMARK    5  A    between atoms: C_14  and  C_16 
REMARK    6  A    between atoms: C_20  and  C_22 
REMARK    7  A    between atoms: C_22  and  N_24 
REMARK       I    between atoms: N_24  and  C_25 
REMARK    8  A    between atoms: C_25  and  C_27 
REMARK    9  A    between atoms: C_30  and  O_31 
ROOT
HETATM    1  C   UNL     1       8.314  30.907  59.782  1.00  0.00     0.033 A 
HETATM    2  C   UNL     1       9.490  31.124  60.512  1.00  0.00     0.017 A 
HETATM    3  C   UNL     1       9.470  31.900  61.670  1.00  0.00     0.002 A 
HETATM    4  C   UNL     1       8.272  32.456  62.117  1.00  0.00     0.009 A 
HETATM    5  C   UNL     1       7.073  32.227  61.424  1.00  0.00    -0.035 A 
HETATM    6  C   UNL     1       7.110  31.454  60.246  1.00  0.00     0.026 A 
ENDROOT
BRANCH   1   7
HETATM    7  C   UNL     1       8.403  30.064  58.552  1.00  0.00     0.257 C 
HETATM    8  N   UNL     1       7.308  29.271  58.276  1.00  0.00    -0.301 N 
HETATM    9  H   UNL     1       6.473  29.304  58.841  1.00  0.00     0.171 HD
HETATM   10  O   UNL     1       9.423  30.151  57.876  1.00  0.00    -0.267 OA
BRANCH   8  11
HETATM   11  C   UNL     1       7.283  28.459  57.174  1.00  0.00     0.174 A 
HETATM   12  N   UNL     1       7.277  28.786  55.906  1.00  0.00    -0.228 NA
HETATM   13  C   UNL     1       7.239  27.658  55.135  1.00  0.00     0.050 A 
HETATM   14  C   UNL     1       7.223  27.751  53.651  1.00  0.00     0.062 C 
HETATM   15  C   UNL     1       7.254  26.468  55.831  1.00  0.00     0.013 A 
HETATM   16  C   UNL     1       6.834  26.404  53.020  1.00  0.00     0.039 C 
HETATM   17  C   UNL     1       7.578  25.231  53.696  1.00  0.00     0.191 C 
HETATM   18  C   UNL     1       7.226  25.117  55.209  1.00  0.00     0.081 C 
HETATM   19  S   UNL     1       7.264  26.775  57.510  1.00  0.00    -0.055 SA
BRANCH  17  20
HETATM   20  N   UNL     1       7.221  23.931  53.009  1.00  0.00    -0.071 N 
HETATM   21  H   UNL     1       6.892  24.123  52.052  1.00  0.00     0.277 HD
HETATM   22  H   UNL     1       6.418  23.509  53.499  1.00  0.00     0.277 HD
BRANCH  20  23
HETATM   23  C   UNL     1       8.313  22.902  52.957  1.00  0.00     0.232 C 
BRANCH  23  24
HETATM   24  C   UNL     1       7.716  21.528  53.228  1.00  0.00     0.023 C 
HETATM   25  C   UNL     1       8.795  20.457  53.246  1.00  0.00     0.007 C 
ENDBRANCH  23  24
ENDBRANCH  20  23
ENDBRANCH  17  20
ENDBRANCH   8  11
ENDBRANCH   1   7
BRANCH   5  26
HETATM   26  C   UNL     1       5.752  32.827  61.877  1.00  0.00     0.114 C 
HETATM   27  C   UNL     1       5.170  32.152  63.121  1.00  0.00     0.037 C 
BRANCH  26  28
HETATM   28  N   UNL     1       5.916  34.252  62.103  1.00  0.00    -0.349 N 
HETATM   29  C   UNL     1       4.928  35.159  61.789  1.00  0.00     0.252 C 
HETATM   30  O   UNL     1       3.818  34.851  61.368  1.00  0.00    -0.268 OA
HETATM   31  H   UNL     1       6.817  34.575  62.424  1.00  0.00     0.163 HD
BRANCH  29  32
HETATM   32  C   UNL     1       5.264  36.587  62.024  1.00  0.00     0.033 A 
HETATM   33  C   UNL     1       5.811  36.950  63.259  1.00  0.00     0.020 A 
HETATM   34  C   UNL     1       6.159  38.282  63.516  1.00  0.00     0.039 A 
HETATM   35  C   UNL     1       5.950  39.267  62.544  1.00  0.00     0.089 A 
HETATM   36  C   UNL     1       5.377  38.893  61.316  1.00  0.00     0.068 A 
HETATM   37 CL   UNL     1       5.071  40.059  60.074  1.00  0.00    -0.081 Cl
HETATM   38  C   UNL     1       5.032  37.563  61.054  1.00  0.00     0.043 A 
BRANCH  35  39
HETATM   39  O   UNL     1       6.260  40.591  62.704  1.00  0.00    -0.354 OA
HETATM   40  C   UNL     1       5.918  41.210  63.937  1.00  0.00     0.210 C 
ENDBRANCH  35  39
ENDBRANCH  29  32
ENDBRANCH  26  28
ENDBRANCH   5  26
TORSDOF 9
ENDMDL
MODEL 10
REMARK VINA RESULT:      -8.9      5.727     13.319
REMARK  9 active torsions:
REMARK  status: ('A' for Active; 'I' for Inactive)
REMARK    1  A    between atoms: C_2  and  C_3 
REMARK    2  A    between atoms: C_3  and  N_4 
REMARK    3  A    between atoms: N_4  and  C_7 
REMARK    4  A    between atoms: C_12  and  N_13 
REMARK       I    between atoms: N_13  and  C_14 
REMARK    5  A    between atoms: C_14  and  C_16 
REMARK    6  A    between atoms: C_20  and  C_22 
REMARK    7  A    between atoms: C_22  and  N_24 
REMARK       I    between atoms: N_24  and  C_25 
REMARK    8  A    between atoms: C_25  and  C_27 
REMARK    9  A    between atoms: C_30  and  O_31 
ROOT
HETATM    1  C   UNL     1       6.334  26.290  55.038  1.00  0.00     0.033 A 
HETATM    2  C   UNL     1       6.091  25.283  55.980  1.00  0.00     0.017 A 
HETATM    3  C   UNL     1       6.760  25.282  57.202  1.00  0.00     0.002 A 
HETATM    4  C   UNL     1       7.671  26.294  57.501  1.00  0.00     0.009 A 
HETATM    5  C   UNL     1       7.909  27.335  56.590  1.00  0.00    -0.035 A 
HETATM    6  C   UNL     1       7.237  27.315  55.351  1.00  0.00     0.026 A 
ENDROOT
BRANCH   1   7
HETATM    7  C   UNL     1       5.582  26.235  53.749  1.00  0.00     0.257 C 
HETATM    8  N   UNL     1       5.806  27.273  52.867  1.00  0.00    -0.301 N 
HETATM    9  H   UNL     1       6.483  27.996  53.060  1.00  0.00     0.171 HD
HETATM   10  O   UNL     1       4.843  25.274  53.562  1.00  0.00    -0.267 OA
BRANCH   8  11
HETATM   11  C   UNL     1       5.169  27.323  51.657  1.00  0.00     0.174 A 
HETATM   12  N   UNL     1       5.173  26.446  50.684  1.00  0.00    -0.228 NA
HETATM   13  C   UNL     1       4.408  26.900  49.646  1.00  0.00     0.050 A 
HETATM   14  C   UNL     1       4.245  26.090  48.410  1.00  0.00     0.062 C 
HETATM   15  C   UNL     1       3.792  28.115  49.856  1.00  0.00     0.013 A 
HETATM   16  C   UNL     1       3.647  26.935  47.274  1.00  0.00     0.039 C 
HETATM   17  C   UNL     1       2.466  27.794  47.775  1.00  0.00     0.191 C 
HETATM   18  C   UNL     1       2.908  28.803  48.875  1.00  0.00     0.081 C 
HETATM   19  S   UNL     1       4.228  28.733  51.385  1.00  0.00    -0.055 SA
BRANCH  17  20
HETATM   20  N   UNL     1       1.861  28.563  46.619  1.00  0.00    -0.071 N 
HETATM   21  H   UNL     1       1.726  27.932  45.816  1.00  0.00     0.277 HD
HETATM   22  H   UNL     1       2.540  29.271  46.304  1.00  0.00     0.277 HD
BRANCH  20  23
HETATM   23  C   UNL     1       0.569  29.270  46.914  1.00  0.00     0.232 C 
BRANCH  23  24
HETATM   24  C   UNL     1      -0.443  28.925  45.830  1.00  0.00     0.023 C 
HETATM   25  C   UNL     1      -0.374  27.450  45.467  1.00  0.00     0.007 C 
ENDBRANCH  23  24
ENDBRANCH  20  23
ENDBRANCH  17  20
ENDBRANCH   8  11
ENDBRANCH   1   7
BRANCH   5  26
HETATM   26  C   UNL     1       8.903  28.449  56.878  1.00  0.00     0.114 C 
HETATM   27  C   UNL     1       9.208  29.325  55.662  1.00  0.00     0.037 C 
BRANCH  26  28
HETATM   28  N   UNL     1       8.418  29.261  57.980  1.00  0.00    -0.349 N 
HETATM   29  C   UNL     1       9.205  30.215  58.586  1.00  0.00     0.252 C 
HETATM   30  O   UNL     1      10.335  30.512  58.215  1.00  0.00    -0.268 OA
HETATM   31  H   UNL     1       7.502  29.049  58.351  1.00  0.00     0.163 HD
BRANCH  29  32
HETATM   32  C   UNL     1       8.589  30.925  59.736  1.00  0.00     0.033 A 
HETATM   33  C   UNL     1       9.250  30.902  60.968  1.00  0.00     0.020 A 
HETATM   34  C   UNL     1       8.712  31.573  62.073  1.00  0.00     0.039 A 
HETATM   35  C   UNL     1       7.501  32.264  61.960  1.00  0.00     0.089 A 
HETATM   36  C   UNL     1       6.833  32.258  60.723  1.00  0.00     0.068 A 
HETATM   37 CL   UNL     1       5.321  33.073  60.512  1.00  0.00    -0.081 Cl
HETATM   38  C   UNL     1       7.369  31.593  59.616  1.00  0.00     0.043 A 
BRANCH  35  39
HETATM   39  O   UNL     1       6.900  32.948  62.983  1.00  0.00    -0.354 OA
HETATM   40  C   UNL     1       7.611  33.075  64.207  1.00  0.00     0.210 C 
ENDBRANCH  35  39
ENDBRANCH  29  32
ENDBRANCH  26  28
ENDBRANCH   5  26
TORSDOF 9
ENDMDL
