MODEL 1
REMARK VINA RESULT:      -8.6      0.000      0.000
REMARK  5 active torsions:
REMARK  status: ('A' for Active; 'I' for Inactive)
REMARK    1  A    between atoms: C_2  and  N_3 
REMARK    2  A    between atoms: C_2  and  C_19 
REMARK       I    between atoms: N_3  and  C_4 
REMARK    3  A    between atoms: C_4  and  C_5 
REMARK    4  A    between atoms: C_7  and  O_8 
REMARK    5  A    between atoms: O_8  and  C_9 
ROOT
HETATM    1  C   UNL     1       7.103  27.222  56.828  1.00  0.00     0.146 A 
HETATM    2  O   UNL     1       8.051  26.249  56.639  1.00  0.00    -0.282 OA
HETATM    3  C   UNL     1       7.432  25.041  56.703  1.00  0.00     0.191 A 
HETATM    4  C   UNL     1       6.086  25.214  56.937  1.00  0.00     0.067 A 
HETATM    5  C   UNL     1       5.873  26.614  57.017  1.00  0.00     0.048 A 
ENDROOT
BRANCH   1   6
HETATM    6  C   UNL     1       7.543  28.607  56.805  1.00  0.00     0.276 C 
HETATM    7  N   UNL     1       8.360  28.977  57.860  1.00  0.00    -0.347 N 
HETATM    8  H   UNL     1       8.472  28.342  58.634  1.00  0.00     0.163 HD
HETATM    9  O   UNL     1       7.228  29.408  55.928  1.00  0.00    -0.265 OA
BRANCH   7  10
HETATM   10  C   UNL     1       8.788  30.351  58.052  1.00  0.00     0.114 C 
HETATM   11  C   UNL     1      10.295  30.471  57.818  1.00  0.00     0.037 C 
BRANCH  10  12
HETATM   12  C   UNL     1       8.358  30.832  59.424  1.00  0.00    -0.033 A 
HETATM   13  C   UNL     1       7.201  31.612  59.553  1.00  0.00     0.028 A 
HETATM   14  C   UNL     1       6.811  32.032  60.814  1.00  0.00     0.116 A 
HETATM   15  N   UNL     1       7.478  31.726  61.947  1.00  0.00    -0.273 NA
HETATM   16  C   UNL     1       8.579  30.959  61.810  1.00  0.00     0.116 A 
HETATM   17  C   UNL     1       9.050  30.491  60.592  1.00  0.00     0.028 A 
ENDBRANCH  10  12
ENDBRANCH   7  10
ENDBRANCH   1   6
BRANCH   3  18
HETATM   18  O   UNL     1       8.255  24.008  56.537  1.00  0.00    -0.286 OA
BRANCH  18  19
HETATM   19  C   UNL     1       8.115  23.217  55.423  1.00  0.00     0.100 A 
HETATM   20  C   UNL     1       8.155  21.824  55.536  1.00  0.00     0.068 A 
HETATM   21 CL   UNL     1       8.315  21.045  57.066  1.00  0.00    -0.081 Cl
HETATM   22  C   UNL     1       8.055  21.032  54.389  1.00  0.00     0.026 A 
HETATM   23  C   UNL     1       7.926  21.632  53.134  1.00  0.00     0.002 A 
HETATM   24  C   UNL     1       7.903  23.024  53.022  1.00  0.00     0.003 A 
HETATM   25  C   UNL     1       8.005  23.817  54.165  1.00  0.00     0.039 A 
ENDBRANCH  18  19
ENDBRANCH   3  18
TORSDOF 5
ENDMDL
MODEL 2
REMARK VINA RESULT:      -8.6      2.403      3.352
REMARK  5 active torsions:
REMARK  status: ('A' for Active; 'I' for Inactive)
REMARK    1  A    between atoms: C_2  and  N_3 
REMARK    2  A    between atoms: C_2  and  C_19 
REMARK       I    between atoms: N_3  and  C_4 
REMARK    3  A    between atoms: C_4  and  C_5 
REMARK    4  A    between atoms: C_7  and  O_8 
REMARK    5  A    between atoms: O_8  and  C_9 
ROOT
HETATM    1  C   UNL     1       5.924  26.138  54.770  1.00  0.00     0.146 A 
HETATM    2  O   UNL     1       7.154  25.548  54.636  1.00  0.00    -0.282 OA
HETATM    3  C   UNL     1       7.081  24.649  53.620  1.00  0.00     0.191 A 
HETATM    4  C   UNL     1       5.810  24.642  53.089  1.00  0.00     0.067 A 
HETATM    5  C   UNL     1       5.066  25.598  53.826  1.00  0.00     0.048 A 
ENDROOT
BRANCH   1   6
HETATM    6  C   UNL     1       5.765  27.141  55.811  1.00  0.00     0.276 C 
HETATM    7  N   UNL     1       6.596  28.241  55.693  1.00  0.00    -0.347 N 
HETATM    8  H   UNL     1       7.342  28.216  55.015  1.00  0.00     0.163 HD
HETATM    9  O   UNL     1       4.960  27.043  56.734  1.00  0.00    -0.265 OA
BRANCH   7  10
HETATM   10  C   UNL     1       6.649  29.274  56.712  1.00  0.00     0.114 C 
HETATM   11  C   UNL     1       5.786  30.467  56.297  1.00  0.00     0.037 C 
BRANCH  10  12
HETATM   12  C   UNL     1       8.093  29.649  56.984  1.00  0.00    -0.033 A 
HETATM   13  C   UNL     1       9.078  29.341  56.036  1.00  0.00     0.028 A 
HETATM   14  C   UNL     1      10.391  29.703  56.289  1.00  0.00     0.116 A 
HETATM   15  N   UNL     1      10.789  30.352  57.404  1.00  0.00    -0.273 NA
HETATM   16  C   UNL     1       9.828  30.658  58.299  1.00  0.00     0.116 A 
HETATM   17  C   UNL     1       8.488  30.338  58.136  1.00  0.00     0.028 A 
ENDBRANCH  10  12
ENDBRANCH   7  10
ENDBRANCH   1   6
BRANCH   3  18
HETATM   18  O   UNL     1       8.222  24.003  53.394  1.00  0.00    -0.286 OA
BRANCH  18  19
HETATM   19  C   UNL     1       8.353  22.708  53.831  1.00  0.00     0.100 A 
HETATM   20  C   UNL     1       8.826  22.441  55.119  1.00  0.00     0.068 A 
HETATM   21 CL   UNL     1       9.199  23.709  56.226  1.00  0.00    -0.081 Cl
HETATM   22  C   UNL     1       8.995  21.117  55.535  1.00  0.00     0.026 A 
HETATM   23  C   UNL     1       8.702  20.067  54.662  1.00  0.00     0.002 A 
HETATM   24  C   UNL     1       8.247  20.336  53.371  1.00  0.00     0.003 A 
HETATM   25  C   UNL     1       8.079  21.657  52.951  1.00  0.00     0.039 A 
ENDBRANCH  18  19
ENDBRANCH   3  18
TORSDOF 5
ENDMDL
MODEL 3
REMARK VINA RESULT:      -8.5      1.739      2.189
REMARK  5 active torsions:
REMARK  status: ('A' for Active; 'I' for Inactive)
REMARK    1  A    between atoms: C_2  and  N_3 
REMARK    2  A    between atoms: C_2  and  C_19 
REMARK       I    between atoms: N_3  and  C_4 
REMARK    3  A    between atoms: C_4  and  C_5 
REMARK    4  A    between atoms: C_7  and  O_8 
REMARK    5  A    between atoms: O_8  and  C_9 
ROOT
HETATM    1  C   UNL     1       7.722  26.866  56.455  1.00  0.00     0.146 A 
HETATM    2  O   UNL     1       7.370  26.120  55.360  1.00  0.00    -0.282 OA
HETATM    3  C   UNL     1       6.858  24.941  55.801  1.00  0.00     0.191 A 
HETATM    4  C   UNL     1       6.878  24.906  57.178  1.00  0.00     0.067 A 
HETATM    5  C   UNL     1       7.431  26.141  57.600  1.00  0.00     0.048 A 
ENDROOT
BRANCH   1   6
HETATM    6  C   UNL     1       8.302  28.178  56.221  1.00  0.00     0.276 C 
HETATM    7  N   UNL     1       9.074  28.669  57.261  1.00  0.00    -0.347 N 
HETATM    8  H   UNL     1       9.063  28.184  58.144  1.00  0.00     0.163 HD
HETATM    9  O   UNL     1       8.137  28.822  55.188  1.00  0.00    -0.265 OA
BRANCH   7  10
HETATM   10  C   UNL     1       9.625  30.012  57.238  1.00  0.00     0.114 C 
HETATM   11  C   UNL     1      11.152  29.955  57.305  1.00  0.00     0.037 C 
BRANCH  10  12
HETATM   12  C   UNL     1       9.009  30.835  58.353  1.00  0.00    -0.033 A 
HETATM   13  C   UNL     1       9.840  31.567  59.212  1.00  0.00     0.028 A 
HETATM   14  C   UNL     1       9.264  32.327  60.217  1.00  0.00     0.116 A 
HETATM   15  N   UNL     1       7.933  32.416  60.421  1.00  0.00    -0.273 NA
HETATM   16  C   UNL     1       7.145  31.721  59.576  1.00  0.00     0.116 A 
HETATM   17  C   UNL     1       7.626  30.933  58.541  1.00  0.00     0.028 A 
ENDBRANCH  10  12
ENDBRANCH   7  10
ENDBRANCH   1   6
BRANCH   3  18
HETATM   18  O   UNL     1       6.480  24.122  54.822  1.00  0.00    -0.286 OA
BRANCH  18  19
HETATM   19  C   UNL     1       7.274  23.046  54.509  1.00  0.00     0.100 A 
HETATM   20  C   UNL     1       7.934  22.988  53.278  1.00  0.00     0.068 A 
HETATM   21 CL   UNL     1       7.834  24.279  52.138  1.00  0.00    -0.081 Cl
HETATM   22  C   UNL     1       8.703  21.868  52.955  1.00  0.00     0.026 A 
HETATM   23  C   UNL     1       8.803  20.805  53.857  1.00  0.00     0.002 A 
HETATM   24  C   UNL     1       8.130  20.858  55.079  1.00  0.00     0.003 A 
HETATM   25  C   UNL     1       7.359  21.974  55.402  1.00  0.00     0.039 A 
ENDBRANCH  18  19
ENDBRANCH   3  18
TORSDOF 5
ENDMDL
MODEL 4
REMARK VINA RESULT:      -8.4      1.934      3.103
REMARK  5 active torsions:
REMARK  status: ('A' for Active; 'I' for Inactive)
REMARK    1  A    between atoms: C_2  and  N_3 
REMARK    2  A    between atoms: C_2  and  C_19 
REMARK       I    between atoms: N_3  and  C_4 
REMARK    3  A    between atoms: C_4  and  C_5 
REMARK    4  A    between atoms: C_7  and  O_8 
REMARK    5  A    between atoms: O_8  and  C_9 
ROOT
HETATM    1  C   UNL     1       7.767  29.330  57.989  1.00  0.00     0.146 A 
HETATM    2  O   UNL     1       7.616  27.980  58.179  1.00  0.00    -0.282 OA
HETATM    3  C   UNL     1       6.748  27.519  57.241  1.00  0.00     0.191 A 
HETATM    4  C   UNL     1       6.324  28.557  56.441  1.00  0.00     0.067 A 
HETATM    5  C   UNL     1       6.979  29.720  56.920  1.00  0.00     0.048 A 
ENDROOT
BRANCH   1   6
HETATM    6  C   UNL     1       8.657  30.043  58.891  1.00  0.00     0.276 C 
HETATM    7  N   UNL     1       8.154  30.250  60.164  1.00  0.00    -0.347 N 
HETATM    8  H   UNL     1       7.184  30.045  60.342  1.00  0.00     0.163 HD
HETATM    9  O   UNL     1       9.775  30.441  58.572  1.00  0.00    -0.265 OA
BRANCH   7  10
HETATM   10  C   UNL     1       8.864  31.048  61.148  1.00  0.00     0.114 C 
HETATM   11  C   UNL     1       9.556  30.138  62.164  1.00  0.00     0.037 C 
BRANCH  10  12
HETATM   12  C   UNL     1       7.909  32.037  61.787  1.00  0.00    -0.033 A 
HETATM   13  C   UNL     1       8.052  32.360  63.142  1.00  0.00     0.028 A 
HETATM   14  C   UNL     1       7.182  33.277  63.710  1.00  0.00     0.116 A 
HETATM   15  N   UNL     1       6.196  33.897  63.029  1.00  0.00    -0.273 NA
HETATM   16  C   UNL     1       6.082  33.591  61.720  1.00  0.00     0.116 A 
HETATM   17  C   UNL     1       6.902  32.686  61.063  1.00  0.00     0.028 A 
ENDBRANCH  10  12
ENDBRANCH   7  10
ENDBRANCH   1   6
BRANCH   3  18
HETATM   18  O   UNL     1       6.515  26.211  57.325  1.00  0.00    -0.286 OA
BRANCH  18  19
HETATM   19  C   UNL     1       6.715  25.426  56.216  1.00  0.00     0.100 A 
HETATM   20  C   UNL     1       7.890  24.682  56.078  1.00  0.00     0.068 A 
HETATM   21 CL   UNL     1       9.097  24.664  57.310  1.00  0.00    -0.081 Cl
HETATM   22  C   UNL     1       8.099  23.922  54.925  1.00  0.00     0.026 A 
HETATM   23  C   UNL     1       7.140  23.915  53.908  1.00  0.00     0.002 A 
HETATM   24  C   UNL     1       5.975  24.673  54.040  1.00  0.00     0.003 A 
HETATM   25  C   UNL     1       5.765  25.435  55.190  1.00  0.00     0.039 A 
ENDBRANCH  18  19
ENDBRANCH   3  18
TORSDOF 5
ENDMDL
MODEL 5
REMARK VINA RESULT:      -8.4      5.235      8.014
REMARK  5 active torsions:
REMARK  status: ('A' for Active; 'I' for Inactive)
REMARK    1  A    between atoms: C_2  and  N_3 
REMARK    2  A    between atoms: C_2  and  C_19 
REMARK       I    between atoms: N_3  and  C_4 
REMARK    3  A    between atoms: C_4  and  C_5 
REMARK    4  A    between atoms: C_7  and  O_8 
REMARK    5  A    between atoms: O_8  and  C_9 
ROOT
HETATM    1  C   UNL     1       6.906  31.651  62.243  1.00  0.00     0.146 A 
HETATM    2  O   UNL     1       6.889  31.945  60.904  1.00  0.00    -0.282 OA
HETATM    3  C   UNL     1       8.087  31.581  60.377  1.00  0.00     0.191 A 
HETATM    4  C   UNL     1       8.893  31.054  61.363  1.00  0.00     0.067 A 
HETATM    5  C   UNL     1       8.136  31.098  62.561  1.00  0.00     0.048 A 
ENDROOT
BRANCH   1   6
HETATM    6  C   UNL     1       5.718  31.963  63.019  1.00  0.00     0.276 C 
HETATM    7  N   UNL     1       5.621  33.280  63.434  1.00  0.00    -0.347 N 
HETATM    8  H   UNL     1       6.418  33.886  63.318  1.00  0.00     0.163 HD
HETATM    9  O   UNL     1       4.850  31.139  63.297  1.00  0.00    -0.265 OA
BRANCH   7  10
HETATM   10  C   UNL     1       4.560  33.729  64.317  1.00  0.00     0.114 C 
HETATM   11  C   UNL     1       3.900  34.987  63.749  1.00  0.00     0.037 C 
BRANCH  10  12
HETATM   12  C   UNL     1       5.110  33.925  65.717  1.00  0.00    -0.033 A 
HETATM   13  C   UNL     1       6.495  34.004  65.911  1.00  0.00     0.028 A 
HETATM   14  C   UNL     1       6.983  34.198  67.193  1.00  0.00     0.116 A 
HETATM   15  N   UNL     1       6.199  34.328  68.283  1.00  0.00    -0.273 NA
HETATM   16  C   UNL     1       4.867  34.269  68.079  1.00  0.00     0.116 A 
HETATM   17  C   UNL     1       4.283  34.076  66.836  1.00  0.00     0.028 A 
ENDBRANCH  10  12
ENDBRANCH   7  10
ENDBRANCH   1   6
BRANCH   3  18
HETATM   18  O   UNL     1       8.195  31.821  59.073  1.00  0.00    -0.286 OA
BRANCH  18  19
HETATM   19  C   UNL     1       8.956  30.979  58.300  1.00  0.00     0.100 A 
HETATM   20  C   UNL     1       8.386  29.843  57.720  1.00  0.00     0.068 A 
HETATM   21 CL   UNL     1       6.708  29.485  57.892  1.00  0.00    -0.081 Cl
HETATM   22  C   UNL     1       9.183  28.972  56.972  1.00  0.00     0.026 A 
HETATM   23  C   UNL     1      10.546  29.233  56.814  1.00  0.00     0.002 A 
HETATM   24  C   UNL     1      11.117  30.359  57.409  1.00  0.00     0.003 A 
HETATM   25  C   UNL     1      10.324  31.229  58.159  1.00  0.00     0.039 A 
ENDBRANCH  18  19
ENDBRANCH   3  18
TORSDOF 5
ENDMDL
MODEL 6
REMARK VINA RESULT:      -8.4      2.306      3.789
REMARK  5 active torsions:
REMARK  status: ('A' for Active; 'I' for Inactive)
REMARK    1  A    between atoms: C_2  and  N_3 
REMARK    2  A    between atoms: C_2  and  C_19 
REMARK       I    between atoms: N_3  and  C_4 
REMARK    3  A    between atoms: C_4  and  C_5 
REMARK    4  A    between atoms: C_7  and  O_8 
REMARK    5  A    between atoms: O_8  and  C_9 
ROOT
HETATM    1  C   UNL     1       8.768  29.943  58.047  1.00  0.00     0.146 A 
HETATM    2  O   UNL     1       8.198  28.817  58.586  1.00  0.00    -0.282 OA
HETATM    3  C   UNL     1       8.162  27.861  57.621  1.00  0.00     0.191 A 
HETATM    4  C   UNL     1       8.699  28.353  56.451  1.00  0.00     0.067 A 
HETATM    5  C   UNL     1       9.089  29.689  56.724  1.00  0.00     0.048 A 
ENDROOT
BRANCH   1   6
HETATM    6  C   UNL     1       8.906  31.107  58.906  1.00  0.00     0.276 C 
HETATM    7  N   UNL     1       8.171  31.058  60.078  1.00  0.00    -0.347 N 
HETATM    8  H   UNL     1       7.489  30.326  60.193  1.00  0.00     0.163 HD
HETATM    9  O   UNL     1       9.615  32.073  58.635  1.00  0.00    -0.265 OA
BRANCH   7  10
HETATM   10  C   UNL     1       8.102  32.189  60.987  1.00  0.00     0.114 C 
HETATM   11  C   UNL     1       9.196  32.075  62.050  1.00  0.00     0.037 C 
BRANCH  10  12
HETATM   12  C   UNL     1       6.708  32.287  61.574  1.00  0.00    -0.033 A 
HETATM   13  C   UNL     1       6.538  32.243  62.964  1.00  0.00     0.028 A 
HETATM   14  C   UNL     1       5.260  32.349  63.489  1.00  0.00     0.116 A 
HETATM   15  N   UNL     1       4.151  32.505  62.736  1.00  0.00    -0.273 NA
HETATM   16  C   UNL     1       4.331  32.564  61.401  1.00  0.00     0.116 A 
HETATM   17  C   UNL     1       5.568  32.467  60.782  1.00  0.00     0.028 A 
ENDBRANCH  10  12
ENDBRANCH   7  10
ENDBRANCH   1   6
BRANCH   3  18
HETATM   18  O   UNL     1       7.623  26.714  58.024  1.00  0.00    -0.286 OA
BRANCH  18  19
HETATM   19  C   UNL     1       7.673  25.624  57.190  1.00  0.00     0.100 A 
HETATM   20  C   UNL     1       6.617  25.353  56.315  1.00  0.00     0.068 A 
HETATM   21 CL   UNL     1       5.250  26.398  56.198  1.00  0.00    -0.081 Cl
HETATM   22  C   UNL     1       6.663  24.216  55.504  1.00  0.00     0.026 A 
HETATM   23  C   UNL     1       7.756  23.350  55.575  1.00  0.00     0.002 A 
HETATM   24  C   UNL     1       8.802  23.613  56.462  1.00  0.00     0.003 A 
HETATM   25  C   UNL     1       8.757  24.745  57.275  1.00  0.00     0.039 A 
ENDBRANCH  18  19
ENDBRANCH   3  18
TORSDOF 5
ENDMDL
MODEL 7
REMARK VINA RESULT:      -8.3      5.603      8.247
REMARK  5 active torsions:
REMARK  status: ('A' for Active; 'I' for Inactive)
REMARK    1  A    between atoms: C_2  and  N_3 
REMARK    2  A    between atoms: C_2  and  C_19 
REMARK       I    between atoms: N_3  and  C_4 
REMARK    3  A    between atoms: C_4  and  C_5 
REMARK    4  A    between atoms: C_7  and  O_8 
REMARK    5  A    between atoms: O_8  and  C_9 
ROOT
HETATM    1  C   UNL     1       5.715  26.716  53.113  1.00  0.00     0.146 A 
HETATM    2  O   UNL     1       6.934  26.091  53.042  1.00  0.00    -0.282 OA
HETATM    3  C   UNL     1       7.006  25.195  54.061  1.00  0.00     0.191 A 
HETATM    4  C   UNL     1       5.846  25.231  54.803  1.00  0.00     0.067 A 
HETATM    5  C   UNL     1       5.016  26.207  54.195  1.00  0.00     0.048 A 
ENDROOT
BRANCH   1   6
HETATM    6  C   UNL     1       5.417  27.730  52.115  1.00  0.00     0.276 C 
HETATM    7  N   UNL     1       4.251  27.518  51.399  1.00  0.00    -0.347 N 
HETATM    8  H   UNL     1       3.777  26.634  51.493  1.00  0.00     0.163 HD
HETATM    9  O   UNL     1       6.128  28.710  51.904  1.00  0.00    -0.265 OA
BRANCH   7  10
HETATM   10  C   UNL     1       3.870  28.369  50.286  1.00  0.00     0.114 C 
HETATM   11  C   UNL     1       2.841  29.404  50.743  1.00  0.00     0.037 C 
BRANCH  10  12
HETATM   12  C   UNL     1       3.383  27.513  49.133  1.00  0.00    -0.033 A 
HETATM   13  C   UNL     1       2.249  27.905  48.411  1.00  0.00     0.028 A 
HETATM   14  C   UNL     1       1.823  27.123  47.350  1.00  0.00     0.116 A 
HETATM   15  N   UNL     1       2.446  25.993  46.954  1.00  0.00    -0.273 NA
HETATM   16  C   UNL     1       3.547  25.636  47.647  1.00  0.00     0.116 A 
HETATM   17  C   UNL     1       4.050  26.353  48.723  1.00  0.00     0.028 A 
ENDBRANCH  10  12
ENDBRANCH   7  10
ENDBRANCH   1   6
BRANCH   3  18
HETATM   18  O   UNL     1       8.153  24.522  54.101  1.00  0.00    -0.286 OA
BRANCH  18  19
HETATM   19  C   UNL     1       8.120  23.152  54.198  1.00  0.00     0.100 A 
HETATM   20  C   UNL     1       8.320  22.525  55.431  1.00  0.00     0.068 A 
HETATM   21 CL   UNL     1       8.550  23.432  56.880  1.00  0.00    -0.081 Cl
HETATM   22  C   UNL     1       8.327  21.130  55.506  1.00  0.00     0.026 A 
HETATM   23  C   UNL     1       8.144  20.366  54.350  1.00  0.00     0.002 A 
HETATM   24  C   UNL     1       7.961  20.995  53.117  1.00  0.00     0.003 A 
HETATM   25  C   UNL     1       7.957  22.388  53.039  1.00  0.00     0.039 A 
ENDBRANCH  18  19
ENDBRANCH   3  18
TORSDOF 5
ENDMDL
MODEL 8
REMARK VINA RESULT:      -8.3      5.698      8.812
REMARK  5 active torsions:
REMARK  status: ('A' for Active; 'I' for Inactive)
REMARK    1  A    between atoms: C_2  and  N_3 
REMARK    2  A    between atoms: C_2  and  C_19 
REMARK       I    between atoms: N_3  and  C_4 
REMARK    3  A    between atoms: C_4  and  C_5 
REMARK    4  A    between atoms: C_7  and  O_8 
REMARK    5  A    between atoms: O_8  and  C_9 
ROOT
HETATM    1  C   UNL     1       5.351  26.134  53.688  1.00  0.00     0.146 A 
HETATM    2  O   UNL     1       5.768  25.749  52.440  1.00  0.00    -0.282 OA
HETATM    3  C   UNL     1       5.274  26.639  51.539  1.00  0.00     0.191 A 
HETATM    4  C   UNL     1       4.532  27.602  52.187  1.00  0.00     0.067 A 
HETATM    5  C   UNL     1       4.581  27.279  53.567  1.00  0.00     0.048 A 
ENDROOT
BRANCH   1   6
HETATM    6  C   UNL     1       5.761  25.317  54.819  1.00  0.00     0.276 C 
HETATM    7  N   UNL     1       6.834  24.478  54.573  1.00  0.00    -0.347 N 
HETATM    8  H   UNL     1       7.157  24.366  53.625  1.00  0.00     0.163 HD
HETATM    9  O   UNL     1       5.214  25.352  55.918  1.00  0.00    -0.265 OA
BRANCH   7  10
HETATM   10  C   UNL     1       7.291  23.511  55.556  1.00  0.00     0.114 C 
HETATM   11  C   UNL     1       8.353  24.142  56.459  1.00  0.00     0.037 C 
BRANCH  10  12
HETATM   12  C   UNL     1       7.774  22.258  54.853  1.00  0.00    -0.033 A 
HETATM   13  C   UNL     1       8.236  21.174  55.610  1.00  0.00     0.028 A 
HETATM   14  C   UNL     1       8.660  20.029  54.956  1.00  0.00     0.116 A 
HETATM   15  N   UNL     1       8.648  19.883  53.614  1.00  0.00    -0.273 NA
HETATM   16  C   UNL     1       8.182  20.927  52.898  1.00  0.00     0.116 A 
HETATM   17  C   UNL     1       7.737  22.115  53.461  1.00  0.00     0.028 A 
ENDBRANCH  10  12
ENDBRANCH   7  10
ENDBRANCH   1   6
BRANCH   3  18
HETATM   18  O   UNL     1       5.610  26.369  50.280  1.00  0.00    -0.286 OA
BRANCH  18  19
HETATM   19  C   UNL     1       4.713  26.643  49.277  1.00  0.00     0.100 A 
HETATM   20  C   UNL     1       4.702  27.898  48.661  1.00  0.00     0.068 A 
HETATM   21 CL   UNL     1       5.843  29.121  49.081  1.00  0.00    -0.081 Cl
HETATM   22  C   UNL     1       3.755  28.177  47.672  1.00  0.00     0.026 A 
HETATM   23  C   UNL     1       2.816  27.208  47.310  1.00  0.00     0.002 A 
HETATM   24  C   UNL     1       2.818  25.962  47.938  1.00  0.00     0.003 A 
HETATM   25  C   UNL     1       3.760  25.681  48.928  1.00  0.00     0.039 A 
ENDBRANCH  18  19
ENDBRANCH   3  18
TORSDOF 5
ENDMDL
MODEL 9
REMARK VINA RESULT:      -8.3      3.393      8.886
REMARK  5 active torsions:
REMARK  status: ('A' for Active; 'I' for Inactive)
REMARK    1  A    between atoms: C_2  and  N_3 
REMARK    2  A    between atoms: C_2  and  C_19 
REMARK       I    between atoms: N_3  and  C_4 
REMARK    3  A    between atoms: C_4  and  C_5 
REMARK    4  A    between atoms: C_7  and  O_8 
REMARK    5  A    between atoms: O_8  and  C_9 
ROOT
HETATM    1  C   UNL     1       7.509  27.617  56.002  1.00  0.00     0.146 A 
HETATM    2  O   UNL     1       7.428  28.985  56.017  1.00  0.00    -0.282 OA
HETATM    3  C   UNL     1       7.557  29.400  57.305  1.00  0.00     0.191 A 
HETATM    4  C   UNL     1       7.718  28.312  58.135  1.00  0.00     0.067 A 
HETATM    5  C   UNL     1       7.688  27.166  57.300  1.00  0.00     0.048 A 
ENDROOT
BRANCH   1   6
HETATM    6  C   UNL     1       7.390  26.947  54.717  1.00  0.00     0.276 C 
HETATM    7  N   UNL     1       6.875  25.663  54.774  1.00  0.00    -0.347 N 
HETATM    8  H   UNL     1       6.764  25.224  55.674  1.00  0.00     0.163 HD
HETATM    9  O   UNL     1       7.714  27.460  53.649  1.00  0.00    -0.265 OA
BRANCH   7  10
HETATM   10  C   UNL     1       6.803  24.814  53.598  1.00  0.00     0.114 C 
HETATM   11  C   UNL     1       5.387  24.837  53.019  1.00  0.00     0.037 C 
BRANCH  10  12
HETATM   12  C   UNL     1       7.283  23.418  53.947  1.00  0.00    -0.033 A 
HETATM   13  C   UNL     1       7.721  22.563  52.928  1.00  0.00     0.028 A 
HETATM   14  C   UNL     1       8.171  21.296  53.262  1.00  0.00     0.116 A 
HETATM   15  N   UNL     1       8.224  20.827  54.527  1.00  0.00    -0.273 NA
HETATM   16  C   UNL     1       7.816  21.668  55.499  1.00  0.00     0.116 A 
HETATM   17  C   UNL     1       7.349  22.953  55.265  1.00  0.00     0.028 A 
ENDBRANCH  10  12
ENDBRANCH   7  10
ENDBRANCH   1   6
BRANCH   3  18
HETATM   18  O   UNL     1       7.491  30.721  57.452  1.00  0.00    -0.286 OA
BRANCH  18  19
HETATM   19  C   UNL     1       7.895  31.281  58.639  1.00  0.00     0.100 A 
HETATM   20  C   UNL     1       9.255  31.438  58.920  1.00  0.00     0.068 A 
HETATM   21 CL   UNL     1      10.471  31.002  57.777  1.00  0.00    -0.081 Cl
HETATM   22  C   UNL     1       9.652  31.970  60.150  1.00  0.00     0.026 A 
HETATM   23  C   UNL     1       8.692  32.332  61.097  1.00  0.00     0.002 A 
HETATM   24  C   UNL     1       7.335  32.158  60.822  1.00  0.00     0.003 A 
HETATM   25  C   UNL     1       6.936  31.625  59.595  1.00  0.00     0.039 A 
ENDBRANCH  18  19
ENDBRANCH   3  18
TORSDOF 5
ENDMDL
MODEL 10
REMARK VINA RESULT:      -8.1      3.630      8.575
REMARK  5 active torsions:
REMARK  status: ('A' for Active; 'I' for Inactive)
REMARK    1  A    between atoms: C_2  and  N_3 
REMARK    2  A    between atoms: C_2  and  C_19 
REMARK       I    between atoms: N_3  and  C_4 
REMARK    3  A    between atoms: C_4  and  C_5 
REMARK    4  A    between atoms: C_7  and  O_8 
REMARK    5  A    between atoms: O_8  and  C_9 
ROOT
HETATM    1  C   UNL     1       9.099  29.105  57.474  1.00  0.00     0.146 A 
HETATM    2  O   UNL     1       8.589  30.175  58.163  1.00  0.00    -0.282 OA
HETATM    3  C   UNL     1       9.548  31.137  58.213  1.00  0.00     0.191 A 
HETATM    4  C   UNL     1      10.684  30.703  57.567  1.00  0.00     0.067 A 
HETATM    5  C   UNL     1      10.397  29.399  57.090  1.00  0.00     0.048 A 
ENDROOT
BRANCH   1   6
HETATM    6  C   UNL     1       8.242  27.944  57.299  1.00  0.00     0.276 C 
HETATM    7  N   UNL     1       7.880  27.678  55.989  1.00  0.00    -0.347 N 
HETATM    8  H   UNL     1       8.090  28.361  55.279  1.00  0.00     0.163 HD
HETATM    9  O   UNL     1       7.855  27.236  58.226  1.00  0.00    -0.265 OA
BRANCH   7  10
HETATM   10  C   UNL     1       6.933  26.629  55.654  1.00  0.00     0.114 C 
HETATM   11  C   UNL     1       7.651  25.481  54.942  1.00  0.00     0.037 C 
BRANCH  10  12
HETATM   12  C   UNL     1       5.792  27.213  54.843  1.00  0.00    -0.033 A 
HETATM   13  C   UNL     1       5.383  26.574  53.666  1.00  0.00     0.028 A 
HETATM   14  C   UNL     1       4.329  27.109  52.942  1.00  0.00     0.116 A 
HETATM   15  N   UNL     1       3.654  28.219  53.309  1.00  0.00    -0.273 NA
HETATM   16  C   UNL     1       4.047  28.813  54.455  1.00  0.00     0.116 A 
HETATM   17  C   UNL     1       5.090  28.354  55.246  1.00  0.00     0.028 A 
ENDBRANCH  10  12
ENDBRANCH   7  10
ENDBRANCH   1   6
BRANCH   3  18
HETATM   18  O   UNL     1       9.171  32.234  58.865  1.00  0.00    -0.286 OA
BRANCH  18  19
HETATM   19  C   UNL     1       8.614  32.110  60.115  1.00  0.00     0.100 A 
HETATM   20  C   UNL     1       7.237  32.263  60.293  1.00  0.00     0.068 A 
HETATM   21 CL   UNL     1       6.179  32.547  58.961  1.00  0.00    -0.081 Cl
HETATM   22  C   UNL     1       6.689  32.176  61.576  1.00  0.00     0.026 A 
HETATM   23  C   UNL     1       7.519  31.948  62.676  1.00  0.00     0.002 A 
HETATM   24  C   UNL     1       8.897  31.812  62.498  1.00  0.00     0.003 A 
HETATM   25  C   UNL     1       9.447  31.901  61.218  1.00  0.00     0.039 A 
ENDBRANCH  18  19
ENDBRANCH   3  18
TORSDOF 5
ENDMDL
