MODEL 1
REMARK VINA RESULT:      -9.1      0.000      0.000
REMARK  7 active torsions:
REMARK  status: ('A' for Active; 'I' for Inactive)
REMARK    1  A    between atoms: O_2  and  C_3 
REMARK    2  A    between atoms: C_3  and  C_5 
REMARK    3  A    between atoms: C_9  and  N_10 
REMARK       I    between atoms: N_10  and  C_13 
REMARK    4  A    between atoms: C_13  and  C_15 
REMARK    5  A    between atoms: C_15  and  C_16 
REMARK    6  A    between atoms: C_16  and  N_17 
REMARK    7  A    between atoms: N_23  and  C_26 
ROOT
HETATM    1  C   UNL     1       7.741  22.677  53.911  1.00  0.00     0.142 A 
HETATM    2  N   UNL     1       7.577  22.173  52.663  1.00  0.00    -0.224 NA
HETATM    3  C   UNL     1       7.907  20.877  52.449  1.00  0.00     0.237 A 
HETATM    4  N   UNL     1       8.426  20.001  53.322  1.00  0.00    -0.223 NA
HETATM    5  C   UNL     1       8.570  20.536  54.540  1.00  0.00     0.144 A 
HETATM    6  N   UNL     1       9.053  19.876  55.640  1.00  0.00    -0.348 N 
HETATM    7  H   UNL     1       9.355  18.910  55.635  1.00  0.00     0.167 HD
HETATM    8  C   UNL     1       9.035  20.719  56.728  1.00  0.00     0.113 A 
HETATM    9  C   UNL     1       8.525  21.930  56.306  1.00  0.00     0.077 A 
HETATM   10  C   UNL     1       8.298  23.091  57.108  1.00  0.00     0.102 C 
HETATM   11  N   UNL     1       8.086  24.108  57.628  1.00  0.00    -0.191 NA
HETATM   12  C   UNL     1       8.253  21.830  54.912  1.00  0.00     0.078 A 
ENDROOT
BRANCH   1  13
HETATM   13  N   UNL     1       7.374  24.005  54.177  1.00  0.00    -0.365 N 
HETATM   14  C   UNL     1       8.187  24.978  53.461  1.00  0.00     0.126 C 
HETATM   15  C   UNL     1       7.458  25.468  52.221  1.00  0.00     0.041 C 
HETATM   16  C   UNL     1       6.023  25.937  52.523  1.00  0.00     0.076 C 
HETATM   17  C   UNL     1       5.224  24.847  53.267  1.00  0.00     0.041 C 
HETATM   18  C   UNL     1       5.957  24.183  54.432  1.00  0.00     0.126 C 
BRANCH  16  19
HETATM   19  C   UNL     1       6.103  27.243  53.366  1.00  0.00     0.330 C 
HETATM   20  N   UNL     1       5.286  27.525  54.510  1.00  0.00     0.018 N 
HETATM   21  H   UNL     1       5.351  26.744  55.175  1.00  0.00     0.294 HD
HETATM   22  H   UNL     1       4.302  27.503  54.231  1.00  0.00     0.294 HD
HETATM   23  O   UNL     1       6.923  28.111  53.110  1.00  0.00    -0.264 OA
BRANCH  20  24
HETATM   24  C   UNL     1       5.508  28.763  55.248  1.00  0.00     0.142 A 
HETATM   25  C   UNL     1       4.724  29.883  54.964  1.00  0.00     0.037 A 
HETATM   26  C   UNL     1       4.894  31.048  55.713  1.00  0.00     0.003 A 
HETATM   27  C   UNL     1       5.838  31.091  56.742  1.00  0.00     0.018 A 
HETATM   28  C   UNL     1       6.620  29.964  57.027  1.00  0.00     0.041 A 
HETATM   29  C   UNL     1       6.451  28.792  56.273  1.00  0.00     0.055 A 
BRANCH  28  30
HETATM   30  C   UNL     1       7.638  29.949  58.109  1.00  0.00     0.293 C 
HETATM   31  O   UNL     1       8.092  28.905  58.548  1.00  0.00    -0.259 OA
BRANCH  30  32
HETATM   32  O   UNL     1       7.932  31.203  58.514  1.00  0.00    -0.323 OA
HETATM   33  C   UNL     1       9.304  31.400  58.865  1.00  0.00     0.213 C 
ENDBRANCH  30  32
ENDBRANCH  28  30
ENDBRANCH  20  24
ENDBRANCH  16  19
BRANCH  16  34
HETATM   34  C   UNL     1       5.293  26.350  51.189  1.00  0.00     0.253 C 
BRANCH  34  35
HETATM   35  N   UNL     1       5.156  27.841  50.877  1.00  0.00    -0.078 N 
HETATM   36  H   UNL     1       5.752  28.390  51.513  1.00  0.00     0.279 HD
HETATM   37  C   UNL     1       5.503  28.282  49.475  1.00  0.00     0.269 C 
HETATM   38  C   UNL     1       3.746  28.320  51.214  1.00  0.00     0.269 C 
ENDBRANCH  34  35
ENDBRANCH  16  34
ENDBRANCH   1  13
TORSDOF 7
ENDMDL
MODEL 2
REMARK VINA RESULT:      -8.9      2.758      5.099
REMARK  7 active torsions:
REMARK  status: ('A' for Active; 'I' for Inactive)
REMARK    1  A    between atoms: O_2  and  C_3 
REMARK    2  A    between atoms: C_3  and  C_5 
REMARK    3  A    between atoms: C_9  and  N_10 
REMARK       I    between atoms: N_10  and  C_13 
REMARK    4  A    between atoms: C_13  and  C_15 
REMARK    5  A    between atoms: C_15  and  C_16 
REMARK    6  A    between atoms: C_16  and  N_17 
REMARK    7  A    between atoms: N_23  and  C_26 
ROOT
HETATM    1  C   UNL     1       6.899  25.802  54.997  1.00  0.00     0.142 A 
HETATM    2  N   UNL     1       6.109  26.201  53.971  1.00  0.00    -0.224 NA
HETATM    3  C   UNL     1       5.843  25.310  52.986  1.00  0.00     0.237 A 
HETATM    4  N   UNL     1       6.297  24.055  52.861  1.00  0.00    -0.223 NA
HETATM    5  C   UNL     1       7.071  23.699  53.893  1.00  0.00     0.144 A 
HETATM    6  N   UNL     1       7.658  22.471  54.053  1.00  0.00    -0.348 N 
HETATM    7  H   UNL     1       7.565  21.708  53.395  1.00  0.00     0.167 HD
HETATM    8  C   UNL     1       8.356  22.445  55.240  1.00  0.00     0.113 A 
HETATM    9  C   UNL     1       8.199  23.678  55.840  1.00  0.00     0.077 A 
HETATM   10  C   UNL     1       8.725  24.090  57.104  1.00  0.00     0.102 C 
HETATM   11  N   UNL     1       9.107  24.565  58.093  1.00  0.00    -0.191 NA
HETATM   12  C   UNL     1       7.407  24.489  54.979  1.00  0.00     0.078 A 
ENDROOT
BRANCH   1  13
HETATM   13  N   UNL     1       7.166  26.686  56.053  1.00  0.00    -0.365 N 
HETATM   14  C   UNL     1       7.974  27.829  55.653  1.00  0.00     0.126 C 
HETATM   15  C   UNL     1       7.093  29.044  55.414  1.00  0.00     0.041 C 
HETATM   16  C   UNL     1       6.135  29.322  56.587  1.00  0.00     0.076 C 
HETATM   17  C   UNL     1       5.306  28.070  56.939  1.00  0.00     0.041 C 
HETATM   18  C   UNL     1       6.100  26.768  57.034  1.00  0.00     0.126 C 
BRANCH  16  19
HETATM   19  C   UNL     1       6.979  29.792  57.807  1.00  0.00     0.330 C 
HETATM   20  N   UNL     1       7.125  31.158  58.219  1.00  0.00     0.018 N 
HETATM   21  H   UNL     1       6.195  31.582  58.327  1.00  0.00     0.294 HD
HETATM   22  H   UNL     1       7.530  31.697  57.450  1.00  0.00     0.294 HD
HETATM   23  O   UNL     1       7.552  28.989  58.527  1.00  0.00    -0.264 OA
BRANCH  20  24
HETATM   24  C   UNL     1       7.896  31.455  59.421  1.00  0.00     0.142 A 
HETATM   25  C   UNL     1       9.283  31.587  59.333  1.00  0.00     0.037 A 
HETATM   26  C   UNL     1      10.013  31.932  60.470  1.00  0.00     0.003 A 
HETATM   27  C   UNL     1       9.360  32.149  61.686  1.00  0.00     0.018 A 
HETATM   28  C   UNL     1       7.969  32.020  61.770  1.00  0.00     0.041 A 
HETATM   29  C   UNL     1       7.232  31.671  60.626  1.00  0.00     0.055 A 
BRANCH  28  30
HETATM   30  C   UNL     1       7.218  32.238  63.034  1.00  0.00     0.293 C 
HETATM   31  O   UNL     1       6.044  31.927  63.145  1.00  0.00    -0.259 OA
BRANCH  30  32
HETATM   32  O   UNL     1       7.999  32.829  63.963  1.00  0.00    -0.323 OA
HETATM   33  C   UNL     1       7.279  33.588  64.939  1.00  0.00     0.213 C 
ENDBRANCH  30  32
ENDBRANCH  28  30
ENDBRANCH  20  24
ENDBRANCH  16  19
BRANCH  16  34
HETATM   34  C   UNL     1       5.191  30.537  56.244  1.00  0.00     0.253 C 
BRANCH  34  35
HETATM   35  N   UNL     1       3.754  30.500  56.768  1.00  0.00    -0.078 N 
HETATM   36  H   UNL     1       3.401  29.533  56.759  1.00  0.00     0.279 HD
HETATM   37  C   UNL     1       3.521  31.030  58.162  1.00  0.00     0.269 C 
HETATM   38  C   UNL     1       2.824  31.225  55.798  1.00  0.00     0.269 C 
ENDBRANCH  34  35
ENDBRANCH  16  34
ENDBRANCH   1  13
TORSDOF 7
ENDMDL
MODEL 3
REMARK VINA RESULT:      -8.6      1.336      1.787
REMARK  7 active torsions:
REMARK  status: ('A' for Active; 'I' for Inactive)
REMARK    1  A    between atoms: O_2  and  C_3 
REMARK    2  A    between atoms: C_3  and  C_5 
REMARK    3  A    between atoms: C_9  and  N_10 
REMARK       I    between atoms: N_10  and  C_13 
REMARK    4  A    between atoms: C_13  and  C_15 
REMARK    5  A    between atoms: C_15  and  C_16 
REMARK    6  A    between atoms: C_16  and  N_17 
REMARK    7  A    between atoms: N_23  and  C_26 
ROOT
HETATM    1  C   UNL     1       7.334  23.539  54.062  1.00  0.00     0.142 A 
HETATM    2  N   UNL     1       7.388  22.815  52.917  1.00  0.00    -0.224 NA
HETATM    3  C   UNL     1       7.886  21.556  52.982  1.00  0.00     0.237 A 
HETATM    4  N   UNL     1       8.383  20.916  54.050  1.00  0.00    -0.223 NA
HETATM    5  C   UNL     1       8.310  21.664  55.157  1.00  0.00     0.144 A 
HETATM    6  N   UNL     1       8.719  21.269  56.404  1.00  0.00    -0.348 N 
HETATM    7  H   UNL     1       9.125  20.365  56.609  1.00  0.00     0.167 HD
HETATM    8  C   UNL     1       8.468  22.274  57.311  1.00  0.00     0.113 A 
HETATM    9  C   UNL     1       7.885  23.318  56.622  1.00  0.00     0.077 A 
HETATM   10  C   UNL     1       7.429  24.558  57.169  1.00  0.00     0.102 C 
HETATM   11  N   UNL     1       7.041  25.611  57.469  1.00  0.00    -0.191 NA
HETATM   12  C   UNL     1       7.806  22.949  55.250  1.00  0.00     0.078 A 
ENDROOT
BRANCH   1  13
HETATM   13  N   UNL     1       6.791  24.833  54.040  1.00  0.00    -0.365 N 
HETATM   14  C   UNL     1       7.602  25.782  53.290  1.00  0.00     0.126 C 
HETATM   15  C   UNL     1       7.037  25.974  51.892  1.00  0.00     0.041 C 
HETATM   16  C   UNL     1       5.531  26.292  51.900  1.00  0.00     0.076 C 
HETATM   17  C   UNL     1       4.741  25.235  52.700  1.00  0.00     0.041 C 
HETATM   18  C   UNL     1       5.341  24.861  54.054  1.00  0.00     0.126 C 
BRANCH  16  19
HETATM   19  C   UNL     1       5.334  27.712  52.508  1.00  0.00     0.330 C 
HETATM   20  N   UNL     1       4.286  28.070  53.418  1.00  0.00     0.018 N 
HETATM   21  H   UNL     1       4.281  27.412  54.208  1.00  0.00     0.294 HD
HETATM   22  H   UNL     1       3.382  27.894  52.973  1.00  0.00     0.294 HD
HETATM   23  O   UNL     1       6.114  28.619  52.261  1.00  0.00    -0.264 OA
BRANCH  20  24
HETATM   24  C   UNL     1       4.254  29.423  53.962  1.00  0.00     0.142 A 
HETATM   25  C   UNL     1       3.515  30.410  53.308  1.00  0.00     0.037 A 
HETATM   26  C   UNL     1       3.434  31.688  53.861  1.00  0.00     0.003 A 
HETATM   27  C   UNL     1       4.084  31.976  55.064  1.00  0.00     0.018 A 
HETATM   28  C   UNL     1       4.822  30.982  55.720  1.00  0.00     0.041 A 
HETATM   29  C   UNL     1       4.905  29.696  55.163  1.00  0.00     0.055 A 
BRANCH  28  30
HETATM   30  C   UNL     1       5.534  31.227  57.001  1.00  0.00     0.293 C 
HETATM   31  O   UNL     1       5.751  32.357  57.409  1.00  0.00    -0.259 OA
BRANCH  30  32
HETATM   32  O   UNL     1       5.900  30.064  57.580  1.00  0.00    -0.323 OA
HETATM   33  C   UNL     1       7.238  30.057  58.087  1.00  0.00     0.213 C 
ENDBRANCH  30  32
ENDBRANCH  28  30
ENDBRANCH  20  24
ENDBRANCH  16  19
BRANCH  16  34
HETATM   34  C   UNL     1       4.987  26.395  50.425  1.00  0.00     0.253 C 
BRANCH  34  35
HETATM   35  N   UNL     1       4.662  27.785  49.874  1.00  0.00    -0.078 N 
HETATM   36  H   UNL     1       4.652  28.473  50.640  1.00  0.00     0.279 HD
HETATM   37  C   UNL     1       5.588  28.335  48.816  1.00  0.00     0.269 C 
HETATM   38  C   UNL     1       3.229  27.819  49.348  1.00  0.00     0.269 C 
ENDBRANCH  34  35
ENDBRANCH  16  34
ENDBRANCH   1  13
TORSDOF 7
ENDMDL
MODEL 4
REMARK VINA RESULT:      -8.2      2.111      3.406
REMARK  7 active torsions:
REMARK  status: ('A' for Active; 'I' for Inactive)
REMARK    1  A    between atoms: O_2  and  C_3 
REMARK    2  A    between atoms: C_3  and  C_5 
REMARK    3  A    between atoms: C_9  and  N_10 
REMARK       I    between atoms: N_10  and  C_13 
REMARK    4  A    between atoms: C_13  and  C_15 
REMARK    5  A    between atoms: C_15  and  C_16 
REMARK    6  A    between atoms: C_16  and  N_17 
REMARK    7  A    between atoms: N_23  and  C_26 
ROOT
HETATM    1  C   UNL     1       7.207  25.287  54.462  1.00  0.00     0.142 A 
HETATM    2  N   UNL     1       6.651  25.381  53.229  1.00  0.00    -0.224 NA
HETATM    3  C   UNL     1       6.878  24.377  52.348  1.00  0.00     0.237 A 
HETATM    4  N   UNL     1       7.630  23.280  52.518  1.00  0.00    -0.223 NA
HETATM    5  C   UNL     1       8.159  23.225  53.746  1.00  0.00     0.144 A 
HETATM    6  N   UNL     1       8.953  22.212  54.218  1.00  0.00    -0.348 N 
HETATM    7  H   UNL     1       9.223  21.402  53.675  1.00  0.00     0.167 HD
HETATM    8  C   UNL     1       9.291  22.465  55.529  1.00  0.00     0.113 A 
HETATM    9  C   UNL     1       8.693  23.655  55.890  1.00  0.00     0.077 A 
HETATM   10  C   UNL     1       8.748  24.289  57.170  1.00  0.00     0.102 C 
HETATM   11  N   UNL     1       8.726  24.924  58.142  1.00  0.00    -0.191 NA
HETATM   12  C   UNL     1       7.995  24.157  54.755  1.00  0.00     0.078 A 
ENDROOT
BRANCH   1  13
HETATM   13  N   UNL     1       6.964  26.290  55.412  1.00  0.00    -0.365 N 
HETATM   14  C   UNL     1       7.492  27.589  55.021  1.00  0.00     0.126 C 
HETATM   15  C   UNL     1       6.389  28.457  54.439  1.00  0.00     0.041 C 
HETATM   16  C   UNL     1       5.146  28.522  55.346  1.00  0.00     0.076 C 
HETATM   17  C   UNL     1       4.639  27.109  55.702  1.00  0.00     0.041 C 
HETATM   18  C   UNL     1       5.720  26.121  56.138  1.00  0.00     0.126 C 
BRANCH  16  19
HETATM   19  C   UNL     1       5.518  29.321  56.629  1.00  0.00     0.330 C 
HETATM   20  N   UNL     1       6.137  30.614  56.634  1.00  0.00     0.018 N 
HETATM   21  H   UNL     1       5.594  31.254  56.040  1.00  0.00     0.294 HD
HETATM   22  H   UNL     1       7.032  30.557  56.143  1.00  0.00     0.294 HD
HETATM   23  O   UNL     1       5.256  28.887  57.741  1.00  0.00    -0.264 OA
BRANCH  20  24
HETATM   24  C   UNL     1       6.374  31.279  57.909  1.00  0.00     0.142 A 
HETATM   25  C   UNL     1       5.349  32.020  58.500  1.00  0.00     0.037 A 
HETATM   26  C   UNL     1       5.557  32.605  59.749  1.00  0.00     0.003 A 
HETATM   27  C   UNL     1       6.781  32.447  60.405  1.00  0.00     0.018 A 
HETATM   28  C   UNL     1       7.806  31.700  59.811  1.00  0.00     0.041 A 
HETATM   29  C   UNL     1       7.598  31.112  58.553  1.00  0.00     0.055 A 
BRANCH  28  30
HETATM   30  C   UNL     1       9.127  31.496  60.460  1.00  0.00     0.293 C 
HETATM   31  O   UNL     1      10.018  32.325  60.375  1.00  0.00    -0.259 OA
BRANCH  30  32
HETATM   32  O   UNL     1       9.177  30.303  61.089  1.00  0.00    -0.323 OA
HETATM   33  C   UNL     1       8.798  30.350  62.468  1.00  0.00     0.213 C 
ENDBRANCH  30  32
ENDBRANCH  28  30
ENDBRANCH  20  24
ENDBRANCH  16  19
BRANCH  16  34
HETATM   34  C   UNL     1       4.008  29.363  54.651  1.00  0.00     0.253 C 
BRANCH  34  35
HETATM   35  N   UNL     1       4.140  29.653  53.155  1.00  0.00    -0.078 N 
HETATM   36  H   UNL     1       5.127  29.585  52.870  1.00  0.00     0.279 HD
HETATM   37  C   UNL     1       3.359  28.767  52.215  1.00  0.00     0.269 C 
HETATM   38  C   UNL     1       3.789  31.112  52.870  1.00  0.00     0.269 C 
ENDBRANCH  34  35
ENDBRANCH  16  34
ENDBRANCH   1  13
TORSDOF 7
ENDMDL
MODEL 5
REMARK VINA RESULT:      -8.1      3.128      7.890
REMARK  7 active torsions:
REMARK  status: ('A' for Active; 'I' for Inactive)
REMARK    1  A    between atoms: O_2  and  C_3 
REMARK    2  A    between atoms: C_3  and  C_5 
REMARK    3  A    between atoms: C_9  and  N_10 
REMARK       I    between atoms: N_10  and  C_13 
REMARK    4  A    between atoms: C_13  and  C_15 
REMARK    5  A    between atoms: C_15  and  C_16 
REMARK    6  A    between atoms: C_16  and  N_17 
REMARK    7  A    between atoms: N_23  and  C_26 
ROOT
HETATM    1  C   UNL     1       6.050  30.233  57.728  1.00  0.00     0.142 A 
HETATM    2  N   UNL     1       4.815  30.773  57.868  1.00  0.00    -0.224 NA
HETATM    3  C   UNL     1       4.679  31.858  58.668  1.00  0.00     0.237 A 
HETATM    4  N   UNL     1       5.623  32.473  59.395  1.00  0.00    -0.223 NA
HETATM    5  C   UNL     1       6.826  31.911  59.228  1.00  0.00     0.144 A 
HETATM    6  N   UNL     1       7.985  32.337  59.824  1.00  0.00    -0.348 N 
HETATM    7  H   UNL     1       8.041  33.123  60.459  1.00  0.00     0.167 HD
HETATM    8  C   UNL     1       9.034  31.550  59.404  1.00  0.00     0.113 A 
HETATM    9  C   UNL     1       8.526  30.616  58.523  1.00  0.00     0.077 A 
HETATM   10  C   UNL     1       9.262  29.614  57.818  1.00  0.00     0.102 C 
HETATM   11  N   UNL     1       9.723  28.743  57.204  1.00  0.00    -0.191 NA
HETATM   12  C   UNL     1       7.121  30.822  58.427  1.00  0.00     0.078 A 
ENDROOT
BRANCH   1  13
HETATM   13  N   UNL     1       6.235  29.132  56.879  1.00  0.00    -0.365 N 
HETATM   14  C   UNL     1       5.222  28.100  57.049  1.00  0.00     0.126 C 
HETATM   15  C   UNL     1       4.156  28.220  55.973  1.00  0.00     0.041 C 
HETATM   16  C   UNL     1       4.752  28.297  54.555  1.00  0.00     0.076 C 
HETATM   17  C   UNL     1       5.803  29.422  54.452  1.00  0.00     0.041 C 
HETATM   18  C   UNL     1       6.816  29.472  55.594  1.00  0.00     0.126 C 
BRANCH  16  19
HETATM   19  C   UNL     1       5.379  26.915  54.212  1.00  0.00     0.330 C 
HETATM   20  N   UNL     1       6.773  26.602  54.323  1.00  0.00     0.018 N 
HETATM   21  H   UNL     1       7.103  26.846  55.266  1.00  0.00     0.294 HD
HETATM   22  H   UNL     1       7.307  27.240  53.727  1.00  0.00     0.294 HD
HETATM   23  O   UNL     1       4.683  25.977  53.853  1.00  0.00    -0.264 OA
BRANCH  20  24
HETATM   24  C   UNL     1       7.220  25.246  54.029  1.00  0.00     0.142 A 
HETATM   25  C   UNL     1       7.559  24.902  52.719  1.00  0.00     0.037 A 
HETATM   26  C   UNL     1       8.045  23.623  52.448  1.00  0.00     0.003 A 
HETATM   27  C   UNL     1       8.195  22.695  53.482  1.00  0.00     0.018 A 
HETATM   28  C   UNL     1       7.857  23.043  54.795  1.00  0.00     0.041 A 
HETATM   29  C   UNL     1       7.367  24.330  55.069  1.00  0.00     0.055 A 
BRANCH  28  30
HETATM   30  C   UNL     1       7.996  22.101  55.935  1.00  0.00     0.293 C 
HETATM   31  O   UNL     1       8.392  22.469  57.028  1.00  0.00    -0.259 OA
BRANCH  30  32
HETATM   32  O   UNL     1       7.658  20.846  55.568  1.00  0.00    -0.323 OA
HETATM   33  C   UNL     1       8.756  19.930  55.530  1.00  0.00     0.213 C 
ENDBRANCH  30  32
ENDBRANCH  28  30
ENDBRANCH  20  24
ENDBRANCH  16  19
BRANCH  16  34
HETATM   34  C   UNL     1       3.606  28.507  53.493  1.00  0.00     0.253 C 
BRANCH  34  35
HETATM   35  N   UNL     1       3.971  29.173  52.165  1.00  0.00    -0.078 N 
HETATM   36  H   UNL     1       4.880  29.650  52.249  1.00  0.00     0.279 HD
HETATM   37  C   UNL     1       4.065  28.278  50.953  1.00  0.00     0.269 C 
HETATM   38  C   UNL     1       3.000  30.314  51.867  1.00  0.00     0.269 C 
ENDBRANCH  34  35
ENDBRANCH  16  34
ENDBRANCH   1  13
TORSDOF 7
ENDMDL
MODEL 6
REMARK VINA RESULT:      -8.0      2.681      3.913
REMARK  7 active torsions:
REMARK  status: ('A' for Active; 'I' for Inactive)
REMARK    1  A    between atoms: O_2  and  C_3 
REMARK    2  A    between atoms: C_3  and  C_5 
REMARK    3  A    between atoms: C_9  and  N_10 
REMARK       I    between atoms: N_10  and  C_13 
REMARK    4  A    between atoms: C_13  and  C_15 
REMARK    5  A    between atoms: C_15  and  C_16 
REMARK    6  A    between atoms: C_16  and  N_17 
REMARK    7  A    between atoms: N_23  and  C_26 
ROOT
HETATM    1  C   UNL     1       7.248  23.598  53.967  1.00  0.00     0.142 A 
HETATM    2  N   UNL     1       7.381  22.824  52.862  1.00  0.00    -0.224 NA
HETATM    3  C   UNL     1       7.967  21.610  53.000  1.00  0.00     0.237 A 
HETATM    4  N   UNL     1       8.484  21.061  54.109  1.00  0.00    -0.223 NA
HETATM    5  C   UNL     1       8.331  21.855  55.175  1.00  0.00     0.144 A 
HETATM    6  N   UNL     1       8.737  21.552  56.449  1.00  0.00    -0.348 N 
HETATM    7  H   UNL     1       9.203  20.692  56.707  1.00  0.00     0.167 HD
HETATM    8  C   UNL     1       8.393  22.580  57.299  1.00  0.00     0.113 A 
HETATM    9  C   UNL     1       7.752  23.543  56.546  1.00  0.00     0.077 A 
HETATM   10  C   UNL     1       7.195  24.771  57.020  1.00  0.00     0.102 C 
HETATM   11  N   UNL     1       6.724  25.807  57.258  1.00  0.00    -0.191 NA
HETATM   12  C   UNL     1       7.732  23.103  55.193  1.00  0.00     0.078 A 
ENDROOT
BRANCH   1  13
HETATM   13  N   UNL     1       6.614  24.845  53.869  1.00  0.00    -0.365 N 
HETATM   14  C   UNL     1       7.394  25.828  53.130  1.00  0.00     0.126 C 
HETATM   15  C   UNL     1       6.897  25.933  51.698  1.00  0.00     0.041 C 
HETATM   16  C   UNL     1       5.373  26.136  51.613  1.00  0.00     0.076 C 
HETATM   17  C   UNL     1       4.619  25.049  52.406  1.00  0.00     0.041 C 
HETATM   18  C   UNL     1       5.167  24.765  53.804  1.00  0.00     0.126 C 
BRANCH  16  19
HETATM   19  C   UNL     1       5.038  27.555  52.157  1.00  0.00     0.330 C 
HETATM   20  N   UNL     1       3.824  27.903  52.835  1.00  0.00     0.018 N 
HETATM   21  H   UNL     1       3.670  27.249  53.613  1.00  0.00     0.294 HD
HETATM   22  H   UNL     1       3.031  27.711  52.219  1.00  0.00     0.294 HD
HETATM   23  O   UNL     1       5.840  28.473  52.065  1.00  0.00    -0.264 OA
BRANCH  20  24
HETATM   24  C   UNL     1       3.665  29.258  53.350  1.00  0.00     0.142 A 
HETATM   25  C   UNL     1       3.983  29.529  54.682  1.00  0.00     0.037 A 
HETATM   26  C   UNL     1       3.890  30.837  55.158  1.00  0.00     0.003 A 
HETATM   27  C   UNL     1       3.484  31.868  54.306  1.00  0.00     0.018 A 
HETATM   28  C   UNL     1       3.169  31.593  52.969  1.00  0.00     0.041 A 
HETATM   29  C   UNL     1       3.262  30.276  52.490  1.00  0.00     0.055 A 
BRANCH  28  30
HETATM   30  C   UNL     1       2.733  32.646  52.016  1.00  0.00     0.293 C 
HETATM   31  O   UNL     1       3.341  33.697  51.899  1.00  0.00    -0.259 OA
BRANCH  30  32
HETATM   32  O   UNL     1       1.608  32.275  51.367  1.00  0.00    -0.323 OA
HETATM   33  C   UNL     1       0.477  33.110  51.631  1.00  0.00     0.213 C 
ENDBRANCH  30  32
ENDBRANCH  28  30
ENDBRANCH  20  24
ENDBRANCH  16  19
BRANCH  16  34
HETATM   34  C   UNL     1       4.908  26.150  50.107  1.00  0.00     0.253 C 
BRANCH  34  35
HETATM   35  N   UNL     1       4.452  27.482  49.508  1.00  0.00    -0.078 N 
HETATM   36  H   UNL     1       4.252  28.156  50.262  1.00  0.00     0.279 HD
HETATM   37  C   UNL     1       5.405  28.169  48.560  1.00  0.00     0.269 C 
HETATM   38  C   UNL     1       3.100  27.312  48.819  1.00  0.00     0.269 C 
ENDBRANCH  34  35
ENDBRANCH  16  34
ENDBRANCH   1  13
TORSDOF 7
ENDMDL
MODEL 7
REMARK VINA RESULT:      -7.8      4.418      7.908
REMARK  7 active torsions:
REMARK  status: ('A' for Active; 'I' for Inactive)
REMARK    1  A    between atoms: O_2  and  C_3 
REMARK    2  A    between atoms: C_3  and  C_5 
REMARK    3  A    between atoms: C_9  and  N_10 
REMARK       I    between atoms: N_10  and  C_13 
REMARK    4  A    between atoms: C_13  and  C_15 
REMARK    5  A    between atoms: C_15  and  C_16 
REMARK    6  A    between atoms: C_16  and  N_17 
REMARK    7  A    between atoms: N_23  and  C_26 
ROOT
HETATM    1  C   UNL     1       4.994  29.072  55.694  1.00  0.00     0.142 A 
HETATM    2  N   UNL     1       3.989  29.549  54.919  1.00  0.00    -0.224 NA
HETATM    3  C   UNL     1       3.667  28.861  53.797  1.00  0.00     0.237 A 
HETATM    4  N   UNL     1       4.245  27.754  53.310  1.00  0.00    -0.223 NA
HETATM    5  C   UNL     1       5.229  27.315  54.104  1.00  0.00     0.144 A 
HETATM    6  N   UNL     1       5.985  26.195  53.878  1.00  0.00    -0.348 N 
HETATM    7  H   UNL     1       5.874  25.587  53.076  1.00  0.00     0.167 HD
HETATM    8  C   UNL     1       6.880  26.027  54.910  1.00  0.00     0.113 A 
HETATM    9  C   UNL     1       6.679  27.058  55.805  1.00  0.00     0.077 A 
HETATM   10  C   UNL     1       7.366  27.266  57.041  1.00  0.00     0.102 C 
HETATM   11  N   UNL     1       7.855  27.572  58.050  1.00  0.00    -0.191 NA
HETATM   12  C   UNL     1       5.651  27.895  55.287  1.00  0.00     0.078 A 
ENDROOT
BRANCH   1  13
HETATM   13  N   UNL     1       5.331  29.738  56.882  1.00  0.00    -0.365 N 
HETATM   14  C   UNL     1       6.160  30.915  56.663  1.00  0.00     0.126 C 
HETATM   15  C   UNL     1       5.311  32.175  56.691  1.00  0.00     0.041 C 
HETATM   16  C   UNL     1       4.410  32.254  57.937  1.00  0.00     0.076 C 
HETATM   17  C   UNL     1       3.554  30.980  58.089  1.00  0.00     0.041 C 
HETATM   18  C   UNL     1       4.308  29.664  57.907  1.00  0.00     0.126 C 
BRANCH  16  19
HETATM   19  C   UNL     1       5.316  32.469  59.184  1.00  0.00     0.330 C 
HETATM   20  N   UNL     1       5.210  31.727  60.406  1.00  0.00     0.018 N 
HETATM   21  H   UNL     1       5.236  30.721  60.197  1.00  0.00     0.294 HD
HETATM   22  H   UNL     1       4.272  31.853  60.792  1.00  0.00     0.294 HD
HETATM   23  O   UNL     1       6.225  33.286  59.171  1.00  0.00    -0.264 OA
BRANCH  20  24
HETATM   24  C   UNL     1       6.166  31.987  61.476  1.00  0.00     0.142 A 
HETATM   25  C   UNL     1       7.526  31.762  61.253  1.00  0.00     0.037 A 
HETATM   26  C   UNL     1       8.446  32.070  62.256  1.00  0.00     0.003 A 
HETATM   27  C   UNL     1       8.010  32.603  63.471  1.00  0.00     0.018 A 
HETATM   28  C   UNL     1       6.645  32.830  63.690  1.00  0.00     0.041 A 
HETATM   29  C   UNL     1       5.718  32.521  62.682  1.00  0.00     0.055 A 
BRANCH  28  30
HETATM   30  C   UNL     1       6.121  33.395  64.961  1.00  0.00     0.293 C 
HETATM   31  O   UNL     1       6.845  33.979  65.751  1.00  0.00    -0.259 OA
BRANCH  30  32
HETATM   32  O   UNL     1       4.802  33.141  65.094  1.00  0.00    -0.323 OA
HETATM   33  C   UNL     1       4.038  34.248  65.580  1.00  0.00     0.213 C 
ENDBRANCH  30  32
ENDBRANCH  28  30
ENDBRANCH  20  24
ENDBRANCH  16  19
BRANCH  16  34
HETATM   34  C   UNL     1       3.494  33.535  57.866  1.00  0.00     0.253 C 
BRANCH  34  35
HETATM   35  N   UNL     1       3.605  34.561  58.996  1.00  0.00    -0.078 N 
HETATM   36  H   UNL     1       4.376  34.304  59.630  1.00  0.00     0.279 HD
HETATM   37  C   UNL     1       3.839  35.998  58.595  1.00  0.00     0.269 C 
HETATM   38  C   UNL     1       2.371  34.489  59.893  1.00  0.00     0.269 C 
ENDBRANCH  34  35
ENDBRANCH  16  34
ENDBRANCH   1  13
TORSDOF 7
ENDMDL
MODEL 8
REMARK VINA RESULT:      -7.7      2.283      6.543
REMARK  7 active torsions:
REMARK  status: ('A' for Active; 'I' for Inactive)
REMARK    1  A    between atoms: O_2  and  C_3 
REMARK    2  A    between atoms: C_3  and  C_5 
REMARK    3  A    between atoms: C_9  and  N_10 
REMARK       I    between atoms: N_10  and  C_13 
REMARK    4  A    between atoms: C_13  and  C_15 
REMARK    5  A    between atoms: C_15  and  C_16 
REMARK    6  A    between atoms: C_16  and  N_17 
REMARK    7  A    between atoms: N_23  and  C_26 
ROOT
HETATM    1  C   UNL     1       4.843  27.625  51.658  1.00  0.00     0.142 A 
HETATM    2  N   UNL     1       5.265  26.478  51.072  1.00  0.00    -0.224 NA
HETATM    3  C   UNL     1       4.779  26.171  49.845  1.00  0.00     0.237 A 
HETATM    4  N   UNL     1       3.881  26.850  49.117  1.00  0.00    -0.223 NA
HETATM    5  C   UNL     1       3.491  27.975  49.729  1.00  0.00     0.144 A 
HETATM    6  N   UNL     1       2.600  28.882  49.218  1.00  0.00    -0.348 N 
HETATM    7  H   UNL     1       2.141  28.785  48.322  1.00  0.00     0.167 HD
HETATM    8  C   UNL     1       2.457  29.932  50.098  1.00  0.00     0.113 A 
HETATM    9  C   UNL     1       3.279  29.683  51.179  1.00  0.00     0.077 A 
HETATM   10  C   UNL     1       3.472  30.521  52.320  1.00  0.00     0.102 C 
HETATM   11  N   UNL     1       3.707  31.085  53.308  1.00  0.00    -0.191 NA
HETATM   12  C   UNL     1       3.918  28.429  50.964  1.00  0.00     0.078 A 
ENDROOT
BRANCH   1  13
HETATM   13  N   UNL     1       5.352  27.993  52.912  1.00  0.00    -0.365 N 
HETATM   14  C   UNL     1       4.616  27.407  54.024  1.00  0.00     0.126 C 
HETATM   15  C   UNL     1       5.343  26.182  54.555  1.00  0.00     0.041 C 
HETATM   16  C   UNL     1       6.829  26.457  54.851  1.00  0.00     0.076 C 
HETATM   17  C   UNL     1       7.540  27.061  53.622  1.00  0.00     0.041 C 
HETATM   18  C   UNL     1       6.788  28.195  52.926  1.00  0.00     0.126 C 
BRANCH  16  19
HETATM   19  C   UNL     1       6.914  27.418  56.073  1.00  0.00     0.330 C 
HETATM   20  N   UNL     1       7.587  28.683  56.068  1.00  0.00     0.018 N 
HETATM   21  H   UNL     1       7.248  29.247  55.278  1.00  0.00     0.294 HD
HETATM   22  H   UNL     1       8.572  28.537  55.834  1.00  0.00     0.294 HD
HETATM   23  O   UNL     1       6.359  27.150  57.127  1.00  0.00    -0.264 OA
BRANCH  20  24
HETATM   24  C   UNL     1       7.537  29.515  57.266  1.00  0.00     0.142 A 
HETATM   25  C   UNL     1       8.558  29.418  58.214  1.00  0.00     0.037 A 
HETATM   26  C   UNL     1       8.542  30.257  59.328  1.00  0.00     0.003 A 
HETATM   27  C   UNL     1       7.515  31.190  59.491  1.00  0.00     0.018 A 
HETATM   28  C   UNL     1       6.495  31.287  58.536  1.00  0.00     0.041 A 
HETATM   29  C   UNL     1       6.509  30.443  57.415  1.00  0.00     0.055 A 
BRANCH  28  30
HETATM   30  C   UNL     1       5.378  32.260  58.654  1.00  0.00     0.293 C 
HETATM   31  O   UNL     1       4.397  32.031  59.343  1.00  0.00    -0.259 OA
BRANCH  30  32
HETATM   32  O   UNL     1       5.607  33.353  57.895  1.00  0.00    -0.323 OA
HETATM   33  C   UNL     1       4.591  33.614  56.922  1.00  0.00     0.213 C 
ENDBRANCH  30  32
ENDBRANCH  28  30
ENDBRANCH  20  24
ENDBRANCH  16  19
BRANCH  16  34
HETATM   34  C   UNL     1       7.546  25.133  55.315  1.00  0.00     0.253 C 
BRANCH  34  35
HETATM   35  N   UNL     1       7.136  23.821  54.644  1.00  0.00    -0.078 N 
HETATM   36  H   UNL     1       6.110  23.776  54.557  1.00  0.00     0.279 HD
HETATM   37  C   UNL     1       7.696  23.551  53.268  1.00  0.00     0.269 C 
HETATM   38  C   UNL     1       7.465  22.641  55.555  1.00  0.00     0.269 C 
ENDBRANCH  34  35
ENDBRANCH  16  34
ENDBRANCH   1  13
TORSDOF 7
ENDMDL
MODEL 9
REMARK VINA RESULT:      -7.6      2.887      5.503
REMARK  7 active torsions:
REMARK  status: ('A' for Active; 'I' for Inactive)
REMARK    1  A    between atoms: O_2  and  C_3 
REMARK    2  A    between atoms: C_3  and  C_5 
REMARK    3  A    between atoms: C_9  and  N_10 
REMARK       I    between atoms: N_10  and  C_13 
REMARK    4  A    between atoms: C_13  and  C_15 
REMARK    5  A    between atoms: C_15  and  C_16 
REMARK    6  A    between atoms: C_16  and  N_17 
REMARK    7  A    between atoms: N_23  and  C_26 
ROOT
HETATM    1  C   UNL     1       5.488  27.349  54.905  1.00  0.00     0.142 A 
HETATM    2  N   UNL     1       4.667  27.508  53.838  1.00  0.00    -0.224 NA
HETATM    3  C   UNL     1       4.563  26.486  52.955  1.00  0.00     0.237 A 
HETATM    4  N   UNL     1       5.207  25.310  52.970  1.00  0.00    -0.223 NA
HETATM    5  C   UNL     1       6.004  25.192  54.039  1.00  0.00     0.144 A 
HETATM    6  N   UNL     1       6.769  24.094  54.335  1.00  0.00    -0.348 N 
HETATM    7  H   UNL     1       6.809  23.260  53.764  1.00  0.00     0.167 HD
HETATM    8  C   UNL     1       7.437  24.305  55.521  1.00  0.00     0.113 A 
HETATM    9  C   UNL     1       7.080  25.556  55.982  1.00  0.00     0.077 A 
HETATM   10  C   UNL     1       7.509  26.177  57.195  1.00  0.00     0.102 C 
HETATM   11  N   UNL     1       7.792  26.809  58.128  1.00  0.00    -0.191 NA
HETATM   12  C   UNL     1       6.191  26.136  55.033  1.00  0.00     0.078 A 
ENDROOT
BRANCH   1  13
HETATM   13  N   UNL     1       5.593  28.372  55.860  1.00  0.00    -0.365 N 
HETATM   14  C   UNL     1       6.168  29.598  55.325  1.00  0.00     0.126 C 
HETATM   15  C   UNL     1       5.073  30.596  54.989  1.00  0.00     0.041 C 
HETATM   16  C   UNL     1       4.090  30.811  56.154  1.00  0.00     0.076 C 
HETATM   17  C   UNL     1       3.513  29.470  56.654  1.00  0.00     0.041 C 
HETATM   18  C   UNL     1       4.538  28.356  56.856  1.00  0.00     0.126 C 
BRANCH  16  19
HETATM   19  C   UNL     1       4.841  31.555  57.297  1.00  0.00     0.330 C 
HETATM   20  N   UNL     1       4.829  31.156  58.674  1.00  0.00     0.018 N 
HETATM   21  H   UNL     1       5.097  30.166  58.745  1.00  0.00     0.294 HD
HETATM   22  H   UNL     1       3.864  31.152  59.012  1.00  0.00     0.294 HD
HETATM   23  O   UNL     1       5.538  32.531  57.065  1.00  0.00    -0.264 OA
BRANCH  20  24
HETATM   24  C   UNL     1       5.629  31.907  59.634  1.00  0.00     0.142 A 
HETATM   25  C   UNL     1       4.993  32.731  60.565  1.00  0.00     0.037 A 
HETATM   26  C   UNL     1       5.754  33.400  61.523  1.00  0.00     0.003 A 
HETATM   27  C   UNL     1       7.143  33.244  61.553  1.00  0.00     0.018 A 
HETATM   28  C   UNL     1       7.777  32.415  60.620  1.00  0.00     0.041 A 
HETATM   29  C   UNL     1       7.012  31.741  59.655  1.00  0.00     0.055 A 
BRANCH  28  30
HETATM   30  C   UNL     1       9.249  32.208  60.602  1.00  0.00     0.293 C 
HETATM   31  O   UNL     1       9.914  32.414  59.600  1.00  0.00    -0.259 OA
BRANCH  30  32
HETATM   32  O   UNL     1       9.688  31.756  61.796  1.00  0.00    -0.323 OA
HETATM   33  C   UNL     1       9.448  30.364  62.020  1.00  0.00     0.213 C 
ENDBRANCH  30  32
ENDBRANCH  28  30
ENDBRANCH  20  24
ENDBRANCH  16  19
BRANCH  16  34
HETATM   34  C   UNL     1       2.932  31.787  55.718  1.00  0.00     0.253 C 
BRANCH  34  35
HETATM   35  N   UNL     1       3.306  33.222  55.338  1.00  0.00    -0.078 N 
HETATM   36  H   UNL     1       4.283  33.412  55.603  1.00  0.00     0.279 HD
HETATM   37  C   UNL     1       3.173  33.602  53.884  1.00  0.00     0.269 C 
HETATM   38  C   UNL     1       2.512  34.212  56.187  1.00  0.00     0.269 C 
ENDBRANCH  34  35
ENDBRANCH  16  34
ENDBRANCH   1  13
TORSDOF 7
ENDMDL
MODEL 10
REMARK VINA RESULT:      -7.6      2.926      8.550
REMARK  7 active torsions:
REMARK  status: ('A' for Active; 'I' for Inactive)
REMARK    1  A    between atoms: O_2  and  C_3 
REMARK    2  A    between atoms: C_3  and  C_5 
REMARK    3  A    between atoms: C_9  and  N_10 
REMARK       I    between atoms: N_10  and  C_13 
REMARK    4  A    between atoms: C_13  and  C_15 
REMARK    5  A    between atoms: C_15  and  C_16 
REMARK    6  A    between atoms: C_16  and  N_17 
REMARK    7  A    between atoms: N_23  and  C_26 
ROOT
HETATM    1  C   UNL     1       3.046  29.343  50.716  1.00  0.00     0.142 A 
HETATM    2  N   UNL     1       2.695  30.478  51.368  1.00  0.00    -0.224 NA
HETATM    3  C   UNL     1       1.860  31.342  50.741  1.00  0.00     0.237 A 
HETATM    4  N   UNL     1       1.343  31.246  49.508  1.00  0.00    -0.223 NA
HETATM    5  C   UNL     1       1.713  30.113  48.900  1.00  0.00     0.144 A 
HETATM    6  N   UNL     1       1.322  29.728  47.643  1.00  0.00    -0.348 N 
HETATM    7  H   UNL     1       0.715  30.274  47.046  1.00  0.00     0.167 HD
HETATM    8  C   UNL     1       1.864  28.496  47.350  1.00  0.00     0.113 A 
HETATM    9  C   UNL     1       2.602  28.096  48.445  1.00  0.00     0.077 A 
HETATM   10  C   UNL     1       3.315  26.867  48.595  1.00  0.00     0.102 C 
HETATM   11  N   UNL     1       3.954  25.929  48.844  1.00  0.00    -0.191 NA
HETATM   12  C   UNL     1       2.534  29.129  49.422  1.00  0.00     0.078 A 
ENDROOT
BRANCH   1  13
HETATM   13  N   UNL     1       3.879  28.408  51.348  1.00  0.00    -0.365 N 
HETATM   14  C   UNL     1       5.292  28.746  51.259  1.00  0.00     0.126 C 
HETATM   15  C   UNL     1       5.762  29.407  52.544  1.00  0.00     0.041 C 
HETATM   16  C   UNL     1       5.380  28.601  53.799  1.00  0.00     0.076 C 
HETATM   17  C   UNL     1       3.868  28.297  53.828  1.00  0.00     0.041 C 
HETATM   18  C   UNL     1       3.282  27.783  52.514  1.00  0.00     0.126 C 
BRANCH  16  19
HETATM   19  C   UNL     1       6.213  27.287  53.809  1.00  0.00     0.330 C 
HETATM   20  N   UNL     1       5.658  25.971  53.932  1.00  0.00     0.018 N 
HETATM   21  H   UNL     1       4.922  25.844  53.225  1.00  0.00     0.294 HD
HETATM   22  H   UNL     1       5.139  25.908  54.811  1.00  0.00     0.294 HD
HETATM   23  O   UNL     1       7.427  27.307  53.669  1.00  0.00    -0.264 OA
BRANCH  20  24
HETATM   24  C   UNL     1       6.549  24.818  53.864  1.00  0.00     0.142 A 
HETATM   25  C   UNL     1       6.975  24.351  52.619  1.00  0.00     0.037 A 
HETATM   26  C   UNL     1       7.876  23.288  52.556  1.00  0.00     0.003 A 
HETATM   27  C   UNL     1       8.351  22.699  53.731  1.00  0.00     0.018 A 
HETATM   28  C   UNL     1       7.924  23.172  54.978  1.00  0.00     0.041 A 
HETATM   29  C   UNL     1       7.017  24.241  55.042  1.00  0.00     0.055 A 
BRANCH  28  30
HETATM   30  C   UNL     1       8.394  22.587  56.260  1.00  0.00     0.293 C 
HETATM   31  O   UNL     1       8.296  23.191  57.316  1.00  0.00    -0.259 OA
BRANCH  30  32
HETATM   32  O   UNL     1       8.939  21.367  56.064  1.00  0.00    -0.323 OA
HETATM   33  C   UNL     1       8.045  20.279  56.313  1.00  0.00     0.213 C 
ENDBRANCH  30  32
ENDBRANCH  28  30
ENDBRANCH  20  24
ENDBRANCH  16  19
BRANCH  16  34
HETATM   34  C   UNL     1       5.817  29.378  55.100  1.00  0.00     0.253 C 
BRANCH  34  35
HETATM   35  N   UNL     1       5.421  28.788  56.455  1.00  0.00    -0.078 N 
HETATM   36  H   UNL     1       4.750  28.018  56.321  1.00  0.00     0.279 HD
HETATM   37  C   UNL     1       6.535  28.243  57.316  1.00  0.00     0.269 C 
HETATM   38  C   UNL     1       4.626  29.814  57.260  1.00  0.00     0.269 C 
ENDBRANCH  34  35
ENDBRANCH  16  34
ENDBRANCH   1  13
TORSDOF 7
ENDMDL
