MODEL 1
REMARK VINA RESULT:      -9.1      0.000      0.000
REMARK  6 active torsions:
REMARK  status: ('A' for Active; 'I' for Inactive)
REMARK    1  A    between atoms: O_2  and  C_3 
REMARK    2  A    between atoms: C_7  and  C_8 
REMARK    3  A    between atoms: C_8  and  N_9 
REMARK       I    between atoms: N_9  and  C_10 
REMARK       I    between atoms: C_10  and  N_12 
REMARK    4  A    between atoms: N_12  and  C_13 
REMARK    5  A    between atoms: C_16  and  C_21 
REMARK    6  A    between atoms: C_18  and  O_19 
ROOT
HETATM    1  N   UNL     1       7.404  28.949  58.474  1.00  0.00    -0.339 N 
HETATM    2  C   UNL     1       7.912  28.019  57.593  1.00  0.00     0.321 C 
HETATM    3  O   UNL     1       8.854  28.278  56.853  1.00  0.00    -0.247 OA
HETATM    4  N   UNL     1       7.243  26.824  57.671  1.00  0.00    -0.306 N 
HETATM    5  H   UNL     1       6.453  28.828  58.785  1.00  0.00     0.164 HD
HETATM    6  H   UNL     1       6.452  26.765  58.297  1.00  0.00     0.171 HD
ENDROOT
BRANCH   4   7
HETATM    7  C   UNL     1       7.506  25.641  56.947  1.00  0.00     0.069 A 
HETATM    8  C   UNL     1       8.535  24.753  57.252  1.00  0.00     0.033 A 
HETATM    9  C   UNL     1       8.723  23.594  56.485  1.00  0.00     0.015 A 
HETATM   10  C   UNL     1       7.883  23.294  55.404  1.00  0.00    -0.020 A 
HETATM   11  C   UNL     1       6.847  24.186  55.098  1.00  0.00     0.051 A 
HETATM   12  C   UNL     1       6.676  25.354  55.851  1.00  0.00     0.095 A 
BRANCH  10  13
HETATM   13  C   UNL     1       8.108  22.088  54.624  1.00  0.00     0.010 A 
HETATM   14  C   UNL     1       8.596  20.816  55.013  1.00  0.00     0.152 A 
HETATM   15  N   UNL     1       8.654  19.948  53.999  1.00  0.00    -0.187 NA
HETATM   16  N   UNL     1       8.195  20.656  52.956  1.00  0.00    -0.289 N 
HETATM   17  H   UNL     1       8.135  20.197  52.053  1.00  0.00     0.188 HD
HETATM   18  C   UNL     1       7.857  21.940  53.275  1.00  0.00     0.123 A 
ENDBRANCH  10  13
BRANCH  12  19
HETATM   19  O   UNL     1       5.664  26.238  55.554  1.00  0.00    -0.354 OA
HETATM   20  C   UNL     1       5.427  26.280  54.145  1.00  0.00     0.210 C 
ENDBRANCH  12  19
ENDBRANCH   4   7
BRANCH   1  21
HETATM   21  C   UNL     1       7.909  30.304  58.431  1.00  0.00     0.163 C 
BRANCH  21  22
HETATM   22  C   UNL     1       8.075  30.904  59.803  1.00  0.00    -0.038 A 
HETATM   23  C   UNL     1       9.113  30.486  60.648  1.00  0.00     0.009 A 
HETATM   24  C   UNL     1       9.300  31.092  61.889  1.00  0.00     0.003 A 
HETATM   25  C   UNL     1       8.463  32.133  62.288  1.00  0.00     0.037 A 
HETATM   26  C   UNL     1       7.438  32.580  61.452  1.00  0.00     0.068 A 
HETATM   27  C   UNL     1       7.243  31.961  60.217  1.00  0.00     0.045 A 
BRANCH  26  28
HETATM   28  O   UNL     1       6.706  33.622  61.954  1.00  0.00    -0.356 OA
HETATM   29  C   UNL     1       6.480  33.629  63.358  1.00  0.00     0.210 C 
ENDBRANCH  26  28
ENDBRANCH  21  22
ENDBRANCH   1  21
TORSDOF 6
ENDMDL
MODEL 2
REMARK VINA RESULT:      -8.5      6.728     10.531
REMARK  6 active torsions:
REMARK  status: ('A' for Active; 'I' for Inactive)
REMARK    1  A    between atoms: O_2  and  C_3 
REMARK    2  A    between atoms: C_7  and  C_8 
REMARK    3  A    between atoms: C_8  and  N_9 
REMARK       I    between atoms: N_9  and  C_10 
REMARK       I    between atoms: C_10  and  N_12 
REMARK    4  A    between atoms: N_12  and  C_13 
REMARK    5  A    between atoms: C_16  and  C_21 
REMARK    6  A    between atoms: C_18  and  O_19 
ROOT
HETATM    1  N   UNL     1       6.941  25.828  52.345  1.00  0.00    -0.339 N 
HETATM    2  C   UNL     1       5.706  26.113  51.802  1.00  0.00     0.321 C 
HETATM    3  O   UNL     1       4.687  26.122  52.482  1.00  0.00    -0.247 OA
HETATM    4  N   UNL     1       5.790  26.374  50.456  1.00  0.00    -0.306 N 
HETATM    5  H   UNL     1       7.658  25.488  51.725  1.00  0.00     0.164 HD
HETATM    6  H   UNL     1       6.693  26.285  50.013  1.00  0.00     0.171 HD
ENDROOT
BRANCH   4   7
HETATM    7  C   UNL     1       4.741  26.733  49.583  1.00  0.00     0.069 A 
HETATM    8  C   UNL     1       4.019  25.823  48.815  1.00  0.00     0.033 A 
HETATM    9  C   UNL     1       2.984  26.263  47.977  1.00  0.00     0.015 A 
HETATM   10  C   UNL     1       2.645  27.621  47.896  1.00  0.00    -0.020 A 
HETATM   11  C   UNL     1       3.369  28.537  48.669  1.00  0.00     0.051 A 
HETATM   12  C   UNL     1       4.416  28.096  49.487  1.00  0.00     0.095 A 
BRANCH  10  13
HETATM   13  C   UNL     1       1.571  28.048  47.012  1.00  0.00     0.010 A 
HETATM   14  C   UNL     1       0.514  27.311  46.423  1.00  0.00     0.152 A 
HETATM   15  N   UNL     1      -0.289  28.066  45.668  1.00  0.00    -0.187 NA
HETATM   16  N   UNL     1       0.243  29.292  45.776  1.00  0.00    -0.289 N 
HETATM   17  H   UNL     1      -0.208  30.056  45.286  1.00  0.00     0.188 HD
HETATM   18  C   UNL     1       1.357  29.335  46.566  1.00  0.00     0.123 A 
ENDBRANCH  10  13
BRANCH  12  19
HETATM   19  O   UNL     1       5.137  28.990  50.246  1.00  0.00    -0.354 OA
HETATM   20  C   UNL     1       5.726  29.996  49.420  1.00  0.00     0.210 C 
ENDBRANCH  12  19
ENDBRANCH   4   7
BRANCH   1  21
HETATM   21  C   UNL     1       7.017  25.402  53.725  1.00  0.00     0.163 C 
BRANCH  21  22
HETATM   22  C   UNL     1       7.322  23.933  53.862  1.00  0.00    -0.038 A 
HETATM   23  C   UNL     1       7.580  23.146  52.731  1.00  0.00     0.009 A 
HETATM   24  C   UNL     1       7.926  21.803  52.869  1.00  0.00     0.003 A 
HETATM   25  C   UNL     1       8.035  21.240  54.140  1.00  0.00     0.037 A 
HETATM   26  C   UNL     1       7.805  22.012  55.281  1.00  0.00     0.068 A 
HETATM   27  C   UNL     1       7.443  23.353  55.138  1.00  0.00     0.045 A 
BRANCH  26  28
HETATM   28  O   UNL     1       7.968  21.345  56.464  1.00  0.00    -0.356 OA
HETATM   29  C   UNL     1       9.025  20.395  56.524  1.00  0.00     0.210 C 
ENDBRANCH  26  28
ENDBRANCH  21  22
ENDBRANCH   1  21
TORSDOF 6
ENDMDL
MODEL 3
REMARK VINA RESULT:      -8.3      1.704      2.594
REMARK  6 active torsions:
REMARK  status: ('A' for Active; 'I' for Inactive)
REMARK    1  A    between atoms: O_2  and  C_3 
REMARK    2  A    between atoms: C_7  and  C_8 
REMARK    3  A    between atoms: C_8  and  N_9 
REMARK       I    between atoms: N_9  and  C_10 
REMARK       I    between atoms: C_10  and  N_12 
REMARK    4  A    between atoms: N_12  and  C_13 
REMARK    5  A    between atoms: C_16  and  C_21 
REMARK    6  A    between atoms: C_18  and  O_19 
ROOT
HETATM    1  N   UNL     1       7.341  30.911  59.420  1.00  0.00    -0.339 N 
HETATM    2  C   UNL     1       7.878  29.886  58.672  1.00  0.00     0.321 C 
HETATM    3  O   UNL     1       9.088  29.709  58.592  1.00  0.00    -0.247 OA
HETATM    4  N   UNL     1       6.903  29.132  58.067  1.00  0.00    -0.306 N 
HETATM    5  H   UNL     1       6.416  31.231  59.180  1.00  0.00     0.164 HD
HETATM    6  H   UNL     1       5.942  29.420  58.184  1.00  0.00     0.171 HD
ENDROOT
BRANCH   4   7
HETATM    7  C   UNL     1       7.078  27.989  57.258  1.00  0.00     0.069 A 
HETATM    8  C   UNL     1       7.544  26.763  57.728  1.00  0.00     0.033 A 
HETATM    9  C   UNL     1       7.681  25.674  56.857  1.00  0.00     0.015 A 
HETATM   10  C   UNL     1       7.347  25.783  55.499  1.00  0.00    -0.020 A 
HETATM   11  C   UNL     1       6.875  27.014  55.026  1.00  0.00     0.051 A 
HETATM   12  C   UNL     1       6.763  28.107  55.894  1.00  0.00     0.095 A 
BRANCH  10  13
HETATM   13  C   UNL     1       7.505  24.636  54.619  1.00  0.00     0.010 A 
HETATM   14  C   UNL     1       7.960  24.558  53.280  1.00  0.00     0.152 A 
HETATM   15  N   UNL     1       7.974  23.309  52.806  1.00  0.00    -0.187 NA
HETATM   16  N   UNL     1       7.537  22.578  53.843  1.00  0.00    -0.289 N 
HETATM   17  H   UNL     1       7.467  21.573  53.726  1.00  0.00     0.188 HD
HETATM   18  C   UNL     1       7.240  23.323  54.948  1.00  0.00     0.123 A 
ENDBRANCH  10  13
BRANCH  12  19
HETATM   19  O   UNL     1       6.306  29.322  55.436  1.00  0.00    -0.354 OA
HETATM   20  C   UNL     1       4.977  29.202  54.923  1.00  0.00     0.210 C 
ENDBRANCH  12  19
ENDBRANCH   4   7
BRANCH   1  21
HETATM   21  C   UNL     1       8.232  31.882  60.019  1.00  0.00     0.163 C 
BRANCH  21  22
HETATM   22  C   UNL     1       7.725  32.393  61.342  1.00  0.00    -0.038 A 
HETATM   23  C   UNL     1       8.446  32.165  62.523  1.00  0.00     0.009 A 
HETATM   24  C   UNL     1       8.006  32.697  63.733  1.00  0.00     0.003 A 
HETATM   25  C   UNL     1       6.851  33.477  63.771  1.00  0.00     0.037 A 
HETATM   26  C   UNL     1       6.130  33.735  62.603  1.00  0.00     0.068 A 
HETATM   27  C   UNL     1       6.565  33.188  61.395  1.00  0.00     0.045 A 
BRANCH  26  28
HETATM   28  O   UNL     1       5.032  34.532  62.775  1.00  0.00    -0.356 OA
HETATM   29  C   UNL     1       3.957  33.989  63.533  1.00  0.00     0.210 C 
ENDBRANCH  26  28
ENDBRANCH  21  22
ENDBRANCH   1  21
TORSDOF 6
ENDMDL
MODEL 4
REMARK VINA RESULT:      -8.3      1.322      2.053
REMARK  6 active torsions:
REMARK  status: ('A' for Active; 'I' for Inactive)
REMARK    1  A    between atoms: O_2  and  C_3 
REMARK    2  A    between atoms: C_7  and  C_8 
REMARK    3  A    between atoms: C_8  and  N_9 
REMARK       I    between atoms: N_9  and  C_10 
REMARK       I    between atoms: C_10  and  N_12 
REMARK    4  A    between atoms: N_12  and  C_13 
REMARK    5  A    between atoms: C_16  and  C_21 
REMARK    6  A    between atoms: C_18  and  O_19 
ROOT
HETATM    1  N   UNL     1       6.194  28.892  57.186  1.00  0.00    -0.339 N 
HETATM    2  C   UNL     1       6.932  27.883  56.607  1.00  0.00     0.321 C 
HETATM    3  O   UNL     1       7.962  28.112  55.984  1.00  0.00    -0.247 OA
HETATM    4  N   UNL     1       6.370  26.650  56.827  1.00  0.00    -0.306 N 
HETATM    5  H   UNL     1       5.218  28.716  57.364  1.00  0.00     0.164 HD
HETATM    6  H   UNL     1       5.490  26.613  57.321  1.00  0.00     0.171 HD
ENDROOT
BRANCH   4   7
HETATM    7  C   UNL     1       6.864  25.393  56.414  1.00  0.00     0.069 A 
HETATM    8  C   UNL     1       7.743  24.616  57.165  1.00  0.00     0.033 A 
HETATM    9  C   UNL     1       8.178  23.373  56.685  1.00  0.00     0.015 A 
HETATM   10  C   UNL     1       7.739  22.877  55.449  1.00  0.00    -0.020 A 
HETATM   11  C   UNL     1       6.853  23.657  54.694  1.00  0.00     0.051 A 
HETATM   12  C   UNL     1       6.439  24.909  55.167  1.00  0.00     0.095 A 
BRANCH  10  13
HETATM   13  C   UNL     1       8.215  21.587  54.975  1.00  0.00     0.010 A 
HETATM   14  C   UNL     1       8.202  21.020  53.676  1.00  0.00     0.152 A 
HETATM   15  N   UNL     1       8.744  19.800  53.636  1.00  0.00    -0.187 NA
HETATM   16  N   UNL     1       9.116  19.582  54.906  1.00  0.00    -0.289 N 
HETATM   17  H   UNL     1       9.570  18.703  55.129  1.00  0.00     0.188 HD
HETATM   18  C   UNL     1       8.820  20.617  55.746  1.00  0.00     0.123 A 
ENDBRANCH  10  13
BRANCH  12  19
HETATM   19  O   UNL     1       5.573  25.684  54.429  1.00  0.00    -0.354 OA
HETATM   20  C   UNL     1       6.080  25.894  53.110  1.00  0.00     0.210 C 
ENDBRANCH  12  19
ENDBRANCH   4   7
BRANCH   1  21
HETATM   21  C   UNL     1       6.573  30.267  56.941  1.00  0.00     0.163 C 
BRANCH  21  22
HETATM   22  C   UNL     1       6.686  31.071  58.210  1.00  0.00    -0.038 A 
HETATM   23  C   UNL     1       5.701  32.007  58.556  1.00  0.00     0.009 A 
HETATM   24  C   UNL     1       5.778  32.699  59.763  1.00  0.00     0.003 A 
HETATM   25  C   UNL     1       6.831  32.449  60.643  1.00  0.00     0.037 A 
HETATM   26  C   UNL     1       7.810  31.504  60.328  1.00  0.00     0.068 A 
HETATM   27  C   UNL     1       7.738  30.824  59.111  1.00  0.00     0.045 A 
BRANCH  26  28
HETATM   28  O   UNL     1       8.772  31.338  61.286  1.00  0.00    -0.356 OA
HETATM   29  C   UNL     1       8.324  31.000  62.593  1.00  0.00     0.210 C 
ENDBRANCH  26  28
ENDBRANCH  21  22
ENDBRANCH   1  21
TORSDOF 6
ENDMDL
MODEL 5
REMARK VINA RESULT:      -8.2      3.093      9.764
REMARK  6 active torsions:
REMARK  status: ('A' for Active; 'I' for Inactive)
REMARK    1  A    between atoms: O_2  and  C_3 
REMARK    2  A    between atoms: C_7  and  C_8 
REMARK    3  A    between atoms: C_8  and  N_9 
REMARK       I    between atoms: N_9  and  C_10 
REMARK       I    between atoms: C_10  and  N_12 
REMARK    4  A    between atoms: N_12  and  C_13 
REMARK    5  A    between atoms: C_16  and  C_21 
REMARK    6  A    between atoms: C_18  and  O_19 
ROOT
HETATM    1  N   UNL     1       6.292  28.161  54.215  1.00  0.00    -0.339 N 
HETATM    2  C   UNL     1       6.157  28.485  55.547  1.00  0.00     0.321 C 
HETATM    3  O   UNL     1       5.473  27.812  56.310  1.00  0.00    -0.247 OA
HETATM    4  N   UNL     1       6.869  29.612  55.872  1.00  0.00    -0.306 N 
HETATM    5  H   UNL     1       6.547  28.898  53.577  1.00  0.00     0.164 HD
HETATM    6  H   UNL     1       7.355  30.095  55.129  1.00  0.00     0.171 HD
ENDROOT
BRANCH   4   7
HETATM    7  C   UNL     1       6.992  30.217  57.142  1.00  0.00     0.069 A 
HETATM    8  C   UNL     1       6.078  31.129  57.664  1.00  0.00     0.033 A 
HETATM    9  C   UNL     1       6.271  31.677  58.939  1.00  0.00     0.015 A 
HETATM   10  C   UNL     1       7.377  31.320  59.724  1.00  0.00    -0.020 A 
HETATM   11  C   UNL     1       8.296  30.401  59.201  1.00  0.00     0.051 A 
HETATM   12  C   UNL     1       8.112  29.873  57.917  1.00  0.00     0.095 A 
BRANCH  10  13
HETATM   13  C   UNL     1       7.553  31.911  61.041  1.00  0.00     0.010 A 
HETATM   14  C   UNL     1       6.795  32.899  61.717  1.00  0.00     0.152 A 
HETATM   15  N   UNL     1       7.271  33.179  62.933  1.00  0.00    -0.187 NA
HETATM   16  N   UNL     1       8.332  32.366  63.047  1.00  0.00    -0.289 N 
HETATM   17  H   UNL     1       8.865  32.391  63.909  1.00  0.00     0.188 HD
HETATM   18  C   UNL     1       8.545  31.590  61.943  1.00  0.00     0.123 A 
ENDBRANCH  10  13
BRANCH  12  19
HETATM   19  O   UNL     1       9.013  28.974  57.393  1.00  0.00    -0.354 OA
HETATM   20  C   UNL     1      10.288  29.590  57.202  1.00  0.00     0.210 C 
ENDBRANCH  12  19
ENDBRANCH   4   7
BRANCH   1  21
HETATM   21  C   UNL     1       5.502  27.075  53.675  1.00  0.00     0.163 C 
BRANCH  21  22
HETATM   22  C   UNL     1       6.310  25.822  53.463  1.00  0.00    -0.038 A 
HETATM   23  C   UNL     1       7.117  25.671  52.326  1.00  0.00     0.009 A 
HETATM   24  C   UNL     1       7.912  24.538  52.169  1.00  0.00     0.003 A 
HETATM   25  C   UNL     1       7.921  23.553  53.156  1.00  0.00     0.037 A 
HETATM   26  C   UNL     1       7.144  23.693  54.307  1.00  0.00     0.068 A 
HETATM   27  C   UNL     1       6.336  24.823  54.453  1.00  0.00     0.045 A 
BRANCH  26  28
HETATM   28  O   UNL     1       7.263  22.669  55.205  1.00  0.00    -0.356 OA
HETATM   29  C   UNL     1       8.232  22.828  56.234  1.00  0.00     0.210 C 
ENDBRANCH  26  28
ENDBRANCH  21  22
ENDBRANCH   1  21
TORSDOF 6
ENDMDL
MODEL 6
REMARK VINA RESULT:      -8.2      5.230      8.233
REMARK  6 active torsions:
REMARK  status: ('A' for Active; 'I' for Inactive)
REMARK    1  A    between atoms: O_2  and  C_3 
REMARK    2  A    between atoms: C_7  and  C_8 
REMARK    3  A    between atoms: C_8  and  N_9 
REMARK       I    between atoms: N_9  and  C_10 
REMARK       I    between atoms: C_10  and  N_12 
REMARK    4  A    between atoms: N_12  and  C_13 
REMARK    5  A    between atoms: C_16  and  C_21 
REMARK    6  A    between atoms: C_18  and  O_19 
ROOT
HETATM    1  N   UNL     1       5.761  29.025  52.478  1.00  0.00    -0.339 N 
HETATM    2  C   UNL     1       5.751  27.658  52.656  1.00  0.00     0.321 C 
HETATM    3  O   UNL     1       4.746  26.987  52.451  1.00  0.00    -0.247 OA
HETATM    4  N   UNL     1       6.973  27.189  53.069  1.00  0.00    -0.306 N 
HETATM    5  H   UNL     1       6.455  29.557  52.979  1.00  0.00     0.164 HD
HETATM    6  H   UNL     1       7.705  27.864  53.242  1.00  0.00     0.171 HD
ENDROOT
BRANCH   4   7
HETATM    7  C   UNL     1       7.341  25.849  53.317  1.00  0.00     0.069 A 
HETATM    8  C   UNL     1       7.709  24.944  52.324  1.00  0.00     0.033 A 
HETATM    9  C   UNL     1       8.070  23.631  52.658  1.00  0.00     0.015 A 
HETATM   10  C   UNL     1       8.078  23.197  53.991  1.00  0.00    -0.020 A 
HETATM   11  C   UNL     1       7.710  24.106  54.990  1.00  0.00     0.051 A 
HETATM   12  C   UNL     1       7.328  25.410  54.651  1.00  0.00     0.095 A 
BRANCH  10  13
HETATM   13  C   UNL     1       8.450  21.827  54.304  1.00  0.00     0.010 A 
HETATM   14  C   UNL     1       8.416  20.656  53.507  1.00  0.00     0.152 A 
HETATM   15  N   UNL     1       8.852  19.572  54.154  1.00  0.00    -0.187 NA
HETATM   16  N   UNL     1       9.177  20.043  55.367  1.00  0.00    -0.289 N 
HETATM   17  H   UNL     1       9.549  19.392  56.051  1.00  0.00     0.188 HD
HETATM   18  C   UNL     1       8.953  21.383  55.510  1.00  0.00     0.123 A 
ENDBRANCH  10  13
BRANCH  12  19
HETATM   19  O   UNL     1       6.960  26.309  55.627  1.00  0.00    -0.354 OA
HETATM   20  C   UNL     1       5.767  25.879  56.285  1.00  0.00     0.210 C 
ENDBRANCH  12  19
ENDBRANCH   4   7
BRANCH   1  21
HETATM   21  C   UNL     1       4.519  29.700  52.170  1.00  0.00     0.163 C 
BRANCH  21  22
HETATM   22  C   UNL     1       4.318  29.896  50.690  1.00  0.00    -0.038 A 
HETATM   23  C   UNL     1       5.085  30.829  49.979  1.00  0.00     0.009 A 
HETATM   24  C   UNL     1       4.940  30.958  48.599  1.00  0.00     0.003 A 
HETATM   25  C   UNL     1       4.040  30.141  47.915  1.00  0.00     0.037 A 
HETATM   26  C   UNL     1       3.283  29.188  48.601  1.00  0.00     0.068 A 
HETATM   27  C   UNL     1       3.420  29.073  49.986  1.00  0.00     0.045 A 
BRANCH  26  28
HETATM   28  O   UNL     1       2.458  28.438  47.810  1.00  0.00    -0.356 OA
HETATM   29  C   UNL     1       1.438  27.696  48.468  1.00  0.00     0.210 C 
ENDBRANCH  26  28
ENDBRANCH  21  22
ENDBRANCH   1  21
TORSDOF 6
ENDMDL
MODEL 7
REMARK VINA RESULT:      -7.9      3.055      4.144
REMARK  6 active torsions:
REMARK  status: ('A' for Active; 'I' for Inactive)
REMARK    1  A    between atoms: O_2  and  C_3 
REMARK    2  A    between atoms: C_7  and  C_8 
REMARK    3  A    between atoms: C_8  and  N_9 
REMARK       I    between atoms: N_9  and  C_10 
REMARK       I    between atoms: C_10  and  N_12 
REMARK    4  A    between atoms: N_12  and  C_13 
REMARK    5  A    between atoms: C_16  and  C_21 
REMARK    6  A    between atoms: C_18  and  O_19 
ROOT
HETATM    1  N   UNL     1       6.892  31.322  59.863  1.00  0.00    -0.339 N 
HETATM    2  C   UNL     1       6.656  30.924  58.564  1.00  0.00     0.321 C 
HETATM    3  O   UNL     1       6.191  31.691  57.728  1.00  0.00    -0.247 OA
HETATM    4  N   UNL     1       7.006  29.613  58.361  1.00  0.00    -0.306 N 
HETATM    5  H   UNL     1       6.927  30.607  60.572  1.00  0.00     0.164 HD
HETATM    6  H   UNL     1       7.336  29.083  59.155  1.00  0.00     0.171 HD
ENDROOT
BRANCH   4   7
HETATM    7  C   UNL     1       6.935  28.880  57.156  1.00  0.00     0.069 A 
HETATM    8  C   UNL     1       5.744  28.485  56.552  1.00  0.00     0.033 A 
HETATM    9  C   UNL     1       5.762  27.766  55.349  1.00  0.00     0.015 A 
HETATM   10  C   UNL     1       6.970  27.432  54.721  1.00  0.00    -0.020 A 
HETATM   11  C   UNL     1       8.169  27.831  55.326  1.00  0.00     0.051 A 
HETATM   12  C   UNL     1       8.147  28.529  56.540  1.00  0.00     0.095 A 
BRANCH  10  13
HETATM   13  C   UNL     1       6.957  26.679  53.477  1.00  0.00     0.010 A 
HETATM   14  C   UNL     1       7.772  25.606  53.040  1.00  0.00     0.152 A 
HETATM   15  N   UNL     1       7.444  25.165  51.822  1.00  0.00    -0.187 NA
HETATM   16  N   UNL     1       6.411  25.948  51.475  1.00  0.00    -0.289 N 
HETATM   17  H   UNL     1       5.975  25.795  50.572  1.00  0.00     0.188 HD
HETATM   18  C   UNL     1       6.083  26.870  52.427  1.00  0.00     0.123 A 
ENDBRANCH  10  13
BRANCH  12  19
HETATM   19  O   UNL     1       9.320  28.920  57.144  1.00  0.00    -0.354 OA
HETATM   20  C   UNL     1      10.110  29.711  56.254  1.00  0.00     0.210 C 
ENDBRANCH  12  19
ENDBRANCH   4   7
BRANCH   1  21
HETATM   21  C   UNL     1       6.459  32.636  60.283  1.00  0.00     0.163 C 
BRANCH  21  22
HETATM   22  C   UNL     1       6.666  32.871  61.756  1.00  0.00    -0.038 A 
HETATM   23  C   UNL     1       7.851  32.465  62.388  1.00  0.00     0.009 A 
HETATM   24  C   UNL     1       8.063  32.744  63.736  1.00  0.00     0.003 A 
HETATM   25  C   UNL     1       7.101  33.447  64.461  1.00  0.00     0.037 A 
HETATM   26  C   UNL     1       5.925  33.881  63.846  1.00  0.00     0.068 A 
HETATM   27  C   UNL     1       5.709  33.586  62.499  1.00  0.00     0.045 A 
BRANCH  26  28
HETATM   28  O   UNL     1       5.078  34.579  64.662  1.00  0.00    -0.356 OA
HETATM   29  C   UNL     1       4.548  33.882  65.784  1.00  0.00     0.210 C 
ENDBRANCH  26  28
ENDBRANCH  21  22
ENDBRANCH   1  21
TORSDOF 6
ENDMDL
MODEL 8
REMARK VINA RESULT:      -7.9      4.296      5.800
REMARK  6 active torsions:
REMARK  status: ('A' for Active; 'I' for Inactive)
REMARK    1  A    between atoms: O_2  and  C_3 
REMARK    2  A    between atoms: C_7  and  C_8 
REMARK    3  A    between atoms: C_8  and  N_9 
REMARK       I    between atoms: N_9  and  C_10 
REMARK       I    between atoms: C_10  and  N_12 
REMARK    4  A    between atoms: N_12  and  C_13 
REMARK    5  A    between atoms: C_16  and  C_21 
REMARK    6  A    between atoms: C_18  and  O_19 
ROOT
HETATM    1  N   UNL     1       5.626  29.108  52.406  1.00  0.00    -0.339 N 
HETATM    2  C   UNL     1       5.646  27.733  52.489  1.00  0.00     0.321 C 
HETATM    3  O   UNL     1       4.713  27.047  52.086  1.00  0.00    -0.247 OA
HETATM    4  N   UNL     1       6.808  27.273  53.057  1.00  0.00    -0.306 N 
HETATM    5  H   UNL     1       6.212  29.624  53.043  1.00  0.00     0.164 HD
HETATM    6  H   UNL     1       7.476  27.957  53.386  1.00  0.00     0.171 HD
ENDROOT
BRANCH   4   7
HETATM    7  C   UNL     1       7.190  25.931  53.271  1.00  0.00     0.069 A 
HETATM    8  C   UNL     1       7.607  25.068  52.260  1.00  0.00     0.033 A 
HETATM    9  C   UNL     1       7.978  23.750  52.560  1.00  0.00     0.015 A 
HETATM   10  C   UNL     1       7.947  23.269  53.877  1.00  0.00    -0.020 A 
HETATM   11  C   UNL     1       7.529  24.136  54.894  1.00  0.00     0.051 A 
HETATM   12  C   UNL     1       7.138  25.446  54.587  1.00  0.00     0.095 A 
BRANCH  10  13
HETATM   13  C   UNL     1       8.330  21.894  54.155  1.00  0.00     0.010 A 
HETATM   14  C   UNL     1       8.452  20.777  53.292  1.00  0.00     0.152 A 
HETATM   15  N   UNL     1       8.843  19.668  53.926  1.00  0.00    -0.187 NA
HETATM   16  N   UNL     1       8.983  20.070  55.198  1.00  0.00    -0.289 N 
HETATM   17  H   UNL     1       9.287  19.389  55.885  1.00  0.00     0.188 HD
HETATM   18  C   UNL     1       8.686  21.389  55.389  1.00  0.00     0.123 A 
ENDBRANCH  10  13
BRANCH  12  19
HETATM   19  O   UNL     1       6.721  26.303  55.580  1.00  0.00    -0.354 OA
HETATM   20  C   UNL     1       7.735  26.455  56.576  1.00  0.00     0.210 C 
ENDBRANCH  12  19
ENDBRANCH   4   7
BRANCH   1  21
HETATM   21  C   UNL     1       4.419  29.765  51.953  1.00  0.00     0.163 C 
BRANCH  21  22
HETATM   22  C   UNL     1       4.006  30.901  52.851  1.00  0.00    -0.038 A 
HETATM   23  C   UNL     1       4.019  32.224  52.387  1.00  0.00     0.009 A 
HETATM   24  C   UNL     1       3.573  33.263  53.202  1.00  0.00     0.003 A 
HETATM   25  C   UNL     1       3.093  32.986  54.482  1.00  0.00     0.037 A 
HETATM   26  C   UNL     1       3.050  31.673  54.955  1.00  0.00     0.068 A 
HETATM   27  C   UNL     1       3.512  30.637  54.142  1.00  0.00     0.045 A 
BRANCH  26  28
HETATM   28  O   UNL     1       2.535  31.538  56.215  1.00  0.00    -0.356 OA
HETATM   29  C   UNL     1       2.982  30.420  56.973  1.00  0.00     0.210 C 
ENDBRANCH  26  28
ENDBRANCH  21  22
ENDBRANCH   1  21
TORSDOF 6
ENDMDL
MODEL 9
REMARK VINA RESULT:      -7.9      2.985      9.913
REMARK  6 active torsions:
REMARK  status: ('A' for Active; 'I' for Inactive)
REMARK    1  A    between atoms: O_2  and  C_3 
REMARK    2  A    between atoms: C_7  and  C_8 
REMARK    3  A    between atoms: C_8  and  N_9 
REMARK       I    between atoms: N_9  and  C_10 
REMARK       I    between atoms: C_10  and  N_12 
REMARK    4  A    between atoms: N_12  and  C_13 
REMARK    5  A    between atoms: C_16  and  C_21 
REMARK    6  A    between atoms: C_18  and  O_19 
ROOT
HETATM    1  N   UNL     1       6.733  28.224  55.153  1.00  0.00    -0.339 N 
HETATM    2  C   UNL     1       6.486  28.635  56.445  1.00  0.00     0.321 C 
HETATM    3  O   UNL     1       5.605  28.125  57.128  1.00  0.00    -0.247 OA
HETATM    4  N   UNL     1       7.333  29.644  56.830  1.00  0.00    -0.306 N 
HETATM    5  H   UNL     1       7.189  28.875  54.534  1.00  0.00     0.164 HD
HETATM    6  H   UNL     1       7.985  30.001  56.146  1.00  0.00     0.171 HD
ENDROOT
BRANCH   4   7
HETATM    7  C   UNL     1       7.394  30.285  58.087  1.00  0.00     0.069 A 
HETATM    8  C   UNL     1       8.302  29.953  59.089  1.00  0.00     0.033 A 
HETATM    9  C   UNL     1       8.301  30.646  60.307  1.00  0.00     0.015 A 
HETATM   10  C   UNL     1       7.397  31.690  60.547  1.00  0.00    -0.020 A 
HETATM   11  C   UNL     1       6.484  32.027  59.539  1.00  0.00     0.051 A 
HETATM   12  C   UNL     1       6.474  31.316  58.332  1.00  0.00     0.095 A 
BRANCH  10  13
HETATM   13  C   UNL     1       7.416  32.387  61.823  1.00  0.00     0.010 A 
HETATM   14  C   UNL     1       8.214  32.179  62.975  1.00  0.00     0.152 A 
HETATM   15  N   UNL     1       7.940  33.039  63.961  1.00  0.00    -0.187 NA
HETATM   16  N   UNL     1       6.971  33.808  63.443  1.00  0.00    -0.289 N 
HETATM   17  H   UNL     1       6.596  34.557  64.015  1.00  0.00     0.188 HD
HETATM   18  C   UNL     1       6.619  33.458  62.170  1.00  0.00     0.123 A 
ENDBRANCH  10  13
BRANCH  12  19
HETATM   19  O   UNL     1       5.576  31.636  57.339  1.00  0.00    -0.354 OA
HETATM   20  C   UNL     1       4.233  31.472  57.798  1.00  0.00     0.210 C 
ENDBRANCH  12  19
ENDBRANCH   4   7
BRANCH   1  21
HETATM   21  C   UNL     1       5.845  27.258  54.544  1.00  0.00     0.163 C 
BRANCH  21  22
HETATM   22  C   UNL     1       6.570  26.029  54.061  1.00  0.00    -0.038 A 
HETATM   23  C   UNL     1       7.151  25.993  52.785  1.00  0.00     0.009 A 
HETATM   24  C   UNL     1       7.876  24.879  52.370  1.00  0.00     0.003 A 
HETATM   25  C   UNL     1       8.044  23.797  53.234  1.00  0.00     0.037 A 
HETATM   26  C   UNL     1       7.494  23.822  54.518  1.00  0.00     0.068 A 
HETATM   27  C   UNL     1       6.754  24.933  54.924  1.00  0.00     0.045 A 
BRANCH  26  28
HETATM   28  O   UNL     1       7.753  22.709  55.271  1.00  0.00    -0.356 OA
HETATM   29  C   UNL     1       8.290  22.925  56.570  1.00  0.00     0.210 C 
ENDBRANCH  26  28
ENDBRANCH  21  22
ENDBRANCH   1  21
TORSDOF 6
ENDMDL
MODEL 10
REMARK VINA RESULT:      -7.9      5.261      7.674
REMARK  6 active torsions:
REMARK  status: ('A' for Active; 'I' for Inactive)
REMARK    1  A    between atoms: O_2  and  C_3 
REMARK    2  A    between atoms: C_7  and  C_8 
REMARK    3  A    between atoms: C_8  and  N_9 
REMARK       I    between atoms: N_9  and  C_10 
REMARK       I    between atoms: C_10  and  N_12 
REMARK    4  A    between atoms: N_12  and  C_13 
REMARK    5  A    between atoms: C_16  and  C_21 
REMARK    6  A    between atoms: C_18  and  O_19 
ROOT
HETATM    1  N   UNL     1       5.598  29.130  52.746  1.00  0.00    -0.339 N 
HETATM    2  C   UNL     1       5.658  27.754  52.701  1.00  0.00     0.321 C 
HETATM    3  O   UNL     1       4.812  27.089  52.114  1.00  0.00    -0.247 OA
HETATM    4  N   UNL     1       6.753  27.269  53.372  1.00  0.00    -0.306 N 
HETATM    5  H   UNL     1       6.077  29.595  53.501  1.00  0.00     0.164 HD
HETATM    6  H   UNL     1       7.346  27.933  53.851  1.00  0.00     0.171 HD
ENDROOT
BRANCH   4   7
HETATM    7  C   UNL     1       7.153  25.922  53.507  1.00  0.00     0.069 A 
HETATM    8  C   UNL     1       7.565  25.120  52.446  1.00  0.00     0.033 A 
HETATM    9  C   UNL     1       7.954  23.792  52.668  1.00  0.00     0.015 A 
HETATM   10  C   UNL     1       7.949  23.240  53.957  1.00  0.00    -0.020 A 
HETATM   11  C   UNL     1       7.537  24.046  55.026  1.00  0.00     0.051 A 
HETATM   12  C   UNL     1       7.127  25.365  54.796  1.00  0.00     0.095 A 
BRANCH  10  13
HETATM   13  C   UNL     1       8.352  21.857  54.155  1.00  0.00     0.010 A 
HETATM   14  C   UNL     1       8.478  20.791  53.230  1.00  0.00     0.152 A 
HETATM   15  N   UNL     1       8.889  19.654  53.797  1.00  0.00    -0.187 NA
HETATM   16  N   UNL     1       9.038  19.987  55.089  1.00  0.00    -0.289 N 
HETATM   17  H   UNL     1       9.358  19.273  55.734  1.00  0.00     0.188 HD
HETATM   18  C   UNL     1       8.728  21.290  55.355  1.00  0.00     0.123 A 
ENDBRANCH  10  13
BRANCH  12  19
HETATM   19  O   UNL     1       6.715  26.163  55.840  1.00  0.00    -0.354 OA
HETATM   20  C   UNL     1       5.679  25.523  56.587  1.00  0.00     0.210 C 
ENDBRANCH  12  19
ENDBRANCH   4   7
BRANCH   1  21
HETATM   21  C   UNL     1       4.438  29.799  52.200  1.00  0.00     0.163 C 
BRANCH  21  22
HETATM   22  C   UNL     1       4.644  30.247  50.776  1.00  0.00    -0.038 A 
HETATM   23  C   UNL     1       3.986  29.604  49.719  1.00  0.00     0.009 A 
HETATM   24  C   UNL     1       4.130  30.066  48.412  1.00  0.00     0.003 A 
HETATM   25  C   UNL     1       4.919  31.186  48.153  1.00  0.00     0.037 A 
HETATM   26  C   UNL     1       5.565  31.856  49.195  1.00  0.00     0.068 A 
HETATM   27  C   UNL     1       5.431  31.381  50.501  1.00  0.00     0.045 A 
BRANCH  26  28
HETATM   28  O   UNL     1       6.287  32.951  48.808  1.00  0.00    -0.356 OA
HETATM   29  C   UNL     1       6.176  34.112  49.623  1.00  0.00     0.210 C 
ENDBRANCH  26  28
ENDBRANCH  21  22
ENDBRANCH   1  21
TORSDOF 6
ENDMDL
