MODEL 1
REMARK VINA RESULT:      -8.3      0.000      0.000
REMARK  3 active torsions:
REMARK  status: ('A' for Active; 'I' for Inactive)
REMARK    1  A    between atoms: C_9  and  C_10 
REMARK    2  A    between atoms: C_16  and  C_17 
REMARK       I    between atoms: C_17  and  N_18 
REMARK    3  A    between atoms: N_18  and  C_19 
ROOT
HETATM    1  C   UNL     1       4.988  25.981  51.892  1.00  0.00     0.070 C 
HETATM    2  C   UNL     1       4.932  26.978  53.020  1.00  0.00     0.037 A 
HETATM    3  N   UNL     1       4.367  28.210  52.712  1.00  0.00    -0.192 N 
HETATM    4  C   UNL     1       4.077  29.140  53.644  1.00  0.00     0.725 A 
HETATM    5  N   UNL     1       4.459  28.933  54.942  1.00  0.00    -0.082 N 
HETATM    6  N   UNL     1       3.959  29.892  55.756  1.00  0.00    -0.149 NA
HETATM    7  C   UNL     1       3.363  30.687  54.860  1.00  0.00     0.275 A 
HETATM    8  N   UNL     1       3.407  30.260  53.558  1.00  0.00    -0.054 NA
HETATM    9  C   UNL     1       5.187  27.752  55.406  1.00  0.00     0.221 A 
HETATM   10  C   UNL     1       5.342  26.731  54.288  1.00  0.00     0.064 A 
HETATM   11  H   UNL     1       4.008  28.344  51.770  1.00  0.00     0.184 HD
ENDROOT
BRANCH  10  12
HETATM   12  C   UNL     1       5.920  25.442  54.738  1.00  0.00     0.256 C 
HETATM   13  N   UNL     1       7.013  25.050  54.002  1.00  0.00    -0.322 N 
HETATM   14  H   UNL     1       7.352  25.706  53.307  1.00  0.00     0.169 HD
HETATM   15  O   UNL     1       5.428  24.877  55.706  1.00  0.00    -0.267 OA
BRANCH  13  16
HETATM   16  C   UNL     1       7.735  23.848  54.146  1.00  0.00     0.052 A 
HETATM   17  C   UNL     1       8.593  23.549  55.202  1.00  0.00     0.145 A 
HETATM   18  N   UNL     1       9.264  22.374  55.329  1.00  0.00    -0.271 NA
HETATM   19  C   UNL     1       9.070  21.452  54.363  1.00  0.00     0.116 A 
HETATM   20  C   UNL     1       8.239  21.650  53.275  1.00  0.00     0.021 A 
HETATM   21  C   UNL     1       7.568  22.867  53.165  1.00  0.00     0.032 A 
ENDBRANCH  13  16
ENDBRANCH  10  12
BRANCH   9  22
HETATM   22  C   UNL     1       6.528  28.191  55.988  1.00  0.00     0.064 A 
HETATM   23  N   UNL     1       7.478  28.675  55.135  1.00  0.00    -0.263 NA
HETATM   24  C   UNL     1       8.647  29.085  55.677  1.00  0.00     0.117 A 
HETATM   25  C   UNL     1       8.934  29.033  57.029  1.00  0.00     0.019 A 
HETATM   26  C   UNL     1       7.962  28.535  57.887  1.00  0.00     0.003 A 
HETATM   27  C   UNL     1       6.744  28.111  57.365  1.00  0.00     0.030 A 
ENDBRANCH   9  22
TORSDOF 3
ENDMDL
MODEL 2
REMARK VINA RESULT:      -8.1      2.128      7.041
REMARK  3 active torsions:
REMARK  status: ('A' for Active; 'I' for Inactive)
REMARK    1  A    between atoms: C_9  and  C_10 
REMARK    2  A    between atoms: C_16  and  C_17 
REMARK       I    between atoms: C_17  and  N_18 
REMARK    3  A    between atoms: N_18  and  C_19 
ROOT
HETATM    1  C   UNL     1       8.667  25.109  58.037  1.00  0.00     0.070 C 
HETATM    2  C   UNL     1       8.250  24.287  56.844  1.00  0.00     0.037 A 
HETATM    3  N   UNL     1       9.139  23.291  56.455  1.00  0.00    -0.192 N 
HETATM    4  C   UNL     1       8.838  22.358  55.531  1.00  0.00     0.725 A 
HETATM    5  N   UNL     1       7.657  22.446  54.844  1.00  0.00    -0.082 N 
HETATM    6  N   UNL     1       7.459  21.353  54.072  1.00  0.00    -0.149 NA
HETATM    7  C   UNL     1       8.605  20.695  54.279  1.00  0.00     0.275 A 
HETATM    8  N   UNL     1       9.473  21.273  55.169  1.00  0.00    -0.054 NA
HETATM    9  C   UNL     1       6.673  23.512  55.035  1.00  0.00     0.221 A 
HETATM   10  C   UNL     1       7.074  24.426  56.185  1.00  0.00     0.064 A 
HETATM   11  H   UNL     1       9.982  23.167  57.008  1.00  0.00     0.184 HD
ENDROOT
BRANCH  10  12
HETATM   12  C   UNL     1       6.037  25.423  56.540  1.00  0.00     0.256 C 
HETATM   13  N   UNL     1       6.236  26.649  55.951  1.00  0.00    -0.322 N 
HETATM   14  H   UNL     1       7.000  26.715  55.287  1.00  0.00     0.169 HD
HETATM   15  O   UNL     1       5.107  25.082  57.259  1.00  0.00    -0.267 OA
BRANCH  13  16
HETATM   16  C   UNL     1       5.461  27.811  56.144  1.00  0.00     0.052 A 
HETATM   17  C   UNL     1       5.466  28.596  57.293  1.00  0.00     0.145 A 
HETATM   18  N   UNL     1       4.723  29.724  57.448  1.00  0.00    -0.271 NA
HETATM   19  C   UNL     1       3.943  30.089  56.410  1.00  0.00     0.116 A 
HETATM   20  C   UNL     1       3.867  29.379  55.226  1.00  0.00     0.021 A 
HETATM   21  C   UNL     1       4.633  28.222  55.096  1.00  0.00     0.032 A 
ENDBRANCH  13  16
ENDBRANCH  10  12
BRANCH   9  22
HETATM   22  C   UNL     1       6.498  24.268  53.722  1.00  0.00     0.064 A 
HETATM   23  N   UNL     1       5.247  24.696  53.381  1.00  0.00    -0.263 NA
HETATM   24  C   UNL     1       5.120  25.389  52.227  1.00  0.00     0.117 A 
HETATM   25  C   UNL     1       6.174  25.676  51.377  1.00  0.00     0.019 A 
HETATM   26  C   UNL     1       7.441  25.231  51.731  1.00  0.00     0.003 A 
HETATM   27  C   UNL     1       7.610  24.522  52.916  1.00  0.00     0.030 A 
ENDBRANCH   9  22
TORSDOF 3
ENDMDL
MODEL 3
REMARK VINA RESULT:      -8.0      4.170      8.235
REMARK  3 active torsions:
REMARK  status: ('A' for Active; 'I' for Inactive)
REMARK    1  A    between atoms: C_9  and  C_10 
REMARK    2  A    between atoms: C_16  and  C_17 
REMARK       I    between atoms: C_17  and  N_18 
REMARK    3  A    between atoms: N_18  and  C_19 
ROOT
HETATM    1  C   UNL     1      10.162  30.388  58.025  1.00  0.00     0.070 C 
HETATM    2  C   UNL     1       8.871  29.683  57.699  1.00  0.00     0.037 A 
HETATM    3  N   UNL     1       8.981  28.568  56.875  1.00  0.00    -0.192 N 
HETATM    4  C   UNL     1       7.956  27.725  56.639  1.00  0.00     0.725 A 
HETATM    5  N   UNL     1       6.711  28.027  57.121  1.00  0.00    -0.082 N 
HETATM    6  N   UNL     1       5.847  27.006  56.915  1.00  0.00    -0.149 NA
HETATM    7  C   UNL     1       6.624  26.163  56.225  1.00  0.00     0.275 A 
HETATM    8  N   UNL     1       7.923  26.563  56.039  1.00  0.00    -0.054 NA
HETATM    9  C   UNL     1       6.397  29.233  57.887  1.00  0.00     0.221 A 
HETATM   10  C   UNL     1       7.657  30.033  58.189  1.00  0.00     0.064 A 
HETATM   11  H   UNL     1       9.912  28.290  56.577  1.00  0.00     0.184 HD
ENDROOT
BRANCH  10  12
HETATM   12  C   UNL     1       7.429  31.175  59.106  1.00  0.00     0.256 C 
HETATM   13  N   UNL     1       7.472  30.823  60.434  1.00  0.00    -0.322 N 
HETATM   14  H   UNL     1       7.734  29.865  60.642  1.00  0.00     0.169 HD
HETATM   15  O   UNL     1       7.270  32.293  58.634  1.00  0.00    -0.267 OA
BRANCH  13  16
HETATM   16  C   UNL     1       7.231  31.668  61.536  1.00  0.00     0.052 A 
HETATM   17  C   UNL     1       6.009  32.263  61.838  1.00  0.00     0.145 A 
HETATM   18  N   UNL     1       5.796  33.060  62.919  1.00  0.00    -0.271 NA
HETATM   19  C   UNL     1       6.846  33.271  63.738  1.00  0.00     0.116 A 
HETATM   20  C   UNL     1       8.100  32.727  63.527  1.00  0.00     0.021 A 
HETATM   21  C   UNL     1       8.293  31.919  62.408  1.00  0.00     0.032 A 
ENDBRANCH  13  16
ENDBRANCH  10  12
BRANCH   9  22
HETATM   22  C   UNL     1       5.355  30.048  57.127  1.00  0.00     0.064 A 
HETATM   23  N   UNL     1       5.664  30.488  55.872  1.00  0.00    -0.263 NA
HETATM   24  C   UNL     1       4.714  31.183  55.206  1.00  0.00     0.117 A 
HETATM   25  C   UNL     1       3.465  31.478  55.723  1.00  0.00     0.019 A 
HETATM   26  C   UNL     1       3.163  31.029  57.003  1.00  0.00     0.003 A 
HETATM   27  C   UNL     1       4.114  30.304  57.714  1.00  0.00     0.030 A 
ENDBRANCH   9  22
TORSDOF 3
ENDMDL
MODEL 4
REMARK VINA RESULT:      -7.9      1.977      5.419
REMARK  3 active torsions:
REMARK  status: ('A' for Active; 'I' for Inactive)
REMARK    1  A    between atoms: C_9  and  C_10 
REMARK    2  A    between atoms: C_16  and  C_17 
REMARK       I    between atoms: C_17  and  N_18 
REMARK    3  A    between atoms: N_18  and  C_19 
ROOT
HETATM    1  C   UNL     1       3.857  29.258  55.748  1.00  0.00     0.070 C 
HETATM    2  C   UNL     1       4.380  28.711  54.445  1.00  0.00     0.037 A 
HETATM    3  N   UNL     1       3.490  28.735  53.377  1.00  0.00    -0.192 N 
HETATM    4  C   UNL     1       3.854  28.455  52.110  1.00  0.00     0.725 A 
HETATM    5  N   UNL     1       5.123  28.006  51.858  1.00  0.00    -0.082 N 
HETATM    6  N   UNL     1       5.353  27.919  50.527  1.00  0.00    -0.149 NA
HETATM    7  C   UNL     1       4.148  28.246  50.048  1.00  0.00     0.275 A 
HETATM    8  N   UNL     1       3.204  28.586  50.982  1.00  0.00    -0.054 NA
HETATM    9  C   UNL     1       6.139  27.793  52.888  1.00  0.00     0.221 A 
HETATM   10  C   UNL     1       5.643  28.261  54.250  1.00  0.00     0.064 A 
HETATM   11  H   UNL     1       2.571  29.139  53.536  1.00  0.00     0.184 HD
ENDROOT
BRANCH  10  12
HETATM   12  C   UNL     1       6.686  28.229  55.303  1.00  0.00     0.256 C 
HETATM   13  N   UNL     1       7.487  29.346  55.309  1.00  0.00    -0.322 N 
HETATM   14  H   UNL     1       7.233  30.091  54.670  1.00  0.00     0.169 HD
HETATM   15  O   UNL     1       6.724  27.278  56.072  1.00  0.00    -0.267 OA
BRANCH  13  16
HETATM   16  C   UNL     1       8.598  29.579  56.145  1.00  0.00     0.052 A 
HETATM   17  C   UNL     1       9.929  29.537  55.739  1.00  0.00     0.145 A 
HETATM   18  N   UNL     1      10.984  29.785  56.559  1.00  0.00    -0.271 NA
HETATM   19  C   UNL     1      10.701  30.092  57.842  1.00  0.00     0.116 A 
HETATM   20  C   UNL     1       9.414  30.161  58.344  1.00  0.00     0.021 A 
HETATM   21  C   UNL     1       8.351  29.896  57.483  1.00  0.00     0.032 A 
ENDBRANCH  13  16
ENDBRANCH  10  12
BRANCH   9  22
HETATM   22  C   UNL     1       6.547  26.323  52.887  1.00  0.00     0.064 A 
HETATM   23  N   UNL     1       7.820  26.002  52.516  1.00  0.00    -0.263 NA
HETATM   24  C   UNL     1       8.168  24.696  52.551  1.00  0.00     0.117 A 
HETATM   25  C   UNL     1       7.311  23.677  52.928  1.00  0.00     0.019 A 
HETATM   26  C   UNL     1       6.015  24.014  53.300  1.00  0.00     0.003 A 
HETATM   27  C   UNL     1       5.626  25.350  53.283  1.00  0.00     0.030 A 
ENDBRANCH   9  22
TORSDOF 3
ENDMDL
MODEL 5
REMARK VINA RESULT:      -7.6      2.785      5.313
REMARK  3 active torsions:
REMARK  status: ('A' for Active; 'I' for Inactive)
REMARK    1  A    between atoms: C_9  and  C_10 
REMARK    2  A    between atoms: C_16  and  C_17 
REMARK       I    between atoms: C_17  and  N_18 
REMARK    3  A    between atoms: N_18  and  C_19 
ROOT
HETATM    1  C   UNL     1       4.293  29.169  54.627  1.00  0.00     0.070 C 
HETATM    2  C   UNL     1       4.640  29.332  53.170  1.00  0.00     0.037 A 
HETATM    3  N   UNL     1       4.601  30.633  52.680  1.00  0.00    -0.192 N 
HETATM    4  C   UNL     1       5.057  30.971  51.457  1.00  0.00     0.725 A 
HETATM    5  N   UNL     1       5.467  29.989  50.596  1.00  0.00    -0.082 N 
HETATM    6  N   UNL     1       6.024  30.519  49.482  1.00  0.00    -0.149 NA
HETATM    7  C   UNL     1       5.831  31.823  49.709  1.00  0.00     0.275 A 
HETATM    8  N   UNL     1       5.248  32.143  50.908  1.00  0.00    -0.054 NA
HETATM    9  C   UNL     1       5.439  28.559  50.906  1.00  0.00     0.221 A 
HETATM   10  C   UNL     1       5.024  28.322  52.352  1.00  0.00     0.064 A 
HETATM   11  H   UNL     1       4.375  31.378  53.333  1.00  0.00     0.184 HD
ENDROOT
BRANCH  10  12
HETATM   12  C   UNL     1       5.141  26.907  52.777  1.00  0.00     0.256 C 
HETATM   13  N   UNL     1       6.426  26.540  53.098  1.00  0.00    -0.322 N 
HETATM   14  H   UNL     1       7.123  27.276  53.095  1.00  0.00     0.169 HD
HETATM   15  O   UNL     1       4.128  26.222  52.846  1.00  0.00    -0.267 OA
BRANCH  13  16
HETATM   16  C   UNL     1       6.863  25.254  53.473  1.00  0.00     0.052 A 
HETATM   17  C   UNL     1       6.684  24.680  54.729  1.00  0.00     0.145 A 
HETATM   18  N   UNL     1       7.098  23.429  55.062  1.00  0.00    -0.271 NA
HETATM   19  C   UNL     1       7.716  22.714  54.099  1.00  0.00     0.116 A 
HETATM   20  C   UNL     1       7.942  23.191  52.820  1.00  0.00     0.021 A 
HETATM   21  C   UNL     1       7.513  24.480  52.508  1.00  0.00     0.032 A 
ENDBRANCH  13  16
ENDBRANCH  10  12
BRANCH   9  22
HETATM   22  C   UNL     1       4.525  27.852  49.911  1.00  0.00     0.064 A 
HETATM   23  N   UNL     1       3.272  28.357  49.708  1.00  0.00    -0.263 NA
HETATM   24  C   UNL     1       2.490  27.731  48.800  1.00  0.00     0.117 A 
HETATM   25  C   UNL     1       2.880  26.615  48.080  1.00  0.00     0.019 A 
HETATM   26  C   UNL     1       4.155  26.108  48.298  1.00  0.00     0.003 A 
HETATM   27  C   UNL     1       4.990  26.732  49.220  1.00  0.00     0.030 A 
ENDBRANCH   9  22
TORSDOF 3
ENDMDL
MODEL 6
REMARK VINA RESULT:      -7.5      8.545     11.726
REMARK  3 active torsions:
REMARK  status: ('A' for Active; 'I' for Inactive)
REMARK    1  A    between atoms: C_9  and  C_10 
REMARK    2  A    between atoms: C_16  and  C_17 
REMARK       I    between atoms: C_17  and  N_18 
REMARK    3  A    between atoms: N_18  and  C_19 
ROOT
HETATM    1  C   UNL     1       3.412  37.291  62.307  1.00  0.00     0.070 C 
HETATM    2  C   UNL     1       3.859  36.225  63.274  1.00  0.00     0.037 A 
HETATM    3  N   UNL     1       4.127  36.657  64.568  1.00  0.00    -0.192 N 
HETATM    4  C   UNL     1       4.358  35.810  65.591  1.00  0.00     0.725 A 
HETATM    5  N   UNL     1       4.458  34.467  65.345  1.00  0.00    -0.082 N 
HETATM    6  N   UNL     1       4.543  33.765  66.499  1.00  0.00    -0.149 NA
HETATM    7  C   UNL     1       4.578  34.761  67.390  1.00  0.00     0.275 A 
HETATM    8  N   UNL     1       4.461  36.028  66.877  1.00  0.00    -0.054 NA
HETATM    9  C   UNL     1       4.340  33.864  64.017  1.00  0.00     0.221 A 
HETATM   10  C   UNL     1       3.959  34.908  62.975  1.00  0.00     0.064 A 
HETATM   11  H   UNL     1       3.979  37.639  64.780  1.00  0.00     0.184 HD
ENDROOT
BRANCH  10  12
HETATM   12  C   UNL     1       3.658  34.332  61.643  1.00  0.00     0.256 C 
HETATM   13  N   UNL     1       4.732  34.351  60.786  1.00  0.00    -0.322 N 
HETATM   14  H   UNL     1       5.616  34.666  61.172  1.00  0.00     0.169 HD
HETATM   15  O   UNL     1       2.543  33.871  61.434  1.00  0.00    -0.267 OA
BRANCH  13  16
HETATM   16  C   UNL     1       4.741  33.936  59.439  1.00  0.00     0.052 A 
HETATM   17  C   UNL     1       5.207  32.706  58.982  1.00  0.00     0.145 A 
HETATM   18  N   UNL     1       5.186  32.320  57.678  1.00  0.00    -0.271 NA
HETATM   19  C   UNL     1       4.675  33.197  56.790  1.00  0.00     0.116 A 
HETATM   20  C   UNL     1       4.185  34.442  57.142  1.00  0.00     0.021 A 
HETATM   21  C   UNL     1       4.224  34.815  58.484  1.00  0.00     0.032 A 
ENDBRANCH  13  16
ENDBRANCH  10  12
BRANCH   9  22
HETATM   22  C   UNL     1       5.643  33.147  63.679  1.00  0.00     0.064 A 
HETATM   23  N   UNL     1       5.587  32.039  62.884  1.00  0.00    -0.263 NA
HETATM   24  C   UNL     1       6.757  31.437  62.574  1.00  0.00     0.117 A 
HETATM   25  C   UNL     1       7.993  31.872  63.019  1.00  0.00     0.019 A 
HETATM   26  C   UNL     1       8.038  32.999  63.831  1.00  0.00     0.003 A 
HETATM   27  C   UNL     1       6.853  33.648  64.164  1.00  0.00     0.030 A 
ENDBRANCH   9  22
TORSDOF 3
ENDMDL
MODEL 7
REMARK VINA RESULT:      -7.4      7.963     10.943
REMARK  3 active torsions:
REMARK  status: ('A' for Active; 'I' for Inactive)
REMARK    1  A    between atoms: C_9  and  C_10 
REMARK    2  A    between atoms: C_16  and  C_17 
REMARK       I    between atoms: C_17  and  N_18 
REMARK    3  A    between atoms: N_18  and  C_19 
ROOT
HETATM    1  C   UNL     1       6.951  33.499  64.813  1.00  0.00     0.070 C 
HETATM    2  C   UNL     1       6.270  34.527  63.947  1.00  0.00     0.037 A 
HETATM    3  N   UNL     1       6.146  35.797  64.499  1.00  0.00    -0.192 N 
HETATM    4  C   UNL     1       5.731  36.868  63.793  1.00  0.00     0.725 A 
HETATM    5  N   UNL     1       5.289  36.697  62.509  1.00  0.00    -0.082 N 
HETATM    6  N   UNL     1       5.054  37.889  61.912  1.00  0.00    -0.149 NA
HETATM    7  C   UNL     1       5.291  38.724  62.930  1.00  0.00     0.275 A 
HETATM    8  N   UNL     1       5.713  38.140  64.097  1.00  0.00    -0.054 NA
HETATM    9  C   UNL     1       5.223  35.404  61.827  1.00  0.00     0.221 A 
HETATM   10  C   UNL     1       5.832  34.303  62.684  1.00  0.00     0.064 A 
HETATM   11  H   UNL     1       6.543  35.953  65.422  1.00  0.00     0.184 HD
ENDROOT
BRANCH  10  12
HETATM   12  C   UNL     1       5.950  33.003  61.983  1.00  0.00     0.256 C 
HETATM   13  N   UNL     1       6.986  32.964  61.079  1.00  0.00    -0.322 N 
HETATM   14  H   UNL     1       7.596  33.774  61.052  1.00  0.00     0.169 HD
HETATM   15  O   UNL     1       5.181  32.097  62.277  1.00  0.00    -0.267 OA
BRANCH  13  16
HETATM   16  C   UNL     1       7.311  31.896  60.219  1.00  0.00     0.052 A 
HETATM   17  C   UNL     1       8.309  30.954  60.452  1.00  0.00     0.145 A 
HETATM   18  N   UNL     1       8.591  29.919  59.616  1.00  0.00    -0.271 NA
HETATM   19  C   UNL     1       7.843  29.816  58.499  1.00  0.00     0.116 A 
HETATM   20  C   UNL     1       6.828  30.699  58.175  1.00  0.00     0.021 A 
HETATM   21  C   UNL     1       6.564  31.754  59.047  1.00  0.00     0.032 A 
ENDBRANCH  13  16
ENDBRANCH  10  12
BRANCH   9  22
HETATM   22  C   UNL     1       3.774  35.116  61.448  1.00  0.00     0.064 A 
HETATM   23  N   UNL     1       2.874  34.886  62.449  1.00  0.00    -0.263 NA
HETATM   24  C   UNL     1       1.589  34.662  62.090  1.00  0.00     0.117 A 
HETATM   25  C   UNL     1       1.144  34.643  60.780  1.00  0.00     0.019 A 
HETATM   26  C   UNL     1       2.069  34.873  59.770  1.00  0.00     0.003 A 
HETATM   27  C   UNL     1       3.398  35.115  60.103  1.00  0.00     0.030 A 
ENDBRANCH   9  22
TORSDOF 3
ENDMDL
MODEL 8
REMARK VINA RESULT:      -7.4      2.012      6.765
REMARK  3 active torsions:
REMARK  status: ('A' for Active; 'I' for Inactive)
REMARK    1  A    between atoms: C_9  and  C_10 
REMARK    2  A    between atoms: C_16  and  C_17 
REMARK       I    between atoms: C_17  and  N_18 
REMARK    3  A    between atoms: N_18  and  C_19 
ROOT
HETATM    1  C   UNL     1       7.430  29.041  57.516  1.00  0.00     0.070 C 
HETATM    2  C   UNL     1       7.322  27.636  56.983  1.00  0.00     0.037 A 
HETATM    3  N   UNL     1       8.311  26.752  57.401  1.00  0.00    -0.192 N 
HETATM    4  C   UNL     1       8.259  25.426  57.166  1.00  0.00     0.725 A 
HETATM    5  N   UNL     1       7.261  24.921  56.378  1.00  0.00    -0.082 N 
HETATM    6  N   UNL     1       7.281  23.568  56.373  1.00  0.00    -0.149 NA
HETATM    7  C   UNL     1       8.374  23.337  57.108  1.00  0.00     0.275 A 
HETATM    8  N   UNL     1       8.998  24.446  57.617  1.00  0.00    -0.054 NA
HETATM    9  C   UNL     1       6.222  25.735  55.745  1.00  0.00     0.221 A 
HETATM   10  C   UNL     1       6.321  27.188  56.188  1.00  0.00     0.064 A 
HETATM   11  H   UNL     1       9.012  27.099  58.050  1.00  0.00     0.184 HD
ENDROOT
BRANCH  10  12
HETATM   12  C   UNL     1       5.195  28.029  55.718  1.00  0.00     0.256 C 
HETATM   13  N   UNL     1       5.436  28.632  54.506  1.00  0.00    -0.322 N 
HETATM   14  H   UNL     1       6.296  28.376  54.034  1.00  0.00     0.169 HD
HETATM   15  O   UNL     1       4.174  28.085  56.390  1.00  0.00    -0.267 OA
BRANCH  13  16
HETATM   16  C   UNL     1       4.588  29.535  53.833  1.00  0.00     0.052 A 
HETATM   17  C   UNL     1       4.269  30.817  54.276  1.00  0.00     0.145 A 
HETATM   18  N   UNL     1       3.464  31.678  53.599  1.00  0.00    -0.271 NA
HETATM   19  C   UNL     1       2.956  31.246  52.427  1.00  0.00     0.116 A 
HETATM   20  C   UNL     1       3.212  29.993  51.900  1.00  0.00     0.021 A 
HETATM   21  C   UNL     1       4.035  29.127  52.617  1.00  0.00     0.032 A 
ENDBRANCH  13  16
ENDBRANCH  10  12
BRANCH   9  22
HETATM   22  C   UNL     1       6.319  25.576  54.231  1.00  0.00     0.064 A 
HETATM   23  N   UNL     1       5.164  25.438  53.517  1.00  0.00    -0.263 NA
HETATM   24  C   UNL     1       5.273  25.328  52.174  1.00  0.00     0.117 A 
HETATM   25  C   UNL     1       6.477  25.339  51.492  1.00  0.00     0.019 A 
HETATM   26  C   UNL     1       7.647  25.476  52.229  1.00  0.00     0.003 A 
HETATM   27  C   UNL     1       7.571  25.599  53.613  1.00  0.00     0.030 A 
ENDBRANCH   9  22
TORSDOF 3
ENDMDL
MODEL 9
REMARK VINA RESULT:      -7.3      2.440      5.366
REMARK  3 active torsions:
REMARK  status: ('A' for Active; 'I' for Inactive)
REMARK    1  A    between atoms: C_9  and  C_10 
REMARK    2  A    between atoms: C_16  and  C_17 
REMARK       I    between atoms: C_17  and  N_18 
REMARK    3  A    between atoms: N_18  and  C_19 
ROOT
HETATM    1  C   UNL     1       5.685  24.977  54.642  1.00  0.00     0.070 C 
HETATM    2  C   UNL     1       6.011  26.357  55.153  1.00  0.00     0.037 A 
HETATM    3  N   UNL     1       6.738  26.408  56.337  1.00  0.00    -0.192 N 
HETATM    4  C   UNL     1       7.265  27.547  56.827  1.00  0.00     0.725 A 
HETATM    5  N   UNL     1       6.981  28.739  56.215  1.00  0.00    -0.082 N 
HETATM    6  N   UNL     1       7.707  29.747  56.751  1.00  0.00    -0.149 NA
HETATM    7  C   UNL     1       8.336  29.099  57.738  1.00  0.00     0.275 A 
HETATM    8  N   UNL     1       8.097  27.751  57.815  1.00  0.00    -0.054 NA
HETATM    9  C   UNL     1       6.118  28.874  55.041  1.00  0.00     0.221 A 
HETATM   10  C   UNL     1       5.691  27.510  54.517  1.00  0.00     0.064 A 
HETATM   11  H   UNL     1       7.022  25.527  56.756  1.00  0.00     0.184 HD
ENDROOT
BRANCH  10  12
HETATM   12  C   UNL     1       4.957  27.573  53.231  1.00  0.00     0.256 C 
HETATM   13  N   UNL     1       5.780  27.533  52.131  1.00  0.00    -0.322 N 
HETATM   14  H   UNL     1       6.767  27.380  52.308  1.00  0.00     0.169 HD
HETATM   15  O   UNL     1       3.733  27.612  53.247  1.00  0.00    -0.267 OA
BRANCH  13  16
HETATM   16  C   UNL     1       5.387  27.638  50.782  1.00  0.00     0.052 A 
HETATM   17  C   UNL     1       5.462  28.796  50.012  1.00  0.00     0.145 A 
HETATM   18  N   UNL     1       5.094  28.868  48.706  1.00  0.00    -0.271 NA
HETATM   19  C   UNL     1       4.634  27.735  48.138  1.00  0.00     0.116 A 
HETATM   20  C   UNL     1       4.521  26.533  48.814  1.00  0.00     0.021 A 
HETATM   21  C   UNL     1       4.898  26.489  50.155  1.00  0.00     0.032 A 
ENDBRANCH  13  16
ENDBRANCH  10  12
BRANCH   9  22
HETATM   22  C   UNL     1       4.929  29.762  55.398  1.00  0.00     0.064 A 
HETATM   23  N   UNL     1       4.610  30.789  54.557  1.00  0.00    -0.263 NA
HETATM   24  C   UNL     1       3.535  31.544  54.879  1.00  0.00     0.117 A 
HETATM   25  C   UNL     1       2.757  31.342  56.004  1.00  0.00     0.019 A 
HETATM   26  C   UNL     1       3.093  30.297  56.855  1.00  0.00     0.003 A 
HETATM   27  C   UNL     1       4.188  29.494  56.551  1.00  0.00     0.030 A 
ENDBRANCH   9  22
TORSDOF 3
ENDMDL
MODEL 10
REMARK VINA RESULT:      -6.9      3.176      6.156
REMARK  3 active torsions:
REMARK  status: ('A' for Active; 'I' for Inactive)
REMARK    1  A    between atoms: C_9  and  C_10 
REMARK    2  A    between atoms: C_16  and  C_17 
REMARK       I    between atoms: C_17  and  N_18 
REMARK    3  A    between atoms: N_18  and  C_19 
ROOT
HETATM    1  C   UNL     1       6.348  25.579  51.770  1.00  0.00     0.070 C 
HETATM    2  C   UNL     1       5.510  26.550  50.978  1.00  0.00     0.037 A 
HETATM    3  N   UNL     1       5.428  26.305  49.612  1.00  0.00    -0.192 N 
HETATM    4  C   UNL     1       4.581  26.964  48.797  1.00  0.00     0.725 A 
HETATM    5  N   UNL     1       3.847  28.009  49.291  1.00  0.00    -0.082 N 
HETATM    6  N   UNL     1       2.952  28.451  48.377  1.00  0.00    -0.149 NA
HETATM    7  C   UNL     1       3.270  27.682  47.330  1.00  0.00     0.275 A 
HETATM    8  N   UNL     1       4.257  26.755  47.547  1.00  0.00    -0.054 NA
HETATM    9  C   UNL     1       3.921  28.484  50.673  1.00  0.00     0.221 A 
HETATM   10  C   UNL     1       4.815  27.583  51.513  1.00  0.00     0.064 A 
HETATM   11  H   UNL     1       5.906  25.485  49.249  1.00  0.00     0.184 HD
ENDROOT
BRANCH  10  12
HETATM   12  C   UNL     1       4.796  27.911  52.959  1.00  0.00     0.256 C 
HETATM   13  N   UNL     1       6.010  28.347  53.434  1.00  0.00    -0.322 N 
HETATM   14  H   UNL     1       6.745  28.478  52.748  1.00  0.00     0.169 HD
HETATM   15  O   UNL     1       3.744  27.812  53.576  1.00  0.00    -0.267 OA
BRANCH  13  16
HETATM   16  C   UNL     1       6.322  28.671  54.769  1.00  0.00     0.052 A 
HETATM   17  C   UNL     1       5.678  29.642  55.531  1.00  0.00     0.145 A 
HETATM   18  N   UNL     1       5.985  29.924  56.825  1.00  0.00    -0.271 NA
HETATM   19  C   UNL     1       6.975  29.203  57.388  1.00  0.00     0.116 A 
HETATM   20  C   UNL     1       7.677  28.216  56.719  1.00  0.00     0.021 A 
HETATM   21  C   UNL     1       7.347  27.952  55.391  1.00  0.00     0.032 A 
ENDBRANCH  13  16
ENDBRANCH  10  12
BRANCH   9  22
HETATM   22  C   UNL     1       4.386  29.937  50.675  1.00  0.00     0.064 A 
HETATM   23  N   UNL     1       3.644  30.856  51.359  1.00  0.00    -0.263 NA
HETATM   24  C   UNL     1       4.093  32.132  51.371  1.00  0.00     0.117 A 
HETATM   25  C   UNL     1       5.242  32.554  50.727  1.00  0.00     0.019 A 
HETATM   26  C   UNL     1       5.987  31.611  50.030  1.00  0.00     0.003 A 
HETATM   27  C   UNL     1       5.560  30.287  50.004  1.00  0.00     0.030 A 
ENDBRANCH   9  22
TORSDOF 3
ENDMDL
