MODEL 1
REMARK VINA RESULT:     -10.3      0.000      0.000
REMARK  8 active torsions:
REMARK  status: ('A' for Active; 'I' for Inactive)
REMARK    1  A    between atoms: C_2  and  C_3 
REMARK    2  A    between atoms: C_3  and  C_4 
REMARK    3  A    between atoms: C_7  and  N_8 
REMARK       I    between atoms: N_8  and  C_9 
REMARK    4  A    between atoms: C_9  and  C_10 
REMARK    5  A    between atoms: C_13  and  N_14 
REMARK       I    between atoms: N_14  and  C_15 
REMARK    6  A    between atoms: C_15  and  C_16 
REMARK    7  A    between atoms: C_16  and  C_17 
REMARK    8  A    between atoms: C_19  and  N_20 
ROOT
HETATM    1  C   UNL     1       8.278  30.348  59.012  1.00  0.00     0.032 A 
HETATM    2  C   UNL     1       9.106  30.511  60.128  1.00  0.00     0.019 A 
HETATM    3  C   UNL     1       8.742  31.391  61.157  1.00  0.00     0.030 A 
HETATM    4  C   UNL     1       7.559  32.128  61.081  1.00  0.00     0.034 A 
HETATM    5  C   UNL     1       6.757  32.000  59.942  1.00  0.00     0.030 A 
HETATM    6  C   UNL     1       7.114  31.118  58.916  1.00  0.00     0.019 A 
ENDROOT
BRANCH   4   7
HETATM    7  N   UNL     1       7.105  33.005  62.089  1.00  0.00    -0.327 N 
HETATM    8  C   UNL     1       6.155  32.748  63.061  1.00  0.00     0.223 C 
HETATM    9  O   UNL     1       5.524  31.706  63.202  1.00  0.00    -0.273 OA
HETATM   10  H   UNL     1       7.519  33.929  62.082  1.00  0.00     0.169 HD
BRANCH   8  11
HETATM   11  C   UNL     1       5.899  33.940  63.962  1.00  0.00     0.128 C 
BRANCH  11  12
HETATM   12  C   UNL     1       5.564  33.473  65.371  1.00  0.00     0.158 C 
HETATM   13  S   UNL     1       6.835  33.985  66.563  1.00  0.00    -0.077 SA
HETATM   14  C   UNL     1       5.598  34.551  67.672  1.00  0.00     0.168 C 
HETATM   15  N   UNL     1       4.394  34.561  67.200  1.00  0.00    -0.189 NA
HETATM   16  C   UNL     1       4.303  34.127  65.898  1.00  0.00     0.260 C 
HETATM   17  O   UNL     1       3.286  34.235  65.223  1.00  0.00    -0.270 OA
BRANCH  14  18
HETATM   18  N   UNL     1       5.942  34.915  68.956  1.00  0.00    -0.360 N 
HETATM   19  C   UNL     1       5.579  34.149  70.152  1.00  0.00     0.125 C 
HETATM   20  C   UNL     1       6.743  33.234  70.536  1.00  0.00     0.020 C 
HETATM   21  C   UNL     1       8.031  34.036  70.738  1.00  0.00     0.003 C 
HETATM   22  C   UNL     1       8.323  34.927  69.530  1.00  0.00     0.020 C 
HETATM   23  C   UNL     1       7.109  35.782  69.173  1.00  0.00     0.125 C 
ENDBRANCH  14  18
ENDBRANCH  11  12
ENDBRANCH   8  11
ENDBRANCH   4   7
BRANCH   1  24
HETATM   24  C   UNL     1       8.560  29.371  57.915  1.00  0.00     0.256 C 
HETATM   25  N   UNL     1       7.600  28.393  57.723  1.00  0.00    -0.323 N 
HETATM   26  H   UNL     1       6.813  28.376  58.355  1.00  0.00     0.169 HD
HETATM   27  O   UNL     1       9.579  29.530  57.253  1.00  0.00    -0.267 OA
BRANCH  25  28
HETATM   28  C   UNL     1       7.525  27.465  56.661  1.00  0.00     0.035 A 
HETATM   29  C   UNL     1       7.215  27.806  55.345  1.00  0.00     0.030 A 
HETATM   30  C   UNL     1       7.078  26.814  54.364  1.00  0.00     0.010 A 
HETATM   31  C   UNL     1       7.274  25.462  54.671  1.00  0.00    -0.054 A 
HETATM   32  C   UNL     1       7.605  25.128  55.992  1.00  0.00     0.010 A 
HETATM   33  C   UNL     1       7.724  26.117  56.974  1.00  0.00     0.030 A 
BRANCH  31  34
HETATM   34  C   UNL     1       7.073  24.350  53.653  1.00  0.00     0.014 C 
HETATM   35  C   UNL     1       7.887  24.673  52.393  1.00  0.00     0.015 C 
BRANCH  34  36
HETATM   36  C   UNL     1       7.408  22.925  54.140  1.00  0.00     0.004 C 
HETATM   37  C   UNL     1       8.118  22.080  53.090  1.00  0.00     0.006 C 
ENDBRANCH  34  36
ENDBRANCH  31  34
ENDBRANCH  25  28
ENDBRANCH   1  24
TORSDOF 8
ENDMDL
MODEL 2
REMARK VINA RESULT:     -10.1      3.912     13.561
REMARK  8 active torsions:
REMARK  status: ('A' for Active; 'I' for Inactive)
REMARK    1  A    between atoms: C_2  and  C_3 
REMARK    2  A    between atoms: C_3  and  C_4 
REMARK    3  A    between atoms: C_7  and  N_8 
REMARK       I    between atoms: N_8  and  C_9 
REMARK    4  A    between atoms: C_9  and  C_10 
REMARK    5  A    between atoms: C_13  and  N_14 
REMARK       I    between atoms: N_14  and  C_15 
REMARK    6  A    between atoms: C_15  and  C_16 
REMARK    7  A    between atoms: C_16  and  C_17 
REMARK    8  A    between atoms: C_19  and  N_20 
ROOT
HETATM    1  C   UNL     1       7.348  30.971  58.695  1.00  0.00     0.032 A 
HETATM    2  C   UNL     1       8.251  29.938  58.418  1.00  0.00     0.019 A 
HETATM    3  C   UNL     1       8.035  29.083  57.328  1.00  0.00     0.030 A 
HETATM    4  C   UNL     1       6.914  29.237  56.510  1.00  0.00     0.034 A 
HETATM    5  C   UNL     1       5.989  30.240  56.818  1.00  0.00     0.030 A 
HETATM    6  C   UNL     1       6.203  31.098  57.901  1.00  0.00     0.019 A 
ENDROOT
BRANCH   4   7
HETATM    7  N   UNL     1       6.645  28.442  55.375  1.00  0.00    -0.327 N 
HETATM    8  C   UNL     1       5.688  27.452  55.251  1.00  0.00     0.223 C 
HETATM    9  O   UNL     1       4.911  27.079  56.124  1.00  0.00    -0.273 OA
HETATM   10  H   UNL     1       7.235  28.618  54.571  1.00  0.00     0.169 HD
BRANCH   8  11
HETATM   11  C   UNL     1       5.704  26.787  53.889  1.00  0.00     0.128 C 
BRANCH  11  12
HETATM   12  C   UNL     1       7.069  26.173  53.618  1.00  0.00     0.158 C 
HETATM   13  S   UNL     1       7.602  25.100  54.983  1.00  0.00    -0.077 SA
HETATM   14  C   UNL     1       8.067  23.847  53.845  1.00  0.00     0.168 C 
HETATM   15  N   UNL     1       7.723  24.060  52.616  1.00  0.00    -0.189 NA
HETATM   16  C   UNL     1       7.042  25.239  52.426  1.00  0.00     0.260 C 
HETATM   17  O   UNL     1       6.479  25.527  51.376  1.00  0.00    -0.270 OA
BRANCH  14  18
HETATM   18  N   UNL     1       8.778  22.751  54.284  1.00  0.00    -0.360 N 
HETATM   19  C   UNL     1       9.005  22.431  55.697  1.00  0.00     0.125 C 
HETATM   20  C   UNL     1       7.952  21.423  56.160  1.00  0.00     0.020 C 
HETATM   21  C   UNL     1       7.963  20.171  55.280  1.00  0.00     0.003 C 
HETATM   22  C   UNL     1       7.854  20.535  53.798  1.00  0.00     0.020 C 
HETATM   23  C   UNL     1       8.903  21.575  53.411  1.00  0.00     0.125 C 
ENDBRANCH  14  18
ENDBRANCH  11  12
ENDBRANCH   8  11
ENDBRANCH   4   7
BRANCH   1  24
HETATM   24  C   UNL     1       7.553  31.969  59.789  1.00  0.00     0.256 C 
HETATM   25  N   UNL     1       6.584  31.981  60.778  1.00  0.00    -0.323 N 
HETATM   26  H   UNL     1       5.795  31.361  60.671  1.00  0.00     0.169 HD
HETATM   27  O   UNL     1       8.564  32.661  59.754  1.00  0.00    -0.267 OA
BRANCH  25  28
HETATM   28  C   UNL     1       6.619  32.686  62.001  1.00  0.00     0.035 A 
HETATM   29  C   UNL     1       7.512  32.414  63.035  1.00  0.00     0.030 A 
HETATM   30  C   UNL     1       7.427  33.106  64.252  1.00  0.00     0.010 A 
HETATM   31  C   UNL     1       6.465  34.103  64.451  1.00  0.00    -0.054 A 
HETATM   32  C   UNL     1       5.581  34.385  63.399  1.00  0.00     0.010 A 
HETATM   33  C   UNL     1       5.655  33.683  62.192  1.00  0.00     0.030 A 
BRANCH  31  34
HETATM   34  C   UNL     1       6.297  34.831  65.776  1.00  0.00     0.014 C 
HETATM   35  C   UNL     1       4.910  35.487  65.813  1.00  0.00     0.015 C 
BRANCH  34  36
HETATM   36  C   UNL     1       6.503  33.975  67.043  1.00  0.00     0.004 C 
HETATM   37  C   UNL     1       5.631  34.410  68.214  1.00  0.00     0.006 C 
ENDBRANCH  34  36
ENDBRANCH  31  34
ENDBRANCH  25  28
ENDBRANCH   1  24
TORSDOF 8
ENDMDL
MODEL 3
REMARK VINA RESULT:      -9.9      2.972      4.129
REMARK  8 active torsions:
REMARK  status: ('A' for Active; 'I' for Inactive)
REMARK    1  A    between atoms: C_2  and  C_3 
REMARK    2  A    between atoms: C_3  and  C_4 
REMARK    3  A    between atoms: C_7  and  N_8 
REMARK       I    between atoms: N_8  and  C_9 
REMARK    4  A    between atoms: C_9  and  C_10 
REMARK    5  A    between atoms: C_13  and  N_14 
REMARK       I    between atoms: N_14  and  C_15 
REMARK    6  A    between atoms: C_15  and  C_16 
REMARK    7  A    between atoms: C_16  and  C_17 
REMARK    8  A    between atoms: C_19  and  N_20 
ROOT
HETATM    1  C   UNL     1       7.431  29.585  57.705  1.00  0.00     0.032 A 
HETATM    2  C   UNL     1       7.872  30.405  58.749  1.00  0.00     0.019 A 
HETATM    3  C   UNL     1       7.156  31.561  59.091  1.00  0.00     0.030 A 
HETATM    4  C   UNL     1       6.003  31.921  58.391  1.00  0.00     0.034 A 
HETATM    5  C   UNL     1       5.592  31.124  57.316  1.00  0.00     0.030 A 
HETATM    6  C   UNL     1       6.300  29.967  56.975  1.00  0.00     0.019 A 
ENDROOT
BRANCH   4   7
HETATM    7  N   UNL     1       5.208  33.046  58.696  1.00  0.00    -0.327 N 
HETATM    8  C   UNL     1       3.827  33.121  58.703  1.00  0.00     0.223 C 
HETATM    9  O   UNL     1       3.048  32.215  58.424  1.00  0.00    -0.273 OA
HETATM   10  H   UNL     1       5.717  33.891  58.921  1.00  0.00     0.169 HD
BRANCH   8  11
HETATM   11  C   UNL     1       3.316  34.504  59.054  1.00  0.00     0.128 C 
BRANCH  11  12
HETATM   12  C   UNL     1       3.227  34.667  60.564  1.00  0.00     0.158 C 
HETATM   13  S   UNL     1       3.516  33.093  61.424  1.00  0.00    -0.077 SA
HETATM   14  C   UNL     1       4.621  33.879  62.538  1.00  0.00     0.168 C 
HETATM   15  N   UNL     1       4.923  35.103  62.246  1.00  0.00    -0.189 NA
HETATM   16  C   UNL     1       4.321  35.567  61.101  1.00  0.00     0.260 C 
HETATM   17  O   UNL     1       4.622  36.628  60.566  1.00  0.00    -0.270 OA
BRANCH  14  18
HETATM   18  N   UNL     1       5.075  33.200  63.647  1.00  0.00    -0.360 N 
HETATM   19  C   UNL     1       6.313  32.415  63.679  1.00  0.00     0.125 C 
HETATM   20  C   UNL     1       7.442  33.276  64.249  1.00  0.00     0.020 C 
HETATM   21  C   UNL     1       7.073  33.823  65.630  1.00  0.00     0.003 C 
HETATM   22  C   UNL     1       5.717  34.529  65.603  1.00  0.00     0.020 C 
HETATM   23  C   UNL     1       4.645  33.633  64.985  1.00  0.00     0.125 C 
ENDBRANCH  14  18
ENDBRANCH  11  12
ENDBRANCH   8  11
ENDBRANCH   4   7
BRANCH   1  24
HETATM   24  C   UNL     1       8.097  28.296  57.335  1.00  0.00     0.256 C 
HETATM   25  N   UNL     1       7.270  27.187  57.288  1.00  0.00    -0.323 N 
HETATM   26  H   UNL     1       6.303  27.311  57.549  1.00  0.00     0.169 HD
HETATM   27  O   UNL     1       9.292  28.325  57.065  1.00  0.00    -0.267 OA
BRANCH  25  28
HETATM   28  C   UNL     1       7.591  25.901  56.803  1.00  0.00     0.035 A 
HETATM   29  C   UNL     1       8.379  24.980  57.491  1.00  0.00     0.030 A 
HETATM   30  C   UNL     1       8.722  23.754  56.904  1.00  0.00     0.010 A 
HETATM   31  C   UNL     1       8.263  23.411  55.627  1.00  0.00    -0.054 A 
HETATM   32  C   UNL     1       7.455  24.334  54.947  1.00  0.00     0.010 A 
HETATM   33  C   UNL     1       7.128  25.564  55.527  1.00  0.00     0.030 A 
BRANCH  31  34
HETATM   34  C   UNL     1       8.664  22.121  54.928  1.00  0.00     0.014 C 
HETATM   35  C   UNL     1       8.026  20.935  55.665  1.00  0.00     0.015 C 
BRANCH  34  36
HETATM   36  C   UNL     1       8.331  22.041  53.424  1.00  0.00     0.004 C 
HETATM   37  C   UNL     1       7.914  20.648  52.971  1.00  0.00     0.006 C 
ENDBRANCH  34  36
ENDBRANCH  31  34
ENDBRANCH  25  28
ENDBRANCH   1  24
TORSDOF 8
ENDMDL
MODEL 4
REMARK VINA RESULT:      -9.8      2.813      3.940
REMARK  8 active torsions:
REMARK  status: ('A' for Active; 'I' for Inactive)
REMARK    1  A    between atoms: C_2  and  C_3 
REMARK    2  A    between atoms: C_3  and  C_4 
REMARK    3  A    between atoms: C_7  and  N_8 
REMARK       I    between atoms: N_8  and  C_9 
REMARK    4  A    between atoms: C_9  and  C_10 
REMARK    5  A    between atoms: C_13  and  N_14 
REMARK       I    between atoms: N_14  and  C_15 
REMARK    6  A    between atoms: C_15  and  C_16 
REMARK    7  A    between atoms: C_16  and  C_17 
REMARK    8  A    between atoms: C_19  and  N_20 
ROOT
HETATM    1  C   UNL     1       7.530  29.433  57.736  1.00  0.00     0.032 A 
HETATM    2  C   UNL     1       7.891  30.149  58.882  1.00  0.00     0.019 A 
HETATM    3  C   UNL     1       7.187  31.307  59.244  1.00  0.00     0.030 A 
HETATM    4  C   UNL     1       6.127  31.772  58.464  1.00  0.00     0.034 A 
HETATM    5  C   UNL     1       5.800  31.081  57.292  1.00  0.00     0.030 A 
HETATM    6  C   UNL     1       6.495  29.922  56.931  1.00  0.00     0.019 A 
ENDROOT
BRANCH   4   7
HETATM    7  N   UNL     1       5.347  32.905  58.779  1.00  0.00    -0.327 N 
HETATM    8  C   UNL     1       4.033  32.927  59.210  1.00  0.00     0.223 C 
HETATM    9  O   UNL     1       3.307  31.953  59.376  1.00  0.00    -0.273 OA
HETATM   10  H   UNL     1       5.809  33.798  58.661  1.00  0.00     0.169 HD
BRANCH   8  11
HETATM   11  C   UNL     1       3.509  34.332  59.427  1.00  0.00     0.128 C 
BRANCH  11  12
HETATM   12  C   UNL     1       3.108  34.528  60.881  1.00  0.00     0.158 C 
HETATM   13  S   UNL     1       4.421  33.985  62.014  1.00  0.00    -0.077 SA
HETATM   14  C   UNL     1       4.256  35.463  62.947  1.00  0.00     0.168 C 
HETATM   15  N   UNL     1       3.482  36.361  62.429  1.00  0.00    -0.189 NA
HETATM   16  C   UNL     1       2.930  35.992  61.226  1.00  0.00     0.260 C 
HETATM   17  O   UNL     1       2.321  36.770  60.500  1.00  0.00    -0.270 OA
BRANCH  14  18
HETATM   18  N   UNL     1       4.904  35.586  64.157  1.00  0.00    -0.360 N 
HETATM   19  C   UNL     1       4.462  36.472  65.239  1.00  0.00     0.125 C 
HETATM   20  C   UNL     1       3.621  35.670  66.234  1.00  0.00     0.020 C 
HETATM   21  C   UNL     1       4.397  34.462  66.763  1.00  0.00     0.003 C 
HETATM   22  C   UNL     1       4.959  33.620  65.617  1.00  0.00     0.020 C 
HETATM   23  C   UNL     1       5.751  34.485  64.638  1.00  0.00     0.125 C 
ENDBRANCH  14  18
ENDBRANCH  11  12
ENDBRANCH   8  11
ENDBRANCH   4   7
BRANCH   1  24
HETATM   24  C   UNL     1       8.181  28.149  57.331  1.00  0.00     0.256 C 
HETATM   25  N   UNL     1       7.343  27.049  57.258  1.00  0.00    -0.323 N 
HETATM   26  H   UNL     1       6.378  27.175  57.526  1.00  0.00     0.169 HD
HETATM   27  O   UNL     1       9.375  28.172  57.057  1.00  0.00    -0.267 OA
BRANCH  25  28
HETATM   28  C   UNL     1       7.650  25.773  56.739  1.00  0.00     0.035 A 
HETATM   29  C   UNL     1       8.292  24.769  57.461  1.00  0.00     0.030 A 
HETATM   30  C   UNL     1       8.637  23.556  56.847  1.00  0.00     0.010 A 
HETATM   31  C   UNL     1       8.323  23.311  55.505  1.00  0.00    -0.054 A 
HETATM   32  C   UNL     1       7.659  24.318  54.789  1.00  0.00     0.010 A 
HETATM   33  C   UNL     1       7.332  25.534  55.397  1.00  0.00     0.030 A 
BRANCH  31  34
HETATM   34  C   UNL     1       8.735  22.037  54.783  1.00  0.00     0.014 C 
HETATM   35  C   UNL     1       8.317  20.827  55.629  1.00  0.00     0.015 C 
BRANCH  34  36
HETATM   36  C   UNL     1       8.201  21.878  53.344  1.00  0.00     0.004 C 
HETATM   37  C   UNL     1       8.265  20.445  52.831  1.00  0.00     0.006 C 
ENDBRANCH  34  36
ENDBRANCH  31  34
ENDBRANCH  25  28
ENDBRANCH   1  24
TORSDOF 8
ENDMDL
MODEL 5
REMARK VINA RESULT:      -9.8      4.449     14.147
REMARK  8 active torsions:
REMARK  status: ('A' for Active; 'I' for Inactive)
REMARK    1  A    between atoms: C_2  and  C_3 
REMARK    2  A    between atoms: C_3  and  C_4 
REMARK    3  A    between atoms: C_7  and  N_8 
REMARK       I    between atoms: N_8  and  C_9 
REMARK    4  A    between atoms: C_9  and  C_10 
REMARK    5  A    between atoms: C_13  and  N_14 
REMARK       I    between atoms: N_14  and  C_15 
REMARK    6  A    between atoms: C_15  and  C_16 
REMARK    7  A    between atoms: C_16  and  C_17 
REMARK    8  A    between atoms: C_19  and  N_20 
ROOT
HETATM    1  C   UNL     1       8.107  30.897  58.729  1.00  0.00     0.032 A 
HETATM    2  C   UNL     1       9.222  30.128  58.378  1.00  0.00     0.019 A 
HETATM    3  C   UNL     1       9.148  29.220  57.312  1.00  0.00     0.030 A 
HETATM    4  C   UNL     1       7.963  29.057  56.593  1.00  0.00     0.034 A 
HETATM    5  C   UNL     1       6.836  29.792  56.977  1.00  0.00     0.030 A 
HETATM    6  C   UNL     1       6.907  30.703  58.036  1.00  0.00     0.019 A 
ENDROOT
BRANCH   4   7
HETATM    7  N   UNL     1       7.818  28.193  55.487  1.00  0.00    -0.327 N 
HETATM    8  C   UNL     1       7.304  26.909  55.486  1.00  0.00     0.223 C 
HETATM    9  O   UNL     1       6.898  26.288  56.463  1.00  0.00    -0.273 OA
HETATM   10  H   UNL     1       8.143  28.561  54.601  1.00  0.00     0.169 HD
BRANCH   8  11
HETATM   11  C   UNL     1       7.328  26.267  54.113  1.00  0.00     0.128 C 
BRANCH  11  12
HETATM   12  C   UNL     1       5.937  26.286  53.497  1.00  0.00     0.158 C 
HETATM   13  S   UNL     1       5.670  27.779  52.497  1.00  0.00    -0.077 SA
HETATM   14  C   UNL     1       5.003  26.813  51.193  1.00  0.00     0.168 C 
HETATM   15  N   UNL     1       5.112  25.532  51.342  1.00  0.00    -0.189 NA
HETATM   16  C   UNL     1       5.743  25.159  52.504  1.00  0.00     0.260 C 
HETATM   17  O   UNL     1       6.099  24.009  52.736  1.00  0.00    -0.270 OA
BRANCH  14  18
HETATM   18  N   UNL     1       4.389  27.431  50.126  1.00  0.00    -0.360 N 
HETATM   19  C   UNL     1       4.584  28.840  49.769  1.00  0.00     0.125 C 
HETATM   20  C   UNL     1       5.658  28.941  48.684  1.00  0.00     0.020 C 
HETATM   21  C   UNL     1       5.293  28.086  47.467  1.00  0.00     0.003 C 
HETATM   22  C   UNL     1       4.969  26.649  47.878  1.00  0.00     0.020 C 
HETATM   23  C   UNL     1       3.923  26.620  48.992  1.00  0.00     0.125 C 
ENDBRANCH  14  18
ENDBRANCH  11  12
ENDBRANCH   8  11
ENDBRANCH   4   7
BRANCH   1  24
HETATM   24  C   UNL     1       8.133  31.941  59.800  1.00  0.00     0.256 C 
HETATM   25  N   UNL     1       7.112  31.869  60.731  1.00  0.00    -0.323 N 
HETATM   26  H   UNL     1       6.404  31.162  60.599  1.00  0.00     0.169 HD
HETATM   27  O   UNL     1       9.062  32.741  59.799  1.00  0.00    -0.267 OA
BRANCH  25  28
HETATM   28  C   UNL     1       6.994  32.606  61.930  1.00  0.00     0.035 A 
HETATM   29  C   UNL     1       7.858  32.476  63.015  1.00  0.00     0.030 A 
HETATM   30  C   UNL     1       7.625  33.184  64.203  1.00  0.00     0.010 A 
HETATM   31  C   UNL     1       6.536  34.057  64.321  1.00  0.00    -0.054 A 
HETATM   32  C   UNL     1       5.681  34.198  63.218  1.00  0.00     0.010 A 
HETATM   33  C   UNL     1       5.906  33.478  62.040  1.00  0.00     0.030 A 
BRANCH  31  34
HETATM   34  C   UNL     1       6.210  34.794  65.611  1.00  0.00     0.014 C 
HETATM   35  C   UNL     1       4.757  35.286  65.551  1.00  0.00     0.015 C 
BRANCH  34  36
HETATM   36  C   UNL     1       6.438  33.999  66.914  1.00  0.00     0.004 C 
HETATM   37  C   UNL     1       5.467  34.372  68.027  1.00  0.00     0.006 C 
ENDBRANCH  34  36
ENDBRANCH  31  34
ENDBRANCH  25  28
ENDBRANCH   1  24
TORSDOF 8
ENDMDL
MODEL 6
REMARK VINA RESULT:      -9.6      3.626      5.157
REMARK  8 active torsions:
REMARK  status: ('A' for Active; 'I' for Inactive)
REMARK    1  A    between atoms: C_2  and  C_3 
REMARK    2  A    between atoms: C_3  and  C_4 
REMARK    3  A    between atoms: C_7  and  N_8 
REMARK       I    between atoms: N_8  and  C_9 
REMARK    4  A    between atoms: C_9  and  C_10 
REMARK    5  A    between atoms: C_13  and  N_14 
REMARK       I    between atoms: N_14  and  C_15 
REMARK    6  A    between atoms: C_15  and  C_16 
REMARK    7  A    between atoms: C_16  and  C_17 
REMARK    8  A    between atoms: C_19  and  N_20 
ROOT
HETATM    1  C   UNL     1       5.382  28.545  55.225  1.00  0.00     0.032 A 
HETATM    2  C   UNL     1       4.888  29.656  54.533  1.00  0.00     0.019 A 
HETATM    3  C   UNL     1       4.775  30.897  55.176  1.00  0.00     0.030 A 
HETATM    4  C   UNL     1       5.139  31.043  56.516  1.00  0.00     0.034 A 
HETATM    5  C   UNL     1       5.588  29.919  57.218  1.00  0.00     0.030 A 
HETATM    6  C   UNL     1       5.707  28.681  56.579  1.00  0.00     0.019 A 
ENDROOT
BRANCH   4   7
HETATM    7  N   UNL     1       5.090  32.263  57.223  1.00  0.00    -0.327 N 
HETATM    8  C   UNL     1       3.962  32.958  57.621  1.00  0.00     0.223 C 
HETATM    9  O   UNL     1       2.798  32.637  57.409  1.00  0.00    -0.273 OA
HETATM   10  H   UNL     1       5.988  32.673  57.448  1.00  0.00     0.169 HD
BRANCH   8  11
HETATM   11  C   UNL     1       4.292  34.251  58.340  1.00  0.00     0.128 C 
BRANCH  11  12
HETATM   12  C   UNL     1       3.791  34.201  59.775  1.00  0.00     0.158 C 
HETATM   13  S   UNL     1       4.397  32.724  60.643  1.00  0.00    -0.077 SA
HETATM   14  C   UNL     1       4.852  33.700  62.029  1.00  0.00     0.168 C 
HETATM   15  N   UNL     1       4.766  34.979  61.858  1.00  0.00    -0.189 NA
HETATM   16  C   UNL     1       4.335  35.345  60.605  1.00  0.00     0.260 C 
HETATM   17  O   UNL     1       4.363  36.500  60.195  1.00  0.00    -0.270 OA
BRANCH  14  18
HETATM   18  N   UNL     1       5.234  33.088  63.203  1.00  0.00    -0.360 N 
HETATM   19  C   UNL     1       6.403  32.211  63.329  1.00  0.00     0.125 C 
HETATM   20  C   UNL     1       7.590  33.027  63.845  1.00  0.00     0.020 C 
HETATM   21  C   UNL     1       7.249  33.722  65.165  1.00  0.00     0.003 C 
HETATM   22  C   UNL     1       5.956  34.529  65.048  1.00  0.00     0.020 C 
HETATM   23  C   UNL     1       4.823  33.670  64.488  1.00  0.00     0.125 C 
ENDBRANCH  14  18
ENDBRANCH  11  12
ENDBRANCH   8  11
ENDBRANCH   4   7
BRANCH   1  24
HETATM   24  C   UNL     1       5.605  27.211  54.584  1.00  0.00     0.256 C 
HETATM   25  N   UNL     1       6.750  26.541  54.980  1.00  0.00    -0.323 N 
HETATM   26  H   UNL     1       7.370  27.010  55.623  1.00  0.00     0.169 HD
HETATM   27  O   UNL     1       4.753  26.799  53.805  1.00  0.00    -0.267 OA
BRANCH  25  28
HETATM   28  C   UNL     1       7.110  25.210  54.675  1.00  0.00     0.035 A 
HETATM   29  C   UNL     1       7.422  24.759  53.394  1.00  0.00     0.030 A 
HETATM   30  C   UNL     1       7.689  23.402  53.160  1.00  0.00     0.010 A 
HETATM   31  C   UNL     1       7.675  22.472  54.207  1.00  0.00    -0.054 A 
HETATM   32  C   UNL     1       7.379  22.937  55.497  1.00  0.00     0.010 A 
HETATM   33  C   UNL     1       7.096  24.287  55.726  1.00  0.00     0.030 A 
BRANCH  31  34
HETATM   34  C   UNL     1       7.895  20.983  53.987  1.00  0.00     0.014 C 
HETATM   35  C   UNL     1       8.257  20.744  52.515  1.00  0.00     0.015 C 
BRANCH  34  36
HETATM   36  C   UNL     1       8.948  20.318  54.899  1.00  0.00     0.004 C 
HETATM   37  C   UNL     1       8.391  19.887  56.249  1.00  0.00     0.006 C 
ENDBRANCH  34  36
ENDBRANCH  31  34
ENDBRANCH  25  28
ENDBRANCH   1  24
TORSDOF 8
ENDMDL
MODEL 7
REMARK VINA RESULT:      -9.6      3.597      4.533
REMARK  8 active torsions:
REMARK  status: ('A' for Active; 'I' for Inactive)
REMARK    1  A    between atoms: C_2  and  C_3 
REMARK    2  A    between atoms: C_3  and  C_4 
REMARK    3  A    between atoms: C_7  and  N_8 
REMARK       I    between atoms: N_8  and  C_9 
REMARK    4  A    between atoms: C_9  and  C_10 
REMARK    5  A    between atoms: C_13  and  N_14 
REMARK       I    between atoms: N_14  and  C_15 
REMARK    6  A    between atoms: C_15  and  C_16 
REMARK    7  A    between atoms: C_16  and  C_17 
REMARK    8  A    between atoms: C_19  and  N_20 
ROOT
HETATM    1  C   UNL     1       7.796  29.811  58.338  1.00  0.00     0.032 A 
HETATM    2  C   UNL     1       8.323  30.374  59.505  1.00  0.00     0.019 A 
HETATM    3  C   UNL     1       7.661  31.436  60.139  1.00  0.00     0.030 A 
HETATM    4  C   UNL     1       6.477  31.956  59.613  1.00  0.00     0.034 A 
HETATM    5  C   UNL     1       5.979  31.422  58.420  1.00  0.00     0.030 A 
HETATM    6  C   UNL     1       6.633  30.360  57.787  1.00  0.00     0.019 A 
ENDROOT
BRANCH   4   7
HETATM    7  N   UNL     1       5.734  32.996  60.210  1.00  0.00    -0.327 N 
HETATM    8  C   UNL     1       4.715  32.875  61.137  1.00  0.00     0.223 C 
HETATM    9  O   UNL     1       4.266  31.828  61.591  1.00  0.00    -0.273 OA
HETATM   10  H   UNL     1       5.974  33.933  59.908  1.00  0.00     0.169 HD
BRANCH   8  11
HETATM   11  C   UNL     1       4.123  34.212  61.538  1.00  0.00     0.128 C 
BRANCH  11  12
HETATM   12  C   UNL     1       5.224  35.251  61.695  1.00  0.00     0.158 C 
HETATM   13  S   UNL     1       4.643  36.911  61.242  1.00  0.00    -0.077 SA
HETATM   14  C   UNL     1       5.361  37.582  62.697  1.00  0.00     0.168 C 
HETATM   15  N   UNL     1       5.818  36.713  63.539  1.00  0.00    -0.189 NA
HETATM   16  C   UNL     1       5.651  35.409  63.139  1.00  0.00     0.260 C 
HETATM   17  O   UNL     1       5.853  34.449  63.875  1.00  0.00    -0.270 OA
BRANCH  14  18
HETATM   18  N   UNL     1       5.433  38.948  62.859  1.00  0.00    -0.360 N 
HETATM   19  C   UNL     1       5.979  39.606  64.051  1.00  0.00     0.125 C 
HETATM   20  C   UNL     1       7.444  39.969  63.799  1.00  0.00     0.020 C 
HETATM   21  C   UNL     1       7.588  40.837  62.547  1.00  0.00     0.003 C 
HETATM   22  C   UNL     1       6.900  40.193  61.343  1.00  0.00     0.020 C 
HETATM   23  C   UNL     1       5.457  39.816  61.674  1.00  0.00     0.125 C 
ENDBRANCH  14  18
ENDBRANCH  11  12
ENDBRANCH   8  11
ENDBRANCH   4   7
BRANCH   1  24
HETATM   24  C   UNL     1       8.402  28.628  57.651  1.00  0.00     0.256 C 
HETATM   25  N   UNL     1       7.600  27.501  57.580  1.00  0.00    -0.323 N 
HETATM   26  H   UNL     1       6.698  27.537  58.031  1.00  0.00     0.169 HD
HETATM   27  O   UNL     1       9.524  28.753  57.174  1.00  0.00    -0.267 OA
BRANCH  25  28
HETATM   28  C   UNL     1       7.846  26.322  56.845  1.00  0.00     0.035 A 
HETATM   29  C   UNL     1       7.392  26.100  55.546  1.00  0.00     0.030 A 
HETATM   30  C   UNL     1       7.608  24.867  54.914  1.00  0.00     0.010 A 
HETATM   31  C   UNL     1       8.306  23.838  55.558  1.00  0.00    -0.054 A 
HETATM   32  C   UNL     1       8.778  24.074  56.857  1.00  0.00     0.010 A 
HETATM   33  C   UNL     1       8.546  25.298  57.493  1.00  0.00     0.030 A 
BRANCH  31  34
HETATM   34  C   UNL     1       8.506  22.465  54.934  1.00  0.00     0.014 C 
HETATM   35  C   UNL     1       7.722  21.428  55.750  1.00  0.00     0.015 C 
BRANCH  34  36
HETATM   36  C   UNL     1       8.133  22.345  53.442  1.00  0.00     0.004 C 
HETATM   37  C   UNL     1       7.931  20.907  52.984  1.00  0.00     0.006 C 
ENDBRANCH  34  36
ENDBRANCH  31  34
ENDBRANCH  25  28
ENDBRANCH   1  24
TORSDOF 8
ENDMDL
MODEL 8
REMARK VINA RESULT:      -9.5      3.740      5.176
REMARK  8 active torsions:
REMARK  status: ('A' for Active; 'I' for Inactive)
REMARK    1  A    between atoms: C_2  and  C_3 
REMARK    2  A    between atoms: C_3  and  C_4 
REMARK    3  A    between atoms: C_7  and  N_8 
REMARK       I    between atoms: N_8  and  C_9 
REMARK    4  A    between atoms: C_9  and  C_10 
REMARK    5  A    between atoms: C_13  and  N_14 
REMARK       I    between atoms: N_14  and  C_15 
REMARK    6  A    between atoms: C_15  and  C_16 
REMARK    7  A    between atoms: C_16  and  C_17 
REMARK    8  A    between atoms: C_19  and  N_20 
ROOT
HETATM    1  C   UNL     1       5.006  28.707  55.839  1.00  0.00     0.032 A 
HETATM    2  C   UNL     1       5.282  29.004  57.178  1.00  0.00     0.019 A 
HETATM    3  C   UNL     1       4.782  30.178  57.759  1.00  0.00     0.030 A 
HETATM    4  C   UNL     1       4.013  31.074  57.014  1.00  0.00     0.034 A 
HETATM    5  C   UNL     1       3.779  30.797  55.662  1.00  0.00     0.030 A 
HETATM    6  C   UNL     1       4.272  29.625  55.080  1.00  0.00     0.019 A 
ENDROOT
BRANCH   4   7
HETATM    7  N   UNL     1       3.443  32.255  57.534  1.00  0.00    -0.327 N 
HETATM    8  C   UNL     1       4.107  33.399  57.939  1.00  0.00     0.223 C 
HETATM    9  O   UNL     1       5.320  33.577  57.932  1.00  0.00    -0.273 OA
HETATM   10  H   UNL     1       2.435  32.248  57.629  1.00  0.00     0.169 HD
BRANCH   8  11
HETATM   11  C   UNL     1       3.169  34.464  58.473  1.00  0.00     0.128 C 
BRANCH  11  12
HETATM   12  C   UNL     1       3.166  34.449  59.995  1.00  0.00     0.158 C 
HETATM   13  S   UNL     1       3.614  32.813  60.647  1.00  0.00    -0.077 SA
HETATM   14  C   UNL     1       4.731  33.549  61.783  1.00  0.00     0.168 C 
HETATM   15  N   UNL     1       4.931  34.817  61.621  1.00  0.00    -0.189 NA
HETATM   16  C   UNL     1       4.228  35.361  60.572  1.00  0.00     0.260 C 
HETATM   17  O   UNL     1       4.422  36.495  60.149  1.00  0.00    -0.270 OA
BRANCH  14  18
HETATM   18  N   UNL     1       5.300  32.785  62.779  1.00  0.00    -0.360 N 
HETATM   19  C   UNL     1       6.410  31.851  62.565  1.00  0.00     0.125 C 
HETATM   20  C   UNL     1       7.728  32.548  62.909  1.00  0.00     0.020 C 
HETATM   21  C   UNL     1       7.705  33.094  64.339  1.00  0.00     0.003 C 
HETATM   22  C   UNL     1       6.470  33.963  64.580  1.00  0.00     0.020 C 
HETATM   23  C   UNL     1       5.194  33.226  64.177  1.00  0.00     0.125 C 
ENDBRANCH  14  18
ENDBRANCH  11  12
ENDBRANCH   8  11
ENDBRANCH   4   7
BRANCH   1  24
HETATM   24  C   UNL     1       5.438  27.438  55.173  1.00  0.00     0.256 C 
HETATM   25  N   UNL     1       6.488  26.771  55.780  1.00  0.00    -0.323 N 
HETATM   26  H   UNL     1       6.915  27.202  56.586  1.00  0.00     0.169 HD
HETATM   27  O   UNL     1       4.815  27.069  54.184  1.00  0.00    -0.267 OA
BRANCH  25  28
HETATM   28  C   UNL     1       6.973  25.481  55.472  1.00  0.00     0.035 A 
HETATM   29  C   UNL     1       7.154  25.003  54.176  1.00  0.00     0.030 A 
HETATM   30  C   UNL     1       7.561  23.680  53.953  1.00  0.00     0.010 A 
HETATM   31  C   UNL     1       7.823  22.815  55.022  1.00  0.00    -0.054 A 
HETATM   32  C   UNL     1       7.659  23.308  56.324  1.00  0.00     0.010 A 
HETATM   33  C   UNL     1       7.235  24.623  56.545  1.00  0.00     0.030 A 
BRANCH  31  34
HETATM   34  C   UNL     1       8.204  21.356  54.825  1.00  0.00     0.014 C 
HETATM   35  C   UNL     1       7.708  20.543  56.028  1.00  0.00     0.015 C 
BRANCH  34  36
HETATM   36  C   UNL     1       7.711  20.704  53.516  1.00  0.00     0.004 C 
HETATM   37  C   UNL     1       8.842  20.292  52.583  1.00  0.00     0.006 C 
ENDBRANCH  34  36
ENDBRANCH  31  34
ENDBRANCH  25  28
ENDBRANCH   1  24
TORSDOF 8
ENDMDL
MODEL 9
REMARK VINA RESULT:      -9.5      3.681     13.544
REMARK  8 active torsions:
REMARK  status: ('A' for Active; 'I' for Inactive)
REMARK    1  A    between atoms: C_2  and  C_3 
REMARK    2  A    between atoms: C_3  and  C_4 
REMARK    3  A    between atoms: C_7  and  N_8 
REMARK       I    between atoms: N_8  and  C_9 
REMARK    4  A    between atoms: C_9  and  C_10 
REMARK    5  A    between atoms: C_13  and  N_14 
REMARK       I    between atoms: N_14  and  C_15 
REMARK    6  A    between atoms: C_15  and  C_16 
REMARK    7  A    between atoms: C_16  and  C_17 
REMARK    8  A    between atoms: C_19  and  N_20 
ROOT
HETATM    1  C   UNL     1       7.287  31.688  59.954  1.00  0.00     0.032 A 
HETATM    2  C   UNL     1       6.354  31.789  58.917  1.00  0.00     0.019 A 
HETATM    3  C   UNL     1       6.382  30.880  57.849  1.00  0.00     0.030 A 
HETATM    4  C   UNL     1       7.345  29.871  57.794  1.00  0.00     0.034 A 
HETATM    5  C   UNL     1       8.307  29.803  58.809  1.00  0.00     0.030 A 
HETATM    6  C   UNL     1       8.279  30.704  59.878  1.00  0.00     0.019 A 
ENDROOT
BRANCH   4   7
HETATM    7  N   UNL     1       7.418  28.898  56.775  1.00  0.00    -0.327 N 
HETATM    8  C   UNL     1       6.419  28.032  56.369  1.00  0.00     0.223 C 
HETATM    9  O   UNL     1       5.292  27.948  56.844  1.00  0.00    -0.273 OA
HETATM   10  H   UNL     1       8.311  28.827  56.303  1.00  0.00     0.169 HD
BRANCH   8  11
HETATM   11  C   UNL     1       6.865  27.101  55.259  1.00  0.00     0.128 C 
BRANCH  11  12
HETATM   12  C   UNL     1       6.909  25.665  55.760  1.00  0.00     0.158 C 
HETATM   13  S   UNL     1       7.294  24.502  54.419  1.00  0.00    -0.077 SA
HETATM   14  C   UNL     1       8.482  23.697  55.429  1.00  0.00     0.168 C 
HETATM   15  N   UNL     1       8.741  24.283  56.553  1.00  0.00    -0.189 NA
HETATM   16  C   UNL     1       8.034  25.445  56.750  1.00  0.00     0.260 C 
HETATM   17  O   UNL     1       8.272  26.230  57.661  1.00  0.00    -0.270 OA
BRANCH  14  18
HETATM   18  N   UNL     1       9.043  22.508  55.015  1.00  0.00    -0.360 N 
HETATM   19  C   UNL     1       8.978  21.259  55.780  1.00  0.00     0.125 C 
HETATM   20  C   UNL     1       7.809  20.415  55.268  1.00  0.00     0.020 C 
HETATM   21  C   UNL     1       7.931  20.160  53.764  1.00  0.00     0.003 C 
HETATM   22  C   UNL     1       8.126  21.468  52.995  1.00  0.00     0.020 C 
HETATM   23  C   UNL     1       9.278  22.281  53.582  1.00  0.00     0.125 C 
ENDBRANCH  14  18
ENDBRANCH  11  12
ENDBRANCH   8  11
ENDBRANCH   4   7
BRANCH   1  24
HETATM   24  C   UNL     1       7.270  32.569  61.163  1.00  0.00     0.256 C 
HETATM   25  N   UNL     1       6.016  32.871  61.667  1.00  0.00    -0.323 N 
HETATM   26  H   UNL     1       5.212  32.523  61.166  1.00  0.00     0.169 HD
HETATM   27  O   UNL     1       8.347  32.917  61.634  1.00  0.00    -0.267 OA
BRANCH  25  28
HETATM   28  C   UNL     1       5.718  33.524  62.883  1.00  0.00     0.035 A 
HETATM   29  C   UNL     1       5.298  32.869  64.039  1.00  0.00     0.030 A 
HETATM   30  C   UNL     1       4.940  33.598  65.182  1.00  0.00     0.010 A 
HETATM   31  C   UNL     1       5.022  34.996  65.202  1.00  0.00    -0.054 A 
HETATM   32  C   UNL     1       5.465  35.647  64.042  1.00  0.00     0.010 A 
HETATM   33  C   UNL     1       5.804  34.920  62.896  1.00  0.00     0.030 A 
BRANCH  31  34
HETATM   34  C   UNL     1       4.584  35.828  66.398  1.00  0.00     0.014 C 
HETATM   35  C   UNL     1       3.132  35.473  66.748  1.00  0.00     0.015 C 
BRANCH  34  36
HETATM   36  C   UNL     1       5.467  35.710  67.658  1.00  0.00     0.004 C 
HETATM   37  C   UNL     1       5.214  34.438  68.456  1.00  0.00     0.006 C 
ENDBRANCH  34  36
ENDBRANCH  31  34
ENDBRANCH  25  28
ENDBRANCH   1  24
TORSDOF 8
ENDMDL
MODEL 10
REMARK VINA RESULT:      -9.3      3.647      4.864
REMARK  8 active torsions:
REMARK  status: ('A' for Active; 'I' for Inactive)
REMARK    1  A    between atoms: C_2  and  C_3 
REMARK    2  A    between atoms: C_3  and  C_4 
REMARK    3  A    between atoms: C_7  and  N_8 
REMARK       I    between atoms: N_8  and  C_9 
REMARK    4  A    between atoms: C_9  and  C_10 
REMARK    5  A    between atoms: C_13  and  N_14 
REMARK       I    between atoms: N_14  and  C_15 
REMARK    6  A    between atoms: C_15  and  C_16 
REMARK    7  A    between atoms: C_16  and  C_17 
REMARK    8  A    between atoms: C_19  and  N_20 
ROOT
HETATM    1  C   UNL     1       4.377  29.223  55.579  1.00  0.00     0.032 A 
HETATM    2  C   UNL     1       3.643  30.237  54.955  1.00  0.00     0.019 A 
HETATM    3  C   UNL     1       3.257  31.377  55.674  1.00  0.00     0.030 A 
HETATM    4  C   UNL     1       3.586  31.516  57.024  1.00  0.00     0.034 A 
HETATM    5  C   UNL     1       4.278  30.478  57.658  1.00  0.00     0.030 A 
HETATM    6  C   UNL     1       4.669  29.342  56.943  1.00  0.00     0.019 A 
ENDROOT
BRANCH   4   7
HETATM    7  N   UNL     1       3.267  32.646  57.806  1.00  0.00    -0.327 N 
HETATM    8  C   UNL     1       4.073  33.739  58.070  1.00  0.00     0.223 C 
HETATM    9  O   UNL     1       5.223  33.904  57.680  1.00  0.00    -0.273 OA
HETATM   10  H   UNL     1       2.346  32.640  58.226  1.00  0.00     0.169 HD
BRANCH   8  11
HETATM   11  C   UNL     1       3.406  34.755  58.976  1.00  0.00     0.128 C 
BRANCH  11  12
HETATM   12  C   UNL     1       3.338  34.227  60.401  1.00  0.00     0.158 C 
HETATM   13  S   UNL     1       4.808  34.700  61.359  1.00  0.00    -0.077 SA
HETATM   14  C   UNL     1       3.797  35.208  62.700  1.00  0.00     0.168 C 
HETATM   15  N   UNL     1       2.525  35.227  62.459  1.00  0.00    -0.189 NA
HETATM   16  C   UNL     1       2.196  34.847  61.180  1.00  0.00     0.260 C 
HETATM   17  O   UNL     1       1.071  34.974  60.710  1.00  0.00    -0.270 OA
BRANCH  14  18
HETATM   18  N   UNL     1       4.371  35.521  63.913  1.00  0.00    -0.360 N 
HETATM   19  C   UNL     1       3.763  35.218  65.212  1.00  0.00     0.125 C 
HETATM   20  C   UNL     1       4.335  33.902  65.743  1.00  0.00     0.020 C 
HETATM   21  C   UNL     1       5.863  33.959  65.824  1.00  0.00     0.003 C 
HETATM   22  C   UNL     1       6.472  34.401  64.492  1.00  0.00     0.020 C 
HETATM   23  C   UNL     1       5.828  35.695  63.998  1.00  0.00     0.125 C 
ENDBRANCH  14  18
ENDBRANCH  11  12
ENDBRANCH   8  11
ENDBRANCH   4   7
BRANCH   1  24
HETATM   24  C   UNL     1       4.891  28.017  54.859  1.00  0.00     0.256 C 
HETATM   25  N   UNL     1       5.962  27.374  55.455  1.00  0.00    -0.323 N 
HETATM   26  H   UNL     1       6.348  27.782  56.293  1.00  0.00     0.169 HD
HETATM   27  O   UNL     1       4.311  27.670  53.836  1.00  0.00    -0.267 OA
BRANCH  25  28
HETATM   28  C   UNL     1       6.522  26.130  55.091  1.00  0.00     0.035 A 
HETATM   29  C   UNL     1       6.423  24.973  55.861  1.00  0.00     0.030 A 
HETATM   30  C   UNL     1       7.079  23.797  55.471  1.00  0.00     0.010 A 
HETATM   31  C   UNL     1       7.827  23.745  54.288  1.00  0.00    -0.054 A 
HETATM   32  C   UNL     1       7.907  24.908  53.508  1.00  0.00     0.010 A 
HETATM   33  C   UNL     1       7.266  26.085  53.907  1.00  0.00     0.030 A 
BRANCH  31  34
HETATM   34  C   UNL     1       8.606  22.511  53.861  1.00  0.00     0.014 C 
HETATM   35  C   UNL     1       9.192  21.834  55.108  1.00  0.00     0.015 C 
BRANCH  34  36
HETATM   36  C   UNL     1       7.822  21.477  53.026  1.00  0.00     0.004 C 
HETATM   37  C   UNL     1       8.564  20.159  52.846  1.00  0.00     0.006 C 
ENDBRANCH  34  36
ENDBRANCH  31  34
ENDBRANCH  25  28
ENDBRANCH   1  24
TORSDOF 8
ENDMDL
