MODEL 1
REMARK VINA RESULT:     -10.4      0.000      0.000
REMARK  7 active torsions:
REMARK  status: ('A' for Active; 'I' for Inactive)
REMARK    1  A    between atoms: C_7  and  C_8 
REMARK    2  A    between atoms: C_11  and  N_12 
REMARK       I    between atoms: N_12  and  C_13 
REMARK    3  A    between atoms: C_13  and  C_14 
REMARK    4  A    between atoms: C_14  and  N_15 
REMARK    5  A    between atoms: N_15  and  C_16 
REMARK    6  A    between atoms: C_17  and  O_18 
REMARK    7  A    between atoms: C_22  and  N_23 
REMARK       I    between atoms: N_23  and  C_24 
ROOT
HETATM    1  N   UNL     1       6.848  27.704  53.196  1.00  0.00    -0.325 N 
HETATM    2  C   UNL     1       6.175  26.610  52.743  1.00  0.00     0.244 C 
HETATM    3  O   UNL     1       6.499  26.243  51.601  1.00  0.00    -0.271 OA
HETATM    4  H   UNL     1       7.539  27.966  52.502  1.00  0.00     0.169 HD
ENDROOT
BRANCH   2   5
HETATM    5  C   UNL     1       5.078  25.860  53.512  1.00  0.00     0.170 C 
HETATM    6  C   UNL     1       4.424  24.785  52.637  1.00  0.00     0.042 C 
BRANCH   5   7
HETATM    7  N   UNL     1       5.442  25.255  54.799  1.00  0.00    -0.375 N 
HETATM    8  H   UNL     1       4.632  24.888  55.303  1.00  0.00     0.160 HD
BRANCH   7   9
HETATM    9  C   UNL     1       6.564  24.508  55.144  1.00  0.00     0.064 A 
HETATM   10  C   UNL     1       7.351  24.975  56.227  1.00  0.00     0.094 A 
HETATM   11  C   UNL     1       8.569  24.369  56.533  1.00  0.00     0.041 A 
HETATM   12  C   UNL     1       9.039  23.305  55.758  1.00  0.00     0.032 A 
HETATM   13  C   UNL     1       8.294  22.836  54.681  1.00  0.00     0.037 A 
HETATM   14  C   UNL     1       7.045  23.419  54.410  1.00  0.00     0.061 A 
BRANCH  10  15
HETATM   15  O   UNL     1       6.811  26.039  56.920  1.00  0.00    -0.354 OA
HETATM   16  C   UNL     1       7.473  26.433  58.114  1.00  0.00     0.210 C 
ENDBRANCH  10  15
BRANCH  13  17
HETATM   17  N   UNL     1       8.692  21.784  53.837  1.00  0.00    -0.327 N 
HETATM   18  C   UNL     1       8.705  20.428  53.987  1.00  0.00     0.218 C 
HETATM   19  C   UNL     1       8.432  19.788  55.318  1.00  0.00     0.117 C 
HETATM   20  O   UNL     1       8.999  19.732  53.011  1.00  0.00    -0.274 OA
HETATM   21  H   UNL     1       9.086  22.052  52.941  1.00  0.00     0.169 HD
ENDBRANCH  13  17
ENDBRANCH   7   9
ENDBRANCH   5   7
ENDBRANCH   2   5
BRANCH   1  22
HETATM   22  C   UNL     1       6.887  28.448  54.383  1.00  0.00     0.034 A 
HETATM   23  C   UNL     1       5.800  28.991  55.056  1.00  0.00     0.030 A 
HETATM   24  C   UNL     1       5.968  29.635  56.297  1.00  0.00     0.016 A 
HETATM   25  C   UNL     1       7.235  29.773  56.880  1.00  0.00    -0.000 A 
HETATM   26  C   UNL     1       8.333  29.289  56.158  1.00  0.00     0.016 A 
HETATM   27  C   UNL     1       8.162  28.639  54.933  1.00  0.00     0.030 A 
BRANCH  25  28
HETATM   28  C   UNL     1       7.478  30.385  58.202  1.00  0.00     0.109 A 
HETATM   29  N   UNL     1       8.415  29.969  59.031  1.00  0.00    -0.240 NA
HETATM   30  C   UNL     1       8.359  30.665  60.223  1.00  0.00     0.075 A 
HETATM   31  C   UNL     1       7.361  31.635  60.301  1.00  0.00     0.036 A 
HETATM   32  C   UNL     1       9.201  30.467  61.334  1.00  0.00     0.033 A 
HETATM   33  C   UNL     1       7.172  32.415  61.456  1.00  0.00     0.028 A 
HETATM   34  S   UNL     1       6.493  31.659  58.816  1.00  0.00    -0.067 SA
HETATM   35  C   UNL     1       8.014  32.200  62.559  1.00  0.00    -0.061 A 
HETATM   36  C   UNL     1       7.847  33.007  63.815  1.00  0.00     0.048 C 
HETATM   37  C   UNL     1       9.022  31.235  62.490  1.00  0.00     0.009 A 
ENDBRANCH  25  28
ENDBRANCH   1  22
TORSDOF 7
ENDMDL
MODEL 2
REMARK VINA RESULT:     -10.2      4.136     11.156
REMARK  7 active torsions:
REMARK  status: ('A' for Active; 'I' for Inactive)
REMARK    1  A    between atoms: C_7  and  C_8 
REMARK    2  A    between atoms: C_11  and  N_12 
REMARK       I    between atoms: N_12  and  C_13 
REMARK    3  A    between atoms: C_13  and  C_14 
REMARK    4  A    between atoms: C_14  and  N_15 
REMARK    5  A    between atoms: N_15  and  C_16 
REMARK    6  A    between atoms: C_17  and  O_18 
REMARK    7  A    between atoms: C_22  and  N_23 
REMARK       I    between atoms: N_23  and  C_24 
ROOT
HETATM    1  N   UNL     1       8.204  31.056  58.399  1.00  0.00    -0.325 N 
HETATM    2  C   UNL     1       8.321  31.651  59.618  1.00  0.00     0.244 C 
HETATM    3  O   UNL     1       8.495  32.880  59.576  1.00  0.00    -0.271 OA
HETATM    4  H   UNL     1       8.227  31.777  57.686  1.00  0.00     0.169 HD
ENDROOT
BRANCH   2   5
HETATM    5  C   UNL     1       8.279  30.923  60.969  1.00  0.00     0.170 C 
HETATM    6  C   UNL     1       9.490  31.291  61.833  1.00  0.00     0.042 C 
BRANCH   5   7
HETATM    7  N   UNL     1       7.066  31.066  61.782  1.00  0.00    -0.375 N 
HETATM    8  H   UNL     1       6.868  30.235  62.343  1.00  0.00     0.160 HD
BRANCH   7   9
HETATM    9  C   UNL     1       6.566  32.185  62.443  1.00  0.00     0.064 A 
HETATM   10  C   UNL     1       5.706  33.044  61.712  1.00  0.00     0.094 A 
HETATM   11  C   UNL     1       5.289  34.260  62.254  1.00  0.00     0.041 A 
HETATM   12  C   UNL     1       5.736  34.656  63.518  1.00  0.00     0.032 A 
HETATM   13  C   UNL     1       6.591  33.839  64.250  1.00  0.00     0.037 A 
HETATM   14  C   UNL     1       6.965  32.594  63.719  1.00  0.00     0.061 A 
BRANCH  10  15
HETATM   15  O   UNL     1       5.336  32.573  60.469  1.00  0.00    -0.354 OA
HETATM   16  C   UNL     1       4.829  33.526  59.544  1.00  0.00     0.210 C 
ENDBRANCH  10  15
BRANCH  13  17
HETATM   17  N   UNL     1       7.102  34.160  65.520  1.00  0.00    -0.327 N 
HETATM   18  C   UNL     1       6.539  34.216  66.760  1.00  0.00     0.218 C 
HETATM   19  C   UNL     1       5.052  34.108  66.947  1.00  0.00     0.117 C 
HETATM   20  O   UNL     1       7.274  34.411  67.732  1.00  0.00    -0.274 OA
HETATM   21  H   UNL     1       8.076  34.445  65.552  1.00  0.00     0.169 HD
ENDBRANCH  13  17
ENDBRANCH   7   9
ENDBRANCH   5   7
ENDBRANCH   2   5
BRANCH   1  22
HETATM   22  C   UNL     1       7.958  29.761  57.923  1.00  0.00     0.034 A 
HETATM   23  C   UNL     1       6.714  29.173  57.730  1.00  0.00     0.030 A 
HETATM   24  C   UNL     1       6.604  27.895  57.150  1.00  0.00     0.016 A 
HETATM   25  C   UNL     1       7.739  27.165  56.774  1.00  0.00    -0.000 A 
HETATM   26  C   UNL     1       8.989  27.735  57.041  1.00  0.00     0.016 A 
HETATM   27  C   UNL     1       9.096  29.009  57.606  1.00  0.00     0.030 A 
BRANCH  25  28
HETATM   28  C   UNL     1       7.695  25.847  56.109  1.00  0.00     0.109 A 
HETATM   29  N   UNL     1       7.883  24.708  56.747  1.00  0.00    -0.240 NA
HETATM   30  C   UNL     1       7.872  23.644  55.864  1.00  0.00     0.075 A 
HETATM   31  C   UNL     1       7.665  23.981  54.528  1.00  0.00     0.036 A 
HETATM   32  C   UNL     1       8.058  22.291  56.203  1.00  0.00     0.033 A 
HETATM   33  C   UNL     1       7.642  23.008  53.512  1.00  0.00     0.028 A 
HETATM   34  S   UNL     1       7.471  25.686  54.408  1.00  0.00    -0.067 SA
HETATM   35  C   UNL     1       7.837  21.662  53.864  1.00  0.00    -0.061 A 
HETATM   36  C   UNL     1       7.823  20.590  52.813  1.00  0.00     0.048 C 
HETATM   37  C   UNL     1       8.038  21.313  55.201  1.00  0.00     0.009 A 
ENDBRANCH  25  28
ENDBRANCH   1  22
TORSDOF 7
ENDMDL
MODEL 3
REMARK VINA RESULT:      -9.9      3.948     10.952
REMARK  7 active torsions:
REMARK  status: ('A' for Active; 'I' for Inactive)
REMARK    1  A    between atoms: C_7  and  C_8 
REMARK    2  A    between atoms: C_11  and  N_12 
REMARK       I    between atoms: N_12  and  C_13 
REMARK    3  A    between atoms: C_13  and  C_14 
REMARK    4  A    between atoms: C_14  and  N_15 
REMARK    5  A    between atoms: N_15  and  C_16 
REMARK    6  A    between atoms: C_17  and  O_18 
REMARK    7  A    between atoms: C_22  and  N_23 
REMARK       I    between atoms: N_23  and  C_24 
ROOT
HETATM    1  N   UNL     1       5.800  31.034  57.123  1.00  0.00    -0.325 N 
HETATM    2  C   UNL     1       6.176  31.850  58.147  1.00  0.00     0.244 C 
HETATM    3  O   UNL     1       5.776  33.022  58.043  1.00  0.00    -0.271 OA
HETATM    4  H   UNL     1       5.201  31.560  56.496  1.00  0.00     0.169 HD
ENDROOT
BRANCH   2   5
HETATM    5  C   UNL     1       7.042  31.433  59.343  1.00  0.00     0.170 C 
HETATM    6  C   UNL     1       8.370  32.198  59.358  1.00  0.00     0.042 C 
BRANCH   5   7
HETATM    7  N   UNL     1       6.442  31.515  60.680  1.00  0.00    -0.375 N 
HETATM    8  H   UNL     1       6.184  30.599  61.051  1.00  0.00     0.160 HD
BRANCH   7   9
HETATM    9  C   UNL     1       6.749  32.361  61.741  1.00  0.00     0.064 A 
HETATM   10  C   UNL     1       7.561  31.838  62.779  1.00  0.00     0.094 A 
HETATM   11  C   UNL     1       7.785  32.570  63.944  1.00  0.00     0.041 A 
HETATM   12  C   UNL     1       7.190  33.824  64.111  1.00  0.00     0.032 A 
HETATM   13  C   UNL     1       6.378  34.356  63.115  1.00  0.00     0.037 A 
HETATM   14  C   UNL     1       6.198  33.633  61.924  1.00  0.00     0.061 A 
BRANCH  10  15
HETATM   15  O   UNL     1       8.088  30.588  62.528  1.00  0.00    -0.354 OA
HETATM   16  C   UNL     1       9.464  30.527  62.174  1.00  0.00     0.210 C 
ENDBRANCH  10  15
BRANCH  13  17
HETATM   17  N   UNL     1       5.726  35.599  63.200  1.00  0.00    -0.327 N 
HETATM   18  C   UNL     1       4.634  36.029  63.895  1.00  0.00     0.218 C 
HETATM   19  C   UNL     1       3.743  35.063  64.622  1.00  0.00     0.117 C 
HETATM   20  O   UNL     1       4.360  37.232  63.873  1.00  0.00    -0.274 OA
HETATM   21  H   UNL     1       6.096  36.340  62.614  1.00  0.00     0.169 HD
ENDBRANCH  13  17
ENDBRANCH   7   9
ENDBRANCH   5   7
ENDBRANCH   2   5
BRANCH   1  22
HETATM   22  C   UNL     1       5.944  29.677  56.805  1.00  0.00     0.034 A 
HETATM   23  C   UNL     1       4.978  28.688  56.939  1.00  0.00     0.030 A 
HETATM   24  C   UNL     1       5.220  27.377  56.487  1.00  0.00     0.016 A 
HETATM   25  C   UNL     1       6.447  27.019  55.914  1.00  0.00    -0.000 A 
HETATM   26  C   UNL     1       7.441  28.004  55.852  1.00  0.00     0.016 A 
HETATM   27  C   UNL     1       7.194  29.308  56.290  1.00  0.00     0.030 A 
BRANCH  25  28
HETATM   28  C   UNL     1       6.749  25.681  55.368  1.00  0.00     0.109 A 
HETATM   29  N   UNL     1       6.928  24.614  56.123  1.00  0.00    -0.240 NA
HETATM   30  C   UNL     1       7.280  23.522  55.353  1.00  0.00     0.075 A 
HETATM   31  C   UNL     1       7.366  23.762  53.983  1.00  0.00     0.036 A 
HETATM   32  C   UNL     1       7.559  22.229  55.835  1.00  0.00     0.033 A 
HETATM   33  C   UNL     1       7.727  22.751  53.073  1.00  0.00     0.028 A 
HETATM   34  S   UNL     1       6.976  25.410  53.682  1.00  0.00    -0.067 SA
HETATM   35  C   UNL     1       8.011  21.468  53.570  1.00  0.00    -0.061 A 
HETATM   36  C   UNL     1       8.404  20.359  52.636  1.00  0.00     0.048 C 
HETATM   37  C   UNL     1       7.921  21.215  54.940  1.00  0.00     0.009 A 
ENDBRANCH  25  28
ENDBRANCH   1  22
TORSDOF 7
ENDMDL
MODEL 4
REMARK VINA RESULT:      -9.9      3.378      8.871
REMARK  7 active torsions:
REMARK  status: ('A' for Active; 'I' for Inactive)
REMARK    1  A    between atoms: C_7  and  C_8 
REMARK    2  A    between atoms: C_11  and  N_12 
REMARK       I    between atoms: N_12  and  C_13 
REMARK    3  A    between atoms: C_13  and  C_14 
REMARK    4  A    between atoms: C_14  and  N_15 
REMARK    5  A    between atoms: N_15  and  C_16 
REMARK    6  A    between atoms: C_17  and  O_18 
REMARK    7  A    between atoms: C_22  and  N_23 
REMARK       I    between atoms: N_23  and  C_24 
ROOT
HETATM    1  N   UNL     1       3.492  30.543  56.436  1.00  0.00    -0.325 N 
HETATM    2  C   UNL     1       3.641  31.778  56.991  1.00  0.00     0.244 C 
HETATM    3  O   UNL     1       2.618  32.481  56.962  1.00  0.00    -0.271 OA
HETATM    4  H   UNL     1       2.524  30.431  56.157  1.00  0.00     0.169 HD
ENDROOT
BRANCH   2   5
HETATM    5  C   UNL     1       4.941  32.331  57.592  1.00  0.00     0.170 C 
HETATM    6  C   UNL     1       4.838  33.840  57.840  1.00  0.00     0.042 C 
BRANCH   5   7
HETATM    7  N   UNL     1       5.453  31.692  58.811  1.00  0.00    -0.375 N 
HETATM    8  H   UNL     1       4.994  30.801  59.009  1.00  0.00     0.160 HD
BRANCH   7   9
HETATM    9  C   UNL     1       6.748  31.654  59.317  1.00  0.00     0.064 A 
HETATM   10  C   UNL     1       6.971  32.248  60.585  1.00  0.00     0.094 A 
HETATM   11  C   UNL     1       8.265  32.385  61.088  1.00  0.00     0.041 A 
HETATM   12  C   UNL     1       9.361  31.958  60.333  1.00  0.00     0.032 A 
HETATM   13  C   UNL     1       9.172  31.385  59.080  1.00  0.00     0.037 A 
HETATM   14  C   UNL     1       7.864  31.205  58.602  1.00  0.00     0.061 A 
BRANCH  10  15
HETATM   15  O   UNL     1       5.829  32.653  61.244  1.00  0.00    -0.354 OA
HETATM   16  C   UNL     1       5.648  32.177  62.571  1.00  0.00     0.210 C 
ENDBRANCH  10  15
BRANCH  13  17
HETATM   17  N   UNL     1      10.213  30.941  58.244  1.00  0.00    -0.327 N 
HETATM   18  C   UNL     1      10.318  29.905  57.364  1.00  0.00     0.218 C 
HETATM   19  C   UNL     1       9.263  28.839  57.284  1.00  0.00     0.117 C 
HETATM   20  O   UNL     1      11.331  29.831  56.663  1.00  0.00    -0.274 OA
HETATM   21  H   UNL     1      11.088  31.451  58.309  1.00  0.00     0.169 HD
ENDBRANCH  13  17
ENDBRANCH   7   9
ENDBRANCH   5   7
ENDBRANCH   2   5
BRANCH   1  22
HETATM   22  C   UNL     1       4.292  29.405  56.271  1.00  0.00     0.034 A 
HETATM   23  C   UNL     1       5.044  28.771  57.252  1.00  0.00     0.030 A 
HETATM   24  C   UNL     1       5.727  27.572  56.976  1.00  0.00     0.016 A 
HETATM   25  C   UNL     1       5.695  26.992  55.701  1.00  0.00    -0.000 A 
HETATM   26  C   UNL     1       4.996  27.678  54.699  1.00  0.00     0.016 A 
HETATM   27  C   UNL     1       4.308  28.862  54.979  1.00  0.00     0.030 A 
BRANCH  25  28
HETATM   28  C   UNL     1       6.339  25.709  55.355  1.00  0.00     0.109 A 
HETATM   29  N   UNL     1       6.542  25.312  54.114  1.00  0.00    -0.240 NA
HETATM   30  C   UNL     1       7.083  24.040  54.089  1.00  0.00     0.075 A 
HETATM   31  C   UNL     1       7.302  23.461  55.337  1.00  0.00     0.036 A 
HETATM   32  C   UNL     1       7.409  23.306  52.933  1.00  0.00     0.033 A 
HETATM   33  C   UNL     1       7.835  22.166  55.472  1.00  0.00     0.028 A 
HETATM   34  S   UNL     1       6.817  24.572  56.558  1.00  0.00    -0.067 SA
HETATM   35  C   UNL     1       8.148  21.443  54.310  1.00  0.00    -0.061 A 
HETATM   36  C   UNL     1       8.716  20.055  54.405  1.00  0.00     0.048 C 
HETATM   37  C   UNL     1       7.939  22.016  53.054  1.00  0.00     0.009 A 
ENDBRANCH  25  28
ENDBRANCH   1  22
TORSDOF 7
ENDMDL
MODEL 5
REMARK VINA RESULT:      -9.8      2.781      5.252
REMARK  7 active torsions:
REMARK  status: ('A' for Active; 'I' for Inactive)
REMARK    1  A    between atoms: C_7  and  C_8 
REMARK    2  A    between atoms: C_11  and  N_12 
REMARK       I    between atoms: N_12  and  C_13 
REMARK    3  A    between atoms: C_13  and  C_14 
REMARK    4  A    between atoms: C_14  and  N_15 
REMARK    5  A    between atoms: N_15  and  C_16 
REMARK    6  A    between atoms: C_17  and  O_18 
REMARK    7  A    between atoms: C_22  and  N_23 
REMARK       I    between atoms: N_23  and  C_24 
ROOT
HETATM    1  N   UNL     1      10.241  30.658  58.544  1.00  0.00    -0.325 N 
HETATM    2  C   UNL     1      10.035  29.960  57.393  1.00  0.00     0.244 C 
HETATM    3  O   UNL     1      11.056  29.790  56.705  1.00  0.00    -0.271 OA
HETATM    4  H   UNL     1      11.233  30.851  58.630  1.00  0.00     0.169 HD
ENDROOT
BRANCH   2   5
HETATM    5  C   UNL     1       8.680  29.424  56.910  1.00  0.00     0.170 C 
HETATM    6  C   UNL     1       8.728  29.062  55.421  1.00  0.00     0.042 C 
BRANCH   5   7
HETATM    7  N   UNL     1       8.093  28.298  57.645  1.00  0.00    -0.375 N 
HETATM    8  H   UNL     1       7.653  28.588  58.521  1.00  0.00     0.160 HD
BRANCH   7   9
HETATM    9  C   UNL     1       7.438  27.168  57.164  1.00  0.00     0.064 A 
HETATM   10  C   UNL     1       6.022  27.210  57.107  1.00  0.00     0.094 A 
HETATM   11  C   UNL     1       5.289  26.068  56.783  1.00  0.00     0.041 A 
HETATM   12  C   UNL     1       5.947  24.860  56.533  1.00  0.00     0.032 A 
HETATM   13  C   UNL     1       7.334  24.787  56.596  1.00  0.00     0.037 A 
HETATM   14  C   UNL     1       8.066  25.954  56.874  1.00  0.00     0.061 A 
BRANCH  10  15
HETATM   15  O   UNL     1       5.466  28.442  57.386  1.00  0.00    -0.354 OA
HETATM   16  C   UNL     1       4.786  29.098  56.325  1.00  0.00     0.210 C 
ENDBRANCH  10  15
BRANCH  13  17
HETATM   17  N   UNL     1       8.079  23.615  56.375  1.00  0.00    -0.327 N 
HETATM   18  C   UNL     1       8.540  23.007  55.245  1.00  0.00     0.218 C 
HETATM   19  C   UNL     1       8.104  23.463  53.881  1.00  0.00     0.117 C 
HETATM   20  O   UNL     1       9.288  22.034  55.365  1.00  0.00    -0.274 OA
HETATM   21  H   UNL     1       8.309  23.068  57.199  1.00  0.00     0.169 HD
ENDBRANCH  13  17
ENDBRANCH   7   9
ENDBRANCH   5   7
ENDBRANCH   2   5
BRANCH   1  22
HETATM   22  C   UNL     1       9.464  31.056  59.639  1.00  0.00     0.034 A 
HETATM   23  C   UNL     1       9.563  30.581  60.941  1.00  0.00     0.030 A 
HETATM   24  C   UNL     1       8.786  31.139  61.974  1.00  0.00     0.016 A 
HETATM   25  C   UNL     1       7.871  32.169  61.721  1.00  0.00    -0.000 A 
HETATM   26  C   UNL     1       7.724  32.590  60.394  1.00  0.00     0.016 A 
HETATM   27  C   UNL     1       8.506  32.043  59.372  1.00  0.00     0.030 A 
BRANCH  25  28
HETATM   28  C   UNL     1       7.066  32.839  62.763  1.00  0.00     0.109 A 
HETATM   29  N   UNL     1       7.494  33.032  63.995  1.00  0.00    -0.240 NA
HETATM   30  C   UNL     1       6.504  33.603  64.774  1.00  0.00     0.075 A 
HETATM   31  C   UNL     1       5.301  33.854  64.118  1.00  0.00     0.036 A 
HETATM   32  C   UNL     1       6.615  33.929  66.139  1.00  0.00     0.033 A 
HETATM   33  C   UNL     1       4.197  34.419  64.782  1.00  0.00     0.028 A 
HETATM   34  S   UNL     1       5.449  33.361  62.477  1.00  0.00    -0.067 SA
HETATM   35  C   UNL     1       4.319  34.732  66.145  1.00  0.00    -0.061 A 
HETATM   36  C   UNL     1       3.166  35.334  66.897  1.00  0.00     0.048 C 
HETATM   37  C   UNL     1       5.523  34.491  66.811  1.00  0.00     0.009 A 
ENDBRANCH  25  28
ENDBRANCH   1  22
TORSDOF 7
ENDMDL
MODEL 6
REMARK VINA RESULT:      -9.7      3.678      9.948
REMARK  7 active torsions:
REMARK  status: ('A' for Active; 'I' for Inactive)
REMARK    1  A    between atoms: C_7  and  C_8 
REMARK    2  A    between atoms: C_11  and  N_12 
REMARK       I    between atoms: N_12  and  C_13 
REMARK    3  A    between atoms: C_13  and  C_14 
REMARK    4  A    between atoms: C_14  and  N_15 
REMARK    5  A    between atoms: N_15  and  C_16 
REMARK    6  A    between atoms: C_17  and  O_18 
REMARK    7  A    between atoms: C_22  and  N_23 
REMARK       I    between atoms: N_23  and  C_24 
ROOT
HETATM    1  N   UNL     1       5.193  31.515  55.643  1.00  0.00    -0.325 N 
HETATM    2  C   UNL     1       4.952  32.411  56.641  1.00  0.00     0.244 C 
HETATM    3  O   UNL     1       4.735  33.570  56.250  1.00  0.00    -0.271 OA
HETATM    4  H   UNL     1       5.085  31.989  54.753  1.00  0.00     0.169 HD
ENDROOT
BRANCH   2   5
HETATM    5  C   UNL     1       4.959  32.091  58.143  1.00  0.00     0.170 C 
HETATM    6  C   UNL     1       3.858  31.087  58.499  1.00  0.00     0.042 C 
BRANCH   5   7
HETATM    7  N   UNL     1       6.220  31.631  58.734  1.00  0.00    -0.375 N 
HETATM    8  H   UNL     1       6.954  31.493  58.037  1.00  0.00     0.160 HD
BRANCH   7   9
HETATM    9  C   UNL     1       6.811  31.976  59.947  1.00  0.00     0.064 A 
HETATM   10  C   UNL     1       8.226  32.043  59.988  1.00  0.00     0.094 A 
HETATM   11  C   UNL     1       8.895  32.231  61.197  1.00  0.00     0.041 A 
HETATM   12  C   UNL     1       8.172  32.333  62.390  1.00  0.00     0.032 A 
HETATM   13  C   UNL     1       6.784  32.257  62.381  1.00  0.00     0.037 A 
HETATM   14  C   UNL     1       6.117  32.118  61.152  1.00  0.00     0.061 A 
BRANCH  10  15
HETATM   15  O   UNL     1       8.848  31.915  58.763  1.00  0.00    -0.354 OA
HETATM   16  C   UNL     1       9.799  30.867  58.629  1.00  0.00     0.210 C 
ENDBRANCH  10  15
BRANCH  13  17
HETATM   17  N   UNL     1       5.976  32.334  63.530  1.00  0.00    -0.327 N 
HETATM   18  C   UNL     1       5.421  33.380  64.205  1.00  0.00     0.218 C 
HETATM   19  C   UNL     1       5.791  34.800  63.885  1.00  0.00     0.117 C 
HETATM   20  O   UNL     1       4.639  33.134  65.128  1.00  0.00    -0.274 OA
HETATM   21  H   UNL     1       5.774  31.455  63.995  1.00  0.00     0.169 HD
ENDBRANCH  13  17
ENDBRANCH   7   9
ENDBRANCH   5   7
ENDBRANCH   2   5
BRANCH   1  22
HETATM   22  C   UNL     1       5.433  30.138  55.556  1.00  0.00     0.034 A 
HETATM   23  C   UNL     1       4.522  29.162  55.170  1.00  0.00     0.030 A 
HETATM   24  C   UNL     1       4.921  27.819  55.027  1.00  0.00     0.016 A 
HETATM   25  C   UNL     1       6.236  27.418  55.295  1.00  0.00    -0.000 A 
HETATM   26  C   UNL     1       7.127  28.395  55.755  1.00  0.00     0.016 A 
HETATM   27  C   UNL     1       6.733  29.730  55.884  1.00  0.00     0.030 A 
BRANCH  25  28
HETATM   28  C   UNL     1       6.737  26.041  55.112  1.00  0.00     0.109 A 
HETATM   29  N   UNL     1       7.096  25.550  53.942  1.00  0.00    -0.240 NA
HETATM   30  C   UNL     1       7.442  24.216  54.055  1.00  0.00     0.075 A 
HETATM   31  C   UNL     1       7.349  23.684  55.339  1.00  0.00     0.036 A 
HETATM   32  C   UNL     1       7.857  23.380  53.001  1.00  0.00     0.033 A 
HETATM   33  C   UNL     1       7.654  22.337  55.608  1.00  0.00     0.028 A 
HETATM   34  S   UNL     1       6.823  24.917  56.416  1.00  0.00    -0.067 SA
HETATM   35  C   UNL     1       8.059  21.513  54.546  1.00  0.00    -0.061 A 
HETATM   36  C   UNL     1       8.392  20.068  54.785  1.00  0.00     0.048 C 
HETATM   37  C   UNL     1       8.162  22.039  53.256  1.00  0.00     0.009 A 
ENDBRANCH  25  28
ENDBRANCH   1  22
TORSDOF 7
ENDMDL
MODEL 7
REMARK VINA RESULT:      -9.7      2.583      4.832
REMARK  7 active torsions:
REMARK  status: ('A' for Active; 'I' for Inactive)
REMARK    1  A    between atoms: C_7  and  C_8 
REMARK    2  A    between atoms: C_11  and  N_12 
REMARK       I    between atoms: N_12  and  C_13 
REMARK    3  A    between atoms: C_13  and  C_14 
REMARK    4  A    between atoms: C_14  and  N_15 
REMARK    5  A    between atoms: N_15  and  C_16 
REMARK    6  A    between atoms: C_17  and  O_18 
REMARK    7  A    between atoms: C_22  and  N_23 
REMARK       I    between atoms: N_23  and  C_24 
ROOT
HETATM    1  N   UNL     1       4.167  29.877  53.817  1.00  0.00    -0.325 N 
HETATM    2  C   UNL     1       4.602  28.974  52.895  1.00  0.00     0.244 C 
HETATM    3  O   UNL     1       4.064  29.077  51.780  1.00  0.00    -0.271 OA
HETATM    4  H   UNL     1       3.511  30.506  53.366  1.00  0.00     0.169 HD
ENDROOT
BRANCH   2   5
HETATM    5  C   UNL     1       5.644  27.876  53.150  1.00  0.00     0.170 C 
HETATM    6  C   UNL     1       5.812  26.976  51.920  1.00  0.00     0.042 C 
BRANCH   5   7
HETATM    7  N   UNL     1       6.975  28.294  53.607  1.00  0.00    -0.375 N 
HETATM    8  H   UNL     1       7.274  29.177  53.190  1.00  0.00     0.160 HD
BRANCH   7   9
HETATM    9  C   UNL     1       7.562  28.167  54.862  1.00  0.00     0.064 A 
HETATM   10  C   UNL     1       7.453  26.910  55.510  1.00  0.00     0.094 A 
HETATM   11  C   UNL     1       7.881  26.750  56.828  1.00  0.00     0.041 A 
HETATM   12  C   UNL     1       8.403  27.838  57.534  1.00  0.00     0.032 A 
HETATM   13  C   UNL     1       8.508  29.085  56.928  1.00  0.00     0.037 A 
HETATM   14  C   UNL     1       8.122  29.225  55.585  1.00  0.00     0.061 A 
BRANCH  10  15
HETATM   15  O   UNL     1       6.910  25.904  54.736  1.00  0.00    -0.354 OA
HETATM   16  C   UNL     1       7.623  24.676  54.682  1.00  0.00     0.210 C 
ENDBRANCH  10  15
BRANCH  13  17
HETATM   17  N   UNL     1       9.005  30.237  57.563  1.00  0.00    -0.327 N 
HETATM   18  C   UNL     1      10.260  30.750  57.705  1.00  0.00     0.218 C 
HETATM   19  C   UNL     1      11.475  29.961  57.310  1.00  0.00     0.117 C 
HETATM   20  O   UNL     1      10.384  31.866  58.217  1.00  0.00    -0.274 OA
HETATM   21  H   UNL     1       8.323  30.807  58.054  1.00  0.00     0.169 HD
ENDBRANCH  13  17
ENDBRANCH   7   9
ENDBRANCH   5   7
ENDBRANCH   2   5
BRANCH   1  22
HETATM   22  C   UNL     1       4.480  30.199  55.144  1.00  0.00     0.034 A 
HETATM   23  C   UNL     1       4.427  29.343  56.238  1.00  0.00     0.030 A 
HETATM   24  C   UNL     1       4.865  29.767  57.507  1.00  0.00     0.016 A 
HETATM   25  C   UNL     1       5.342  31.068  57.716  1.00  0.00    -0.000 A 
HETATM   26  C   UNL     1       5.321  31.945  56.624  1.00  0.00     0.016 A 
HETATM   27  C   UNL     1       4.898  31.518  55.362  1.00  0.00     0.030 A 
BRANCH  25  28
HETATM   28  C   UNL     1       5.870  31.562  59.004  1.00  0.00     0.109 A 
HETATM   29  N   UNL     1       7.081  31.285  59.444  1.00  0.00    -0.240 NA
HETATM   30  C   UNL     1       7.274  31.805  60.710  1.00  0.00     0.075 A 
HETATM   31  C   UNL     1       6.188  32.497  61.241  1.00  0.00     0.036 A 
HETATM   32  C   UNL     1       8.445  31.684  61.481  1.00  0.00     0.033 A 
HETATM   33  C   UNL     1       6.228  33.071  62.525  1.00  0.00     0.028 A 
HETATM   34  S   UNL     1       4.908  32.488  60.092  1.00  0.00    -0.067 SA
HETATM   35  C   UNL     1       7.400  32.934  63.286  1.00  0.00    -0.061 A 
HETATM   36  C   UNL     1       7.489  33.527  64.664  1.00  0.00     0.048 C 
HETATM   37  C   UNL     1       8.498  32.249  62.761  1.00  0.00     0.009 A 
ENDBRANCH  25  28
ENDBRANCH   1  22
TORSDOF 7
ENDMDL
MODEL 8
REMARK VINA RESULT:      -9.7      4.304     10.847
REMARK  7 active torsions:
REMARK  status: ('A' for Active; 'I' for Inactive)
REMARK    1  A    between atoms: C_7  and  C_8 
REMARK    2  A    between atoms: C_11  and  N_12 
REMARK       I    between atoms: N_12  and  C_13 
REMARK    3  A    between atoms: C_13  and  C_14 
REMARK    4  A    between atoms: C_14  and  N_15 
REMARK    5  A    between atoms: N_15  and  C_16 
REMARK    6  A    between atoms: C_17  and  O_18 
REMARK    7  A    between atoms: C_22  and  N_23 
REMARK       I    between atoms: N_23  and  C_24 
ROOT
HETATM    1  N   UNL     1       5.557  32.781  58.254  1.00  0.00    -0.325 N 
HETATM    2  C   UNL     1       4.801  33.344  59.236  1.00  0.00     0.244 C 
HETATM    3  O   UNL     1       4.566  34.553  59.075  1.00  0.00    -0.271 OA
HETATM    4  H   UNL     1       5.729  33.480  57.540  1.00  0.00     0.169 HD
ENDROOT
BRANCH   2   5
HETATM    5  C   UNL     1       4.273  32.613  60.479  1.00  0.00     0.170 C 
HETATM    6  C   UNL     1       3.303  31.491  60.091  1.00  0.00     0.042 C 
BRANCH   5   7
HETATM    7  N   UNL     1       5.259  32.072  61.421  1.00  0.00    -0.375 N 
HETATM    8  H   UNL     1       6.001  31.546  60.954  1.00  0.00     0.160 HD
BRANCH   7   9
HETATM    9  C   UNL     1       5.770  32.630  62.590  1.00  0.00     0.064 A 
HETATM   10  C   UNL     1       7.168  32.531  62.803  1.00  0.00     0.094 A 
HETATM   11  C   UNL     1       7.732  32.928  64.016  1.00  0.00     0.041 A 
HETATM   12  C   UNL     1       6.917  33.406  65.046  1.00  0.00     0.032 A 
HETATM   13  C   UNL     1       5.541  33.500  64.869  1.00  0.00     0.037 A 
HETATM   14  C   UNL     1       4.987  33.146  63.627  1.00  0.00     0.061 A 
BRANCH  10  15
HETATM   15  O   UNL     1       7.884  32.031  61.734  1.00  0.00    -0.354 OA
HETATM   16  C   UNL     1       8.671  30.872  61.971  1.00  0.00     0.210 C 
ENDBRANCH  10  15
BRANCH  13  17
HETATM   17  N   UNL     1       4.643  33.954  65.851  1.00  0.00    -0.327 N 
HETATM   18  C   UNL     1       4.080  35.170  66.103  1.00  0.00     0.218 C 
HETATM   19  C   UNL     1       4.540  36.407  65.385  1.00  0.00     0.117 C 
HETATM   20  O   UNL     1       3.213  35.246  66.977  1.00  0.00    -0.274 OA
HETATM   21  H   UNL     1       4.362  33.274  66.550  1.00  0.00     0.169 HD
ENDBRANCH  13  17
ENDBRANCH   7   9
ENDBRANCH   5   7
ENDBRANCH   2   5
BRANCH   1  22
HETATM   22  C   UNL     1       6.036  31.499  57.954  1.00  0.00     0.034 A 
HETATM   23  C   UNL     1       7.167  30.892  58.486  1.00  0.00     0.030 A 
HETATM   24  C   UNL     1       7.483  29.556  58.175  1.00  0.00     0.016 A 
HETATM   25  C   UNL     1       6.687  28.804  57.300  1.00  0.00    -0.000 A 
HETATM   26  C   UNL     1       5.592  29.448  56.711  1.00  0.00     0.016 A 
HETATM   27  C   UNL     1       5.273  30.770  57.032  1.00  0.00     0.030 A 
BRANCH  25  28
HETATM   28  C   UNL     1       6.926  27.384  56.974  1.00  0.00     0.109 A 
HETATM   29  N   UNL     1       7.805  26.633  57.608  1.00  0.00    -0.240 NA
HETATM   30  C   UNL     1       7.878  25.376  57.038  1.00  0.00     0.075 A 
HETATM   31  C   UNL     1       7.031  25.164  55.952  1.00  0.00     0.036 A 
HETATM   32  C   UNL     1       8.723  24.330  57.454  1.00  0.00     0.033 A 
HETATM   33  C   UNL     1       7.002  23.939  55.261  1.00  0.00     0.028 A 
HETATM   34  S   UNL     1       6.122  26.597  55.669  1.00  0.00    -0.067 SA
HETATM   35  C   UNL     1       7.857  22.908  55.682  1.00  0.00    -0.061 A 
HETATM   36  C   UNL     1       7.863  21.584  54.972  1.00  0.00     0.048 C 
HETATM   37  C   UNL     1       8.705  23.107  56.774  1.00  0.00     0.009 A 
ENDBRANCH  25  28
ENDBRANCH   1  22
TORSDOF 7
ENDMDL
MODEL 9
REMARK VINA RESULT:      -9.4      3.492      8.320
REMARK  7 active torsions:
REMARK  status: ('A' for Active; 'I' for Inactive)
REMARK    1  A    between atoms: C_7  and  C_8 
REMARK    2  A    between atoms: C_11  and  N_12 
REMARK       I    between atoms: N_12  and  C_13 
REMARK    3  A    between atoms: C_13  and  C_14 
REMARK    4  A    between atoms: C_14  and  N_15 
REMARK    5  A    between atoms: N_15  and  C_16 
REMARK    6  A    between atoms: C_17  and  O_18 
REMARK    7  A    between atoms: C_22  and  N_23 
REMARK       I    between atoms: N_23  and  C_24 
ROOT
HETATM    1  N   UNL     1       6.088  31.115  57.467  1.00  0.00    -0.325 N 
HETATM    2  C   UNL     1       5.264  32.098  57.009  1.00  0.00     0.244 C 
HETATM    3  O   UNL     1       5.417  33.198  57.566  1.00  0.00    -0.271 OA
HETATM    4  H   UNL     1       6.717  31.517  58.153  1.00  0.00     0.169 HD
ENDROOT
BRANCH   2   5
HETATM    5  C   UNL     1       4.196  31.926  55.920  1.00  0.00     0.170 C 
HETATM    6  C   UNL     1       3.217  33.105  55.914  1.00  0.00     0.042 C 
BRANCH   5   7
HETATM    7  N   UNL     1       4.656  31.695  54.546  1.00  0.00    -0.375 N 
HETATM    8  H   UNL     1       5.664  31.826  54.442  1.00  0.00     0.160 HD
BRANCH   7   9
HETATM    9  C   UNL     1       4.225  30.758  53.611  1.00  0.00     0.064 A 
HETATM   10  C   UNL     1       3.537  31.244  52.470  1.00  0.00     0.094 A 
HETATM   11  C   UNL     1       2.942  30.361  51.569  1.00  0.00     0.041 A 
HETATM   12  C   UNL     1       3.000  28.983  51.794  1.00  0.00     0.032 A 
HETATM   13  C   UNL     1       3.656  28.480  52.913  1.00  0.00     0.037 A 
HETATM   14  C   UNL     1       4.295  29.373  53.788  1.00  0.00     0.061 A 
BRANCH  10  15
HETATM   15  O   UNL     1       3.520  32.618  52.345  1.00  0.00    -0.354 OA
HETATM   16  C   UNL     1       2.888  33.153  51.190  1.00  0.00     0.210 C 
ENDBRANCH  10  15
BRANCH  13  17
HETATM   17  N   UNL     1       3.752  27.112  53.229  1.00  0.00    -0.327 N 
HETATM   18  C   UNL     1       4.530  26.101  52.748  1.00  0.00     0.218 C 
HETATM   19  C   UNL     1       5.380  26.285  51.523  1.00  0.00     0.117 C 
HETATM   20  O   UNL     1       4.484  25.005  53.313  1.00  0.00    -0.274 OA
HETATM   21  H   UNL     1       3.102  26.768  53.928  1.00  0.00     0.169 HD
ENDBRANCH  13  17
ENDBRANCH   7   9
ENDBRANCH   5   7
ENDBRANCH   2   5
BRANCH   1  22
HETATM   22  C   UNL     1       6.337  29.773  57.149  1.00  0.00     0.034 A 
HETATM   23  C   UNL     1       5.483  28.699  57.364  1.00  0.00     0.030 A 
HETATM   24  C   UNL     1       5.814  27.410  56.905  1.00  0.00     0.016 A 
HETATM   25  C   UNL     1       7.024  27.162  56.243  1.00  0.00    -0.000 A 
HETATM   26  C   UNL     1       7.911  28.235  56.098  1.00  0.00     0.016 A 
HETATM   27  C   UNL     1       7.574  29.517  56.543  1.00  0.00     0.030 A 
BRANCH  25  28
HETATM   28  C   UNL     1       7.411  25.850  55.686  1.00  0.00     0.109 A 
HETATM   29  N   UNL     1       7.517  25.615  54.393  1.00  0.00    -0.240 NA
HETATM   30  C   UNL     1       7.809  24.285  54.158  1.00  0.00     0.075 A 
HETATM   31  C   UNL     1       7.933  23.493  55.297  1.00  0.00     0.036 A 
HETATM   32  C   UNL     1       7.975  23.688  52.894  1.00  0.00     0.033 A 
HETATM   33  C   UNL     1       8.215  22.116  55.217  1.00  0.00     0.028 A 
HETATM   34  S   UNL     1       7.683  24.475  56.687  1.00  0.00    -0.067 SA
HETATM   35  C   UNL     1       8.370  21.534  53.949  1.00  0.00    -0.061 A 
HETATM   36  C   UNL     1       8.668  20.067  53.815  1.00  0.00     0.048 C 
HETATM   37  C   UNL     1       8.255  22.320  52.801  1.00  0.00     0.009 A 
ENDBRANCH  25  28
ENDBRANCH   1  22
TORSDOF 7
ENDMDL
MODEL 10
REMARK VINA RESULT:      -9.1      3.915      9.633
REMARK  7 active torsions:
REMARK  status: ('A' for Active; 'I' for Inactive)
REMARK    1  A    between atoms: C_7  and  C_8 
REMARK    2  A    between atoms: C_11  and  N_12 
REMARK       I    between atoms: N_12  and  C_13 
REMARK    3  A    between atoms: C_13  and  C_14 
REMARK    4  A    between atoms: C_14  and  N_15 
REMARK    5  A    between atoms: N_15  and  C_16 
REMARK    6  A    between atoms: C_17  and  O_18 
REMARK    7  A    between atoms: C_22  and  N_23 
REMARK       I    between atoms: N_23  and  C_24 
ROOT
HETATM    1  N   UNL     1       3.131  30.736  55.992  1.00  0.00    -0.325 N 
HETATM    2  C   UNL     1       3.373  32.051  56.249  1.00  0.00     0.244 C 
HETATM    3  O   UNL     1       2.351  32.745  56.383  1.00  0.00    -0.271 OA
HETATM    4  H   UNL     1       2.129  30.581  56.021  1.00  0.00     0.169 HD
ENDROOT
BRANCH   2   5
HETATM    5  C   UNL     1       4.762  32.696  56.352  1.00  0.00     0.170 C 
HETATM    6  C   UNL     1       5.100  33.486  55.083  1.00  0.00     0.042 C 
BRANCH   5   7
HETATM    7  N   UNL     1       5.034  33.546  57.517  1.00  0.00    -0.375 N 
HETATM    8  H   UNL     1       4.521  34.429  57.487  1.00  0.00     0.160 HD
BRANCH   7   9
HETATM    9  C   UNL     1       5.242  33.190  58.846  1.00  0.00     0.064 A 
HETATM   10  C   UNL     1       4.638  34.001  59.840  1.00  0.00     0.094 A 
HETATM   11  C   UNL     1       4.925  33.801  61.191  1.00  0.00     0.041 A 
HETATM   12  C   UNL     1       5.831  32.809  61.577  1.00  0.00     0.032 A 
HETATM   13  C   UNL     1       6.448  32.009  60.622  1.00  0.00     0.037 A 
HETATM   14  C   UNL     1       6.116  32.184  59.268  1.00  0.00     0.061 A 
BRANCH  10  15
HETATM   15  O   UNL     1       3.773  34.962  59.359  1.00  0.00    -0.354 OA
HETATM   16  C   UNL     1       2.400  34.819  59.694  1.00  0.00     0.210 C 
ENDBRANCH  10  15
BRANCH  13  17
HETATM   17  N   UNL     1       7.382  30.999  60.915  1.00  0.00    -0.327 N 
HETATM   18  C   UNL     1       8.739  31.002  61.052  1.00  0.00     0.218 C 
HETATM   19  C   UNL     1       9.559  32.205  60.680  1.00  0.00     0.117 C 
HETATM   20  O   UNL     1       9.292  29.970  61.442  1.00  0.00    -0.274 OA
HETATM   21  H   UNL     1       7.011  30.061  61.017  1.00  0.00     0.169 HD
ENDBRANCH  13  17
ENDBRANCH   7   9
ENDBRANCH   5   7
ENDBRANCH   2   5
BRANCH   1  22
HETATM   22  C   UNL     1       3.904  29.580  55.816  1.00  0.00     0.034 A 
HETATM   23  C   UNL     1       4.677  28.946  56.782  1.00  0.00     0.030 A 
HETATM   24  C   UNL     1       5.328  27.730  56.500  1.00  0.00     0.016 A 
HETATM   25  C   UNL     1       5.242  27.134  55.236  1.00  0.00    -0.000 A 
HETATM   26  C   UNL     1       4.523  27.818  54.248  1.00  0.00     0.016 A 
HETATM   27  C   UNL     1       3.867  29.019  54.533  1.00  0.00     0.030 A 
BRANCH  25  28
HETATM   28  C   UNL     1       5.851  25.834  54.888  1.00  0.00     0.109 A 
HETATM   29  N   UNL     1       6.333  24.997  55.785  1.00  0.00    -0.240 NA
HETATM   30  C   UNL     1       6.916  23.904  55.173  1.00  0.00     0.075 A 
HETATM   31  C   UNL     1       6.872  23.907  53.780  1.00  0.00     0.036 A 
HETATM   32  C   UNL     1       7.541  22.827  55.830  1.00  0.00     0.033 A 
HETATM   33  C   UNL     1       7.436  22.869  53.016  1.00  0.00     0.028 A 
HETATM   34  S   UNL     1       6.058  25.328  53.254  1.00  0.00    -0.067 SA
HETATM   35  C   UNL     1       8.063  21.805  53.685  1.00  0.00    -0.061 A 
HETATM   36  C   UNL     1       8.682  20.677  52.911  1.00  0.00     0.048 C 
HETATM   37  C   UNL     1       8.107  21.789  55.081  1.00  0.00     0.009 A 
ENDBRANCH  25  28
ENDBRANCH   1  22
TORSDOF 7
ENDMDL
