MODEL 1
REMARK VINA RESULT:      -8.3      0.000      0.000
REMARK  4 active torsions:
REMARK  status: ('A' for Active; 'I' for Inactive)
REMARK    1  A    between atoms: C_4  and  N_5 
REMARK    2  A    between atoms: N_5  and  N_6 
REMARK    3  A    between atoms: C_7  and  C_8 
REMARK    4  A    between atoms: C_9  and  O_10 
ROOT
HETATM    1  N   UNL     1       7.548  27.319  56.808  1.00  0.00    -0.172 NA
HETATM    2  C   UNL     1       7.736  26.092  57.186  1.00  0.00     0.153 C 
ENDROOT
BRANCH   1   3
HETATM    3  N   UNL     1       7.471  28.215  57.834  1.00  0.00    -0.108 N 
HETATM    4  H   UNL     1       6.718  28.177  58.519  1.00  0.00     0.208 HD
BRANCH   3   5
HETATM    5  C   UNL     1       8.344  29.244  58.076  1.00  0.00     0.723 A 
HETATM    6  N   UNL     1       8.020  30.206  58.888  1.00  0.00    -0.068 NA
HETATM    7  C   UNL     1       8.934  31.215  59.084  1.00  0.00     0.055 A 
HETATM    8  C   UNL     1       8.509  32.313  60.018  1.00  0.00     0.071 C 
HETATM    9  C   UNL     1      10.133  31.264  58.489  1.00  0.00     0.102 A 
HETATM   10  C   UNL     1      10.500  30.169  57.582  1.00  0.00     0.261 A 
HETATM   11  N   UNL     1       9.548  29.210  57.433  1.00  0.00    -0.153 N 
HETATM   12  O   UNL     1      11.584  30.144  57.014  1.00  0.00    -0.268 OA
HETATM   13  H   UNL     1       9.740  28.435  56.821  1.00  0.00     0.187 HD
ENDBRANCH   3   5
ENDBRANCH   1   3
BRANCH   2  14
HETATM   14  C   UNL     1       7.848  24.985  56.211  1.00  0.00     0.019 A 
HETATM   15  C   UNL     1       8.105  23.661  56.598  1.00  0.00     0.094 A 
HETATM   16  C   UNL     1       8.196  22.661  55.624  1.00  0.00     0.046 A 
HETATM   17 BR   UNL     1       8.541  20.853  56.085  1.00  0.00    -0.048 Br
HETATM   18  C   UNL     1       8.033  22.975  54.273  1.00  0.00     0.041 A 
HETATM   19  C   UNL     1       7.778  24.293  53.898  1.00  0.00     0.013 A 
HETATM   20 BR   UNL     1       7.556  24.720  52.071  1.00  0.00    -0.051 Br
HETATM   21  C   UNL     1       7.685  25.301  54.857  1.00  0.00     0.035 A 
BRANCH  15  22
HETATM   22  O   UNL     1       8.270  23.316  57.914  1.00  0.00    -0.358 OA
HETATM   23  H   UNL     1       7.447  23.546  58.394  1.00  0.00     0.218 HD
ENDBRANCH  15  22
ENDBRANCH   2  14
TORSDOF 4
ENDMDL
MODEL 2
REMARK VINA RESULT:      -8.0      1.122      2.369
REMARK  4 active torsions:
REMARK  status: ('A' for Active; 'I' for Inactive)
REMARK    1  A    between atoms: C_4  and  N_5 
REMARK    2  A    between atoms: N_5  and  N_6 
REMARK    3  A    between atoms: C_7  and  C_8 
REMARK    4  A    between atoms: C_9  and  O_10 
ROOT
HETATM    1  N   UNL     1       7.332  27.450  56.909  1.00  0.00    -0.172 NA
HETATM    2  C   UNL     1       7.725  26.257  57.238  1.00  0.00     0.153 C 
ENDROOT
BRANCH   1   3
HETATM    3  N   UNL     1       7.326  28.341  57.941  1.00  0.00    -0.108 N 
HETATM    4  H   UNL     1       6.599  28.326  58.654  1.00  0.00     0.208 HD
BRANCH   3   5
HETATM    5  C   UNL     1       8.243  29.338  58.154  1.00  0.00     0.723 A 
HETATM    6  N   UNL     1       7.998  30.288  59.006  1.00  0.00    -0.068 NA
HETATM    7  C   UNL     1       8.952  31.265  59.170  1.00  0.00     0.055 A 
HETATM    8  C   UNL     1       8.618  32.350  60.153  1.00  0.00     0.071 C 
HETATM    9  C   UNL     1      10.115  31.293  58.505  1.00  0.00     0.102 A 
HETATM   10  C   UNL     1      10.393  30.212  57.552  1.00  0.00     0.261 A 
HETATM   11  N   UNL     1       9.405  29.285  57.439  1.00  0.00    -0.153 N 
HETATM   12  O   UNL     1      11.440  30.169  56.919  1.00  0.00    -0.268 OA
HETATM   13  H   UNL     1       9.536  28.520  56.798  1.00  0.00     0.187 HD
ENDBRANCH   3   5
ENDBRANCH   1   3
BRANCH   2  14
HETATM   14  C   UNL     1       7.799  25.160  56.248  1.00  0.00     0.019 A 
HETATM   15  C   UNL     1       7.688  25.381  54.867  1.00  0.00     0.094 A 
HETATM   16  C   UNL     1       7.769  24.298  53.984  1.00  0.00     0.046 A 
HETATM   17 BR   UNL     1       7.626  24.534  52.107  1.00  0.00    -0.048 Br
HETATM   18  C   UNL     1       7.958  23.003  54.472  1.00  0.00     0.041 A 
HETATM   19  C   UNL     1       8.068  22.794  55.845  1.00  0.00     0.013 A 
HETATM   20 BR   UNL     1       8.325  21.043  56.507  1.00  0.00    -0.051 Br
HETATM   21  C   UNL     1       7.989  23.863  56.738  1.00  0.00     0.035 A 
BRANCH  15  22
HETATM   22  O   UNL     1       7.502  26.638  54.352  1.00  0.00    -0.358 OA
HETATM   23  H   UNL     1       7.946  27.278  54.946  1.00  0.00     0.218 HD
ENDBRANCH  15  22
ENDBRANCH   2  14
TORSDOF 4
ENDMDL
MODEL 3
REMARK VINA RESULT:      -8.0      5.935      8.353
REMARK  4 active torsions:
REMARK  status: ('A' for Active; 'I' for Inactive)
REMARK    1  A    between atoms: C_4  and  N_5 
REMARK    2  A    between atoms: N_5  and  N_6 
REMARK    3  A    between atoms: C_7  and  C_8 
REMARK    4  A    between atoms: C_9  and  O_10 
ROOT
HETATM    1  N   UNL     1       5.902  25.945  51.608  1.00  0.00    -0.172 NA
HETATM    2  C   UNL     1       7.071  25.399  51.745  1.00  0.00     0.153 C 
ENDROOT
BRANCH   1   3
HETATM    3  N   UNL     1       5.753  26.669  50.462  1.00  0.00    -0.108 N 
HETATM    4  H   UNL     1       6.550  27.101  49.998  1.00  0.00     0.208 HD
BRANCH   3   5
HETATM    5  C   UNL     1       4.574  26.914  49.808  1.00  0.00     0.723 A 
HETATM    6  N   UNL     1       4.238  26.208  48.768  1.00  0.00    -0.068 NA
HETATM    7  C   UNL     1       3.048  26.506  48.148  1.00  0.00     0.055 A 
HETATM    8  C   UNL     1       2.710  25.675  46.942  1.00  0.00     0.071 C 
HETATM    9  C   UNL     1       2.216  27.476  48.551  1.00  0.00     0.102 A 
HETATM   10  C   UNL     1       2.594  28.263  49.732  1.00  0.00     0.261 A 
HETATM   11  N   UNL     1       3.783  27.917  50.291  1.00  0.00    -0.153 N 
HETATM   12  O   UNL     1       1.876  29.157  50.161  1.00  0.00    -0.268 OA
HETATM   13  H   UNL     1       4.098  28.422  51.102  1.00  0.00     0.187 HD
ENDBRANCH   3   5
ENDBRANCH   1   3
BRANCH   2  14
HETATM   14  C   UNL     1       7.413  24.574  52.924  1.00  0.00     0.019 A 
HETATM   15  C   UNL     1       7.514  25.111  54.217  1.00  0.00     0.094 A 
HETATM   16  C   UNL     1       7.839  24.274  55.290  1.00  0.00     0.046 A 
HETATM   17 BR   UNL     1       7.990  24.941  57.060  1.00  0.00    -0.048 Br
HETATM   18  C   UNL     1       8.063  22.912  55.079  1.00  0.00     0.041 A 
HETATM   19  C   UNL     1       7.960  22.388  53.792  1.00  0.00     0.013 A 
HETATM   20 BR   UNL     1       8.261  20.544  53.505  1.00  0.00    -0.051 Br
HETATM   21  C   UNL     1       7.637  23.209  52.712  1.00  0.00     0.035 A 
BRANCH  15  22
HETATM   22  O   UNL     1       7.301  26.443  54.461  1.00  0.00    -0.358 OA
HETATM   23  H   UNL     1       7.200  26.562  55.429  1.00  0.00     0.218 HD
ENDBRANCH  15  22
ENDBRANCH   2  14
TORSDOF 4
ENDMDL
MODEL 4
REMARK VINA RESULT:      -8.0      6.466      8.722
REMARK  4 active torsions:
REMARK  status: ('A' for Active; 'I' for Inactive)
REMARK    1  A    between atoms: C_4  and  N_5 
REMARK    2  A    between atoms: N_5  and  N_6 
REMARK    3  A    between atoms: C_7  and  C_8 
REMARK    4  A    between atoms: C_9  and  O_10 
ROOT
HETATM    1  N   UNL     1       5.389  25.892  51.218  1.00  0.00    -0.172 NA
HETATM    2  C   UNL     1       6.577  25.555  51.619  1.00  0.00     0.153 C 
ENDROOT
BRANCH   1   3
HETATM    3  N   UNL     1       5.371  26.580  50.041  1.00  0.00    -0.108 N 
HETATM    4  H   UNL     1       6.218  26.990  49.651  1.00  0.00     0.208 HD
BRANCH   3   5
HETATM    5  C   UNL     1       4.270  26.813  49.257  1.00  0.00     0.723 A 
HETATM    6  N   UNL     1       3.486  27.821  49.505  1.00  0.00    -0.068 NA
HETATM    7  C   UNL     1       2.394  27.998  48.689  1.00  0.00     0.055 A 
HETATM    8  C   UNL     1       1.508  29.165  49.023  1.00  0.00     0.071 C 
HETATM    9  C   UNL     1       2.090  27.197  47.659  1.00  0.00     0.102 A 
HETATM   10  C   UNL     1       2.985  26.067  47.377  1.00  0.00     0.261 A 
HETATM   11  N   UNL     1       4.041  25.951  48.224  1.00  0.00    -0.153 N 
HETATM   12  O   UNL     1       2.774  25.301  46.445  1.00  0.00    -0.268 OA
HETATM   13  H   UNL     1       4.688  25.193  48.083  1.00  0.00     0.187 HD
ENDBRANCH   3   5
ENDBRANCH   1   3
BRANCH   2  14
HETATM   14  C   UNL     1       6.790  24.801  52.874  1.00  0.00     0.019 A 
HETATM   15  C   UNL     1       6.425  25.307  54.130  1.00  0.00     0.094 A 
HETATM   16  C   UNL     1       6.653  24.540  55.278  1.00  0.00     0.046 A 
HETATM   17 BR   UNL     1       6.180  25.170  57.004  1.00  0.00    -0.048 Br
HETATM   18  C   UNL     1       7.241  23.277  55.177  1.00  0.00     0.041 A 
HETATM   19  C   UNL     1       7.601  22.783  53.925  1.00  0.00     0.013 A 
HETATM   20 BR   UNL     1       8.396  21.075  53.787  1.00  0.00    -0.051 Br
HETATM   21  C   UNL     1       7.380  23.535  52.772  1.00  0.00     0.035 A 
BRANCH  15  22
HETATM   22  O   UNL     1       5.845  26.541  54.267  1.00  0.00    -0.358 OA
HETATM   23  H   UNL     1       6.112  26.908  55.136  1.00  0.00     0.218 HD
ENDBRANCH  15  22
ENDBRANCH   2  14
TORSDOF 4
ENDMDL
MODEL 5
REMARK VINA RESULT:      -8.0      5.404      7.275
REMARK  4 active torsions:
REMARK  status: ('A' for Active; 'I' for Inactive)
REMARK    1  A    between atoms: C_4  and  N_5 
REMARK    2  A    between atoms: N_5  and  N_6 
REMARK    3  A    between atoms: C_7  and  C_8 
REMARK    4  A    between atoms: C_9  and  O_10 
ROOT
HETATM    1  N   UNL     1       5.733  26.104  52.671  1.00  0.00    -0.172 NA
HETATM    2  C   UNL     1       5.783  24.807  52.705  1.00  0.00     0.153 C 
ENDROOT
BRANCH   1   3
HETATM    3  N   UNL     1       4.772  26.605  51.843  1.00  0.00    -0.108 N 
HETATM    4  H   UNL     1       3.781  26.509  52.057  1.00  0.00     0.208 HD
BRANCH   3   5
HETATM    5  C   UNL     1       4.988  27.268  50.662  1.00  0.00     0.723 A 
HETATM    6  N   UNL     1       5.303  28.530  50.663  1.00  0.00    -0.068 NA
HETATM    7  C   UNL     1       5.498  29.142  49.448  1.00  0.00     0.055 A 
HETATM    8  C   UNL     1       5.844  30.603  49.497  1.00  0.00     0.071 C 
HETATM    9  C   UNL     1       5.383  28.517  48.268  1.00  0.00     0.102 A 
HETATM   10  C   UNL     1       5.039  27.090  48.272  1.00  0.00     0.261 A 
HETATM   11  N   UNL     1       4.857  26.552  49.507  1.00  0.00    -0.153 N 
HETATM   12  O   UNL     1       4.928  26.455  47.232  1.00  0.00    -0.268 OA
HETATM   13  H   UNL     1       4.616  25.578  49.575  1.00  0.00     0.187 HD
ENDBRANCH   3   5
ENDBRANCH   1   3
BRANCH   2  14
HETATM   14  C   UNL     1       6.760  24.088  53.550  1.00  0.00     0.019 A 
HETATM   15  C   UNL     1       7.220  24.599  54.774  1.00  0.00     0.094 A 
HETATM   16  C   UNL     1       8.144  23.864  55.526  1.00  0.00     0.046 A 
HETATM   17 BR   UNL     1       8.803  24.502  57.188  1.00  0.00    -0.048 Br
HETATM   18  C   UNL     1       8.608  22.631  55.065  1.00  0.00     0.041 A 
HETATM   19  C   UNL     1       8.145  22.132  53.849  1.00  0.00     0.013 A 
HETATM   20 BR   UNL     1       8.771  20.462  53.224  1.00  0.00    -0.051 Br
HETATM   21  C   UNL     1       7.225  22.851  53.087  1.00  0.00     0.035 A 
BRANCH  15  22
HETATM   22  O   UNL     1       6.787  25.805  55.258  1.00  0.00    -0.358 OA
HETATM   23  H   UNL     1       5.829  25.882  55.070  1.00  0.00     0.218 HD
ENDBRANCH  15  22
ENDBRANCH   2  14
TORSDOF 4
ENDMDL
MODEL 6
REMARK VINA RESULT:      -7.6      4.257      7.632
REMARK  4 active torsions:
REMARK  status: ('A' for Active; 'I' for Inactive)
REMARK    1  A    between atoms: C_4  and  N_5 
REMARK    2  A    between atoms: N_5  and  N_6 
REMARK    3  A    between atoms: C_7  and  C_8 
REMARK    4  A    between atoms: C_9  and  O_10 
ROOT
HETATM    1  N   UNL     1       7.883  25.533  57.049  1.00  0.00    -0.172 NA
HETATM    2  C   UNL     1       6.721  26.105  56.966  1.00  0.00     0.153 C 
ENDROOT
BRANCH   1   3
HETATM    3  N   UNL     1       7.875  24.203  56.746  1.00  0.00    -0.108 N 
HETATM    4  H   UNL     1       7.877  23.491  57.474  1.00  0.00     0.208 HD
BRANCH   3   5
HETATM    5  C   UNL     1       7.870  23.661  55.487  1.00  0.00     0.723 A 
HETATM    6  N   UNL     1       7.895  24.430  54.438  1.00  0.00    -0.068 NA
HETATM    7  C   UNL     1       7.880  23.828  53.202  1.00  0.00     0.055 A 
HETATM    8  C   UNL     1       7.894  24.756  52.020  1.00  0.00     0.071 C 
HETATM    9  C   UNL     1       7.840  22.502  53.016  1.00  0.00     0.102 A 
HETATM   10  C   UNL     1       7.823  21.638  54.203  1.00  0.00     0.261 A 
HETATM   11  N   UNL     1       7.836  22.300  55.390  1.00  0.00    -0.153 N 
HETATM   12  O   UNL     1       7.797  20.418  54.106  1.00  0.00    -0.268 OA
HETATM   13  H   UNL     1       7.822  21.762  56.239  1.00  0.00     0.187 HD
ENDBRANCH   3   5
ENDBRANCH   1   3
BRANCH   2  14
HETATM   14  C   UNL     1       6.538  27.544  57.255  1.00  0.00     0.019 A 
HETATM   15  C   UNL     1       5.318  28.206  57.050  1.00  0.00     0.094 A 
HETATM   16  C   UNL     1       5.213  29.570  57.347  1.00  0.00     0.046 A 
HETATM   17 BR   UNL     1       3.590  30.520  57.091  1.00  0.00    -0.048 Br
HETATM   18  C   UNL     1       6.314  30.270  57.845  1.00  0.00     0.041 A 
HETATM   19  C   UNL     1       7.521  29.604  58.045  1.00  0.00     0.013 A 
HETATM   20 BR   UNL     1       9.011  30.550  58.720  1.00  0.00    -0.051 Br
HETATM   21  C   UNL     1       7.642  28.246  57.754  1.00  0.00     0.035 A 
BRANCH  15  22
HETATM   22  O   UNL     1       4.217  27.551  56.563  1.00  0.00    -0.358 OA
HETATM   23  H   UNL     1       3.591  27.417  57.305  1.00  0.00     0.218 HD
ENDBRANCH  15  22
ENDBRANCH   2  14
TORSDOF 4
ENDMDL
MODEL 7
REMARK VINA RESULT:      -7.4      5.931      8.398
REMARK  4 active torsions:
REMARK  status: ('A' for Active; 'I' for Inactive)
REMARK    1  A    between atoms: C_4  and  N_5 
REMARK    2  A    between atoms: N_5  and  N_6 
REMARK    3  A    between atoms: C_7  and  C_8 
REMARK    4  A    between atoms: C_9  and  O_10 
ROOT
HETATM    1  N   UNL     1       6.991  25.647  52.017  1.00  0.00    -0.172 NA
HETATM    2  C   UNL     1       6.366  26.784  52.049  1.00  0.00     0.153 C 
ENDROOT
BRANCH   1   3
HETATM    3  N   UNL     1       7.730  25.382  53.132  1.00  0.00    -0.108 N 
HETATM    4  H   UNL     1       8.273  26.109  53.595  1.00  0.00     0.208 HD
BRANCH   3   5
HETATM    5  C   UNL     1       7.848  24.167  53.754  1.00  0.00     0.723 A 
HETATM    6  N   UNL     1       7.833  23.067  53.060  1.00  0.00    -0.068 NA
HETATM    7  C   UNL     1       7.946  21.878  53.741  1.00  0.00     0.055 A 
HETATM    8  C   UNL     1       7.908  20.634  52.900  1.00  0.00     0.071 C 
HETATM    9  C   UNL     1       8.071  21.787  55.073  1.00  0.00     0.102 A 
HETATM   10  C   UNL     1       8.099  23.031  55.851  1.00  0.00     0.261 A 
HETATM   11  N   UNL     1       7.978  24.167  55.113  1.00  0.00    -0.153 N 
HETATM   12  O   UNL     1       8.221  23.022  57.069  1.00  0.00    -0.268 OA
HETATM   13  H   UNL     1       7.987  25.052  55.591  1.00  0.00     0.187 HD
ENDBRANCH   3   5
ENDBRANCH   1   3
BRANCH   2  14
HETATM   14  C   UNL     1       5.514  27.237  50.928  1.00  0.00     0.019 A 
HETATM   15  C   UNL     1       5.328  28.593  50.622  1.00  0.00     0.094 A 
HETATM   16  C   UNL     1       4.510  28.953  49.545  1.00  0.00     0.046 A 
HETATM   17 BR   UNL     1       4.221  30.770  49.081  1.00  0.00    -0.048 Br
HETATM   18  C   UNL     1       3.879  27.971  48.779  1.00  0.00     0.041 A 
HETATM   19  C   UNL     1       4.069  26.626  49.091  1.00  0.00     0.013 A 
HETATM   20 BR   UNL     1       3.218  25.295  48.055  1.00  0.00    -0.051 Br
HETATM   21  C   UNL     1       4.882  26.251  50.161  1.00  0.00     0.035 A 
BRANCH  15  22
HETATM   22  O   UNL     1       5.931  29.585  51.351  1.00  0.00    -0.358 OA
HETATM   23  H   UNL     1       6.901  29.479  51.264  1.00  0.00     0.218 HD
ENDBRANCH  15  22
ENDBRANCH   2  14
TORSDOF 4
ENDMDL
MODEL 8
REMARK VINA RESULT:      -7.4      5.819      7.847
REMARK  4 active torsions:
REMARK  status: ('A' for Active; 'I' for Inactive)
REMARK    1  A    between atoms: C_4  and  N_5 
REMARK    2  A    between atoms: N_5  and  N_6 
REMARK    3  A    between atoms: C_7  and  C_8 
REMARK    4  A    between atoms: C_9  and  O_10 
ROOT
HETATM    1  N   UNL     1       5.690  25.142  51.939  1.00  0.00    -0.172 NA
HETATM    2  C   UNL     1       5.390  24.825  53.161  1.00  0.00     0.153 C 
ENDROOT
BRANCH   1   3
HETATM    3  N   UNL     1       4.611  25.420  51.152  1.00  0.00    -0.108 N 
HETATM    4  H   UNL     1       3.724  24.934  51.275  1.00  0.00     0.208 HD
BRANCH   3   5
HETATM    5  C   UNL     1       4.568  26.336  50.133  1.00  0.00     0.723 A 
HETATM    6  N   UNL     1       5.149  27.492  50.261  1.00  0.00    -0.068 NA
HETATM    7  C   UNL     1       5.064  28.372  49.208  1.00  0.00     0.055 A 
HETATM    8  C   UNL     1       5.737  29.701  49.408  1.00  0.00     0.071 C 
HETATM    9  C   UNL     1       4.419  28.110  48.064  1.00  0.00     0.102 A 
HETATM   10  C   UNL     1       3.773  26.799  47.919  1.00  0.00     0.261 A 
HETATM   11  N   UNL     1       3.895  25.982  48.999  1.00  0.00    -0.153 N 
HETATM   12  O   UNL     1       3.176  26.488  46.896  1.00  0.00    -0.268 OA
HETATM   13  H   UNL     1       3.471  25.071  48.962  1.00  0.00     0.187 HD
ENDBRANCH   3   5
ENDBRANCH   1   3
BRANCH   2  14
HETATM   14  C   UNL     1       6.431  24.496  54.158  1.00  0.00     0.019 A 
HETATM   15  C   UNL     1       7.303  23.407  54.008  1.00  0.00     0.094 A 
HETATM   16  C   UNL     1       8.268  23.153  54.989  1.00  0.00     0.046 A 
HETATM   17 BR   UNL     1       9.475  21.696  54.841  1.00  0.00    -0.048 Br
HETATM   18  C   UNL     1       8.365  23.975  56.113  1.00  0.00     0.041 A 
HETATM   19  C   UNL     1       7.495  25.055  56.253  1.00  0.00     0.013 A 
HETATM   20 BR   UNL     1       7.626  26.170  57.773  1.00  0.00    -0.051 Br
HETATM   21  C   UNL     1       6.528  25.321  55.285  1.00  0.00     0.035 A 
BRANCH  15  22
HETATM   22  O   UNL     1       7.237  22.578  52.918  1.00  0.00    -0.358 OA
HETATM   23  H   UNL     1       6.421  22.794  52.421  1.00  0.00     0.218 HD
ENDBRANCH  15  22
ENDBRANCH   2  14
TORSDOF 4
ENDMDL
MODEL 9
REMARK VINA RESULT:      -7.3      5.439      7.885
REMARK  4 active torsions:
REMARK  status: ('A' for Active; 'I' for Inactive)
REMARK    1  A    between atoms: C_4  and  N_5 
REMARK    2  A    between atoms: N_5  and  N_6 
REMARK    3  A    between atoms: C_7  and  C_8 
REMARK    4  A    between atoms: C_9  and  O_10 
ROOT
HETATM    1  N   UNL     1       5.082  25.632  53.107  1.00  0.00    -0.172 NA
HETATM    2  C   UNL     1       5.697  26.670  52.629  1.00  0.00     0.153 C 
ENDROOT
BRANCH   1   3
HETATM    3  N   UNL     1       5.536  25.225  54.327  1.00  0.00    -0.108 N 
HETATM    4  H   UNL     1       5.084  25.524  55.190  1.00  0.00     0.208 HD
BRANCH   3   5
HETATM    5  C   UNL     1       6.611  24.406  54.558  1.00  0.00     0.723 A 
HETATM    6  N   UNL     1       6.857  23.402  53.768  1.00  0.00    -0.068 NA
HETATM    7  C   UNL     1       7.944  22.612  54.055  1.00  0.00     0.055 A 
HETATM    8  C   UNL     1       8.179  21.456  53.125  1.00  0.00     0.071 C 
HETATM    9  C   UNL     1       8.761  22.813  55.098  1.00  0.00     0.102 A 
HETATM   10  C   UNL     1       8.486  23.954  55.981  1.00  0.00     0.261 A 
HETATM   11  N   UNL     1       7.395  24.689  55.639  1.00  0.00    -0.153 N 
HETATM   12  O   UNL     1       9.198  24.203  56.945  1.00  0.00    -0.268 OA
HETATM   13  H   UNL     1       7.153  25.482  56.208  1.00  0.00     0.187 HD
ENDBRANCH   3   5
ENDBRANCH   1   3
BRANCH   2  14
HETATM   14  C   UNL     1       5.336  27.254  51.319  1.00  0.00     0.019 A 
HETATM   15  C   UNL     1       5.555  28.605  51.009  1.00  0.00     0.094 A 
HETATM   16  C   UNL     1       5.193  29.093  49.749  1.00  0.00     0.046 A 
HETATM   17 BR   UNL     1       5.464  30.909  49.271  1.00  0.00    -0.048 Br
HETATM   18  C   UNL     1       4.616  28.243  48.803  1.00  0.00     0.041 A 
HETATM   19  C   UNL     1       4.402  26.904  49.120  1.00  0.00     0.013 A 
HETATM   20 BR   UNL     1       3.623  25.752  47.840  1.00  0.00    -0.051 Br
HETATM   21  C   UNL     1       4.758  26.402  50.371  1.00  0.00     0.035 A 
BRANCH  15  22
HETATM   22  O   UNL     1       6.120  29.468  51.912  1.00  0.00    -0.358 OA
HETATM   23  H   UNL     1       5.697  30.345  51.800  1.00  0.00     0.218 HD
ENDBRANCH  15  22
ENDBRANCH   2  14
TORSDOF 4
ENDMDL
MODEL 10
REMARK VINA RESULT:      -7.3     11.401     14.824
REMARK  4 active torsions:
REMARK  status: ('A' for Active; 'I' for Inactive)
REMARK    1  A    between atoms: C_4  and  N_5 
REMARK    2  A    between atoms: N_5  and  N_6 
REMARK    3  A    between atoms: C_7  and  C_8 
REMARK    4  A    between atoms: C_9  and  O_10 
ROOT
HETATM    1  N   UNL     1       6.482  34.177  68.234  1.00  0.00    -0.172 NA
HETATM    2  C   UNL     1       5.929  33.818  69.352  1.00  0.00     0.153 C 
ENDROOT
BRANCH   1   3
HETATM    3  N   UNL     1       5.595  34.457  67.236  1.00  0.00    -0.108 N 
HETATM    4  H   UNL     1       4.808  35.086  67.385  1.00  0.00     0.208 HD
BRANCH   3   5
HETATM    5  C   UNL     1       5.628  33.955  65.961  1.00  0.00     0.723 A 
HETATM    6  N   UNL     1       6.755  33.588  65.426  1.00  0.00    -0.068 NA
HETATM    7  C   UNL     1       6.726  33.101  64.141  1.00  0.00     0.055 A 
HETATM    8  C   UNL     1       8.053  32.704  63.559  1.00  0.00     0.071 C 
HETATM    9  C   UNL     1       5.609  32.983  63.410  1.00  0.00     0.102 A 
HETATM   10  C   UNL     1       4.337  33.388  64.023  1.00  0.00     0.261 A 
HETATM   11  N   UNL     1       4.442  33.863  65.292  1.00  0.00    -0.153 N 
HETATM   12  O   UNL     1       3.277  33.297  63.417  1.00  0.00    -0.268 OA
HETATM   13  H   UNL     1       3.604  34.160  65.764  1.00  0.00     0.187 HD
ENDBRANCH   3   5
ENDBRANCH   1   3
BRANCH   2  14
HETATM   14  C   UNL     1       6.733  33.479  70.546  1.00  0.00     0.019 A 
HETATM   15  C   UNL     1       6.915  32.158  70.984  1.00  0.00     0.094 A 
HETATM   16  C   UNL     1       7.691  31.907  72.121  1.00  0.00     0.046 A 
HETATM   17 BR   UNL     1       7.973  30.143  72.761  1.00  0.00    -0.048 Br
HETATM   18  C   UNL     1       8.283  32.962  72.818  1.00  0.00     0.041 A 
HETATM   19  C   UNL     1       8.097  34.270  72.376  1.00  0.00     0.013 A 
HETATM   20 BR   UNL     1       8.897  35.700  73.318  1.00  0.00    -0.051 Br
HETATM   21  C   UNL     1       7.326  34.537  71.245  1.00  0.00     0.035 A 
BRANCH  15  22
HETATM   22  O   UNL     1       6.350  31.098  70.324  1.00  0.00    -0.358 OA
HETATM   23  H   UNL     1       5.413  31.031  70.602  1.00  0.00     0.218 HD
ENDBRANCH  15  22
ENDBRANCH   2  14
TORSDOF 4
ENDMDL
