MODEL 1
REMARK VINA RESULT:      -9.6      0.000      0.000
REMARK  5 active torsions:
REMARK  status: ('A' for Active; 'I' for Inactive)
REMARK    1  A    between atoms: C_3  and  O_4 
REMARK    2  A    between atoms: C_6  and  N_7 
REMARK       I    between atoms: N_7  and  C_8 
REMARK    3  A    between atoms: C_8  and  C_9 
REMARK    4  A    between atoms: C_14  and  C_15 
REMARK    5  A    between atoms: C_23  and  C_24 
ROOT
HETATM    1  C   UNL     1       7.716  28.494  57.408  1.00  0.00     0.148 A 
HETATM    2  N   UNL     1       7.212  28.583  56.154  1.00  0.00    -0.165 NA
HETATM    3  N   UNL     1       6.825  27.322  55.883  1.00  0.00    -0.240 N 
HETATM    4  C   UNL     1       7.012  26.448  56.917  1.00  0.00     0.123 A 
HETATM    5  N   UNL     1       6.633  25.156  56.835  1.00  0.00    -0.366 N 
HETATM    6  C   UNL     1       6.030  24.584  55.638  1.00  0.00     0.118 C 
HETATM    7  C   UNL     1       5.378  25.678  54.772  1.00  0.00     0.066 C 
HETATM    8  C   UNL     1       6.208  26.966  54.621  1.00  0.00     0.221 C 
HETATM    9  C   UNL     1       7.605  27.171  57.917  1.00  0.00     0.089 A 
HETATM   10  H   UNL     1       6.858  24.493  57.575  1.00  0.00     0.161 HD
ENDROOT
BRANCH   1  11
HETATM   11  C   UNL     1       8.293  29.659  58.105  1.00  0.00     0.276 C 
HETATM   12  N   UNL     1       7.735  29.835  59.356  1.00  0.00    -0.322 N 
HETATM   13  H   UNL     1       7.022  29.145  59.578  1.00  0.00     0.169 HD
HETATM   14  O   UNL     1       9.153  30.354  57.577  1.00  0.00    -0.266 OA
BRANCH  12  15
HETATM   15  C   UNL     1       8.014  30.831  60.306  1.00  0.00     0.037 A 
HETATM   16  C   UNL     1       7.139  31.868  60.630  1.00  0.00     0.066 A 
HETATM   17  C   UNL     1       7.504  32.813  61.589  1.00  0.00     0.067 A 
HETATM   18  C   UNL     1       8.732  32.743  62.239  1.00  0.00     0.036 A 
HETATM   19  C   UNL     1       9.611  31.710  61.919  1.00  0.00     0.005 A 
HETATM   20  C   UNL     1       9.253  30.760  60.956  1.00  0.00     0.029 A 
BRANCH  17  21
HETATM   21  O   UNL     1       6.616  33.810  61.869  1.00  0.00    -0.361 OA
HETATM   22  H   UNL     1       7.103  34.640  61.988  1.00  0.00     0.217 HD
ENDBRANCH  17  21
ENDBRANCH  12  15
ENDBRANCH   1  11
BRANCH   8  23
HETATM   23  C   UNL     1       7.251  26.906  53.529  1.00  0.00     0.409 C 
HETATM   24  F   UNL     1       6.807  26.370  52.377  1.00  0.00    -0.169 F 
HETATM   25  F   UNL     1       7.700  28.155  53.242  1.00  0.00    -0.169 F 
HETATM   26  F   UNL     1       8.338  26.195  53.912  1.00  0.00    -0.169 F 
ENDBRANCH   8  23
BRANCH   6  27
HETATM   27  C   UNL     1       6.971  23.652  54.893  1.00  0.00    -0.035 A 
HETATM   28  C   UNL     1       8.051  23.073  55.588  1.00  0.00     0.012 A 
HETATM   29  C   UNL     1       8.954  22.228  54.940  1.00  0.00     0.043 A 
HETATM   30  C   UNL     1       8.786  21.953  53.590  1.00  0.00     0.116 A 
HETATM   31  F   UNL     1       9.652  21.141  52.968  1.00  0.00    -0.206 F 
HETATM   32  C   UNL     1       7.734  22.510  52.876  1.00  0.00     0.043 A 
HETATM   33  C   UNL     1       6.835  23.361  53.524  1.00  0.00     0.012 A 
ENDBRANCH   6  27
TORSDOF 5
ENDMDL
MODEL 2
REMARK VINA RESULT:      -9.4      5.977      9.677
REMARK  5 active torsions:
REMARK  status: ('A' for Active; 'I' for Inactive)
REMARK    1  A    between atoms: C_3  and  O_4 
REMARK    2  A    between atoms: C_6  and  N_7 
REMARK       I    between atoms: N_7  and  C_8 
REMARK    3  A    between atoms: C_8  and  C_9 
REMARK    4  A    between atoms: C_14  and  C_15 
REMARK    5  A    between atoms: C_23  and  C_24 
ROOT
HETATM    1  C   UNL     1       4.279  27.404  50.927  1.00  0.00     0.148 A 
HETATM    2  N   UNL     1       5.066  26.321  51.128  1.00  0.00    -0.165 NA
HETATM    3  N   UNL     1       5.250  26.310  52.461  1.00  0.00    -0.240 N 
HETATM    4  C   UNL     1       4.580  27.300  53.123  1.00  0.00     0.123 A 
HETATM    5  N   UNL     1       4.612  27.406  54.468  1.00  0.00    -0.366 N 
HETATM    6  C   UNL     1       5.381  26.503  55.313  1.00  0.00     0.118 C 
HETATM    7  C   UNL     1       5.641  25.163  54.597  1.00  0.00     0.066 C 
HETATM    8  C   UNL     1       6.041  25.288  53.115  1.00  0.00     0.221 C 
HETATM    9  C   UNL     1       3.953  28.040  52.157  1.00  0.00     0.089 A 
HETATM   10  H   UNL     1       4.184  28.198  54.944  1.00  0.00     0.161 HD
ENDROOT
BRANCH   1  11
HETATM   11  C   UNL     1       3.845  27.821  49.581  1.00  0.00     0.276 C 
HETATM   12  N   UNL     1       2.469  27.859  49.475  1.00  0.00    -0.322 N 
HETATM   13  H   UNL     1       1.992  27.588  50.332  1.00  0.00     0.169 HD
HETATM   14  O   UNL     1       4.659  28.076  48.701  1.00  0.00    -0.266 OA
BRANCH  12  15
HETATM   15  C   UNL     1       1.686  28.195  48.358  1.00  0.00     0.037 A 
HETATM   16  C   UNL     1       1.292  27.284  47.378  1.00  0.00     0.066 A 
HETATM   17  C   UNL     1       0.513  27.711  46.302  1.00  0.00     0.067 A 
HETATM   18  C   UNL     1       0.113  29.038  46.186  1.00  0.00     0.036 A 
HETATM   19  C   UNL     1       0.503  29.954  47.161  1.00  0.00     0.005 A 
HETATM   20  C   UNL     1       1.287  29.534  48.240  1.00  0.00     0.029 A 
BRANCH  17  21
HETATM   21  O   UNL     1       0.156  26.784  45.368  1.00  0.00    -0.361 OA
HETATM   22  H   UNL     1      -0.151  27.244  44.571  1.00  0.00     0.217 HD
ENDBRANCH  17  21
ENDBRANCH  12  15
ENDBRANCH   1  11
BRANCH   8  23
HETATM   23  C   UNL     1       7.514  25.544  52.891  1.00  0.00     0.409 C 
HETATM   24  F   UNL     1       7.851  26.846  52.901  1.00  0.00    -0.169 F 
HETATM   25  F   UNL     1       8.246  24.933  53.859  1.00  0.00    -0.169 F 
HETATM   26  F   UNL     1       7.940  25.025  51.715  1.00  0.00    -0.169 F 
ENDBRANCH   8  23
BRANCH   6  27
HETATM   27  C   UNL     1       6.615  27.161  55.908  1.00  0.00    -0.035 A 
HETATM   28  C   UNL     1       6.903  28.499  55.573  1.00  0.00     0.012 A 
HETATM   29  C   UNL     1       8.037  29.140  56.079  1.00  0.00     0.043 A 
HETATM   30  C   UNL     1       8.894  28.448  56.923  1.00  0.00     0.116 A 
HETATM   31  F   UNL     1       9.981  29.062  57.408  1.00  0.00    -0.206 F 
HETATM   32  C   UNL     1       8.640  27.128  57.269  1.00  0.00     0.043 A 
HETATM   33  C   UNL     1       7.509  26.486  56.758  1.00  0.00     0.012 A 
ENDBRANCH   6  27
TORSDOF 5
ENDMDL
MODEL 3
REMARK VINA RESULT:      -9.4      1.722      2.133
REMARK  5 active torsions:
REMARK  status: ('A' for Active; 'I' for Inactive)
REMARK    1  A    between atoms: C_3  and  O_4 
REMARK    2  A    between atoms: C_6  and  N_7 
REMARK       I    between atoms: N_7  and  C_8 
REMARK    3  A    between atoms: C_8  and  C_9 
REMARK    4  A    between atoms: C_14  and  C_15 
REMARK    5  A    between atoms: C_23  and  C_24 
ROOT
HETATM    1  C   UNL     1       6.090  30.140  57.275  1.00  0.00     0.148 A 
HETATM    2  N   UNL     1       6.703  30.101  56.069  1.00  0.00    -0.165 NA
HETATM    3  N   UNL     1       6.254  28.952  55.527  1.00  0.00    -0.240 N 
HETATM    4  C   UNL     1       5.351  28.286  56.306  1.00  0.00     0.123 A 
HETATM    5  N   UNL     1       4.762  27.144  55.896  1.00  0.00    -0.366 N 
HETATM    6  C   UNL     1       5.063  26.516  54.616  1.00  0.00     0.118 C 
HETATM    7  C   UNL     1       5.629  27.543  53.616  1.00  0.00     0.066 C 
HETATM    8  C   UNL     1       6.663  28.519  54.206  1.00  0.00     0.221 C 
HETATM    9  C   UNL     1       5.233  29.020  57.456  1.00  0.00     0.089 A 
HETATM   10  H   UNL     1       4.160  26.608  56.518  1.00  0.00     0.161 HD
ENDROOT
BRANCH   1  11
HETATM   11  C   UNL     1       6.320  31.235  58.236  1.00  0.00     0.276 C 
HETATM   12  N   UNL     1       6.832  30.768  59.431  1.00  0.00    -0.322 N 
HETATM   13  H   UNL     1       6.954  29.759  59.448  1.00  0.00     0.169 HD
HETATM   14  O   UNL     1       6.054  32.397  57.952  1.00  0.00    -0.266 OA
BRANCH  12  15
HETATM   15  C   UNL     1       7.169  31.498  60.583  1.00  0.00     0.037 A 
HETATM   16  C   UNL     1       6.364  32.491  61.141  1.00  0.00     0.066 A 
HETATM   17  C   UNL     1       6.782  33.163  62.290  1.00  0.00     0.067 A 
HETATM   18  C   UNL     1       7.995  32.860  62.900  1.00  0.00     0.036 A 
HETATM   19  C   UNL     1       8.805  31.869  62.347  1.00  0.00     0.005 A 
HETATM   20  C   UNL     1       8.393  31.194  61.193  1.00  0.00     0.029 A 
BRANCH  17  21
HETATM   21  O   UNL     1       5.962  34.129  62.796  1.00  0.00    -0.361 OA
HETATM   22  H   UNL     1       5.300  33.710  63.367  1.00  0.00     0.217 HD
ENDBRANCH  17  21
ENDBRANCH  12  15
ENDBRANCH   1  11
BRANCH   8  23
HETATM   23  C   UNL     1       8.073  27.977  54.247  1.00  0.00     0.409 C 
HETATM   24  F   UNL     1       9.026  28.918  54.118  1.00  0.00    -0.169 F 
HETATM   25  F   UNL     1       8.295  27.341  55.427  1.00  0.00    -0.169 F 
HETATM   26  F   UNL     1       8.283  27.054  53.278  1.00  0.00    -0.169 F 
ENDBRANCH   8  23
BRANCH   6  27
HETATM   27  C   UNL     1       5.884  25.245  54.761  1.00  0.00    -0.035 A 
HETATM   28  C   UNL     1       6.295  24.843  56.048  1.00  0.00     0.012 A 
HETATM   29  C   UNL     1       7.069  23.693  56.229  1.00  0.00     0.043 A 
HETATM   30  C   UNL     1       7.438  22.936  55.126  1.00  0.00     0.116 A 
HETATM   31  F   UNL     1       8.178  21.833  55.301  1.00  0.00    -0.206 F 
HETATM   32  C   UNL     1       7.051  23.307  53.847  1.00  0.00     0.043 A 
HETATM   33  C   UNL     1       6.283  24.461  53.665  1.00  0.00     0.012 A 
ENDBRANCH   6  27
TORSDOF 5
ENDMDL
MODEL 4
REMARK VINA RESULT:      -9.2      6.723     10.052
REMARK  5 active torsions:
REMARK  status: ('A' for Active; 'I' for Inactive)
REMARK    1  A    between atoms: C_3  and  O_4 
REMARK    2  A    between atoms: C_6  and  N_7 
REMARK       I    between atoms: N_7  and  C_8 
REMARK    3  A    between atoms: C_8  and  C_9 
REMARK    4  A    between atoms: C_14  and  C_15 
REMARK    5  A    between atoms: C_23  and  C_24 
ROOT
HETATM    1  C   UNL     1       5.363  26.031  51.554  1.00  0.00     0.148 A 
HETATM    2  N   UNL     1       5.157  25.584  50.293  1.00  0.00    -0.165 NA
HETATM    3  N   UNL     1       4.907  26.710  49.598  1.00  0.00    -0.240 N 
HETATM    4  C   UNL     1       4.992  27.853  50.342  1.00  0.00     0.123 A 
HETATM    5  N   UNL     1       4.821  29.074  49.795  1.00  0.00    -0.366 N 
HETATM    6  C   UNL     1       4.502  29.270  48.386  1.00  0.00     0.118 C 
HETATM    7  C   UNL     1       4.945  28.058  47.546  1.00  0.00     0.066 C 
HETATM    8  C   UNL     1       4.637  26.686  48.174  1.00  0.00     0.221 C 
HETATM    9  C   UNL     1       5.269  27.449  51.621  1.00  0.00     0.089 A 
HETATM   10  H   UNL     1       4.797  29.912  50.373  1.00  0.00     0.161 HD
ENDROOT
BRANCH   1  11
HETATM   11  C   UNL     1       5.646  25.115  52.674  1.00  0.00     0.276 C 
HETATM   12  N   UNL     1       6.875  24.501  52.536  1.00  0.00    -0.322 N 
HETATM   13  H   UNL     1       7.367  24.775  51.689  1.00  0.00     0.169 HD
HETATM   14  O   UNL     1       4.839  24.954  53.583  1.00  0.00    -0.266 OA
BRANCH  12  15
HETATM   15  C   UNL     1       7.486  23.564  53.386  1.00  0.00     0.037 A 
HETATM   16  C   UNL     1       7.676  22.221  53.060  1.00  0.00     0.066 A 
HETATM   17  C   UNL     1       8.295  21.364  53.970  1.00  0.00     0.067 A 
HETATM   18  C   UNL     1       8.733  21.824  55.208  1.00  0.00     0.036 A 
HETATM   19  C   UNL     1       8.545  23.164  55.540  1.00  0.00     0.005 A 
HETATM   20  C   UNL     1       7.923  24.029  54.634  1.00  0.00     0.029 A 
BRANCH  17  21
HETATM   21  O   UNL     1       8.455  20.059  53.607  1.00  0.00    -0.361 OA
HETATM   22  H   UNL     1       7.719  19.541  53.966  1.00  0.00     0.217 HD
ENDBRANCH  17  21
ENDBRANCH  12  15
ENDBRANCH   1  11
BRANCH   8  23
HETATM   23  C   UNL     1       3.234  26.188  47.916  1.00  0.00     0.409 C 
HETATM   24  F   UNL     1       2.307  26.714  48.737  1.00  0.00    -0.169 F 
HETATM   25  F   UNL     1       2.859  26.486  46.645  1.00  0.00    -0.169 F 
HETATM   26  F   UNL     1       3.152  24.841  48.025  1.00  0.00    -0.169 F 
ENDBRANCH   8  23
BRANCH   6  27
HETATM   27  C   UNL     1       3.066  29.714  48.164  1.00  0.00    -0.035 A 
HETATM   28  C   UNL     1       2.571  29.790  46.847  1.00  0.00     0.012 A 
HETATM   29  C   UNL     1       1.264  30.212  46.592  1.00  0.00     0.043 A 
HETATM   30  C   UNL     1       0.439  30.563  47.652  1.00  0.00     0.116 A 
HETATM   31  F   UNL     1      -0.814  30.967  47.408  1.00  0.00    -0.206 F 
HETATM   32  C   UNL     1       0.898  30.501  48.960  1.00  0.00     0.043 A 
HETATM   33  C   UNL     1       2.208  30.085  49.214  1.00  0.00     0.012 A 
ENDBRANCH   6  27
TORSDOF 5
ENDMDL
MODEL 5
REMARK VINA RESULT:      -9.1      5.903      9.210
REMARK  5 active torsions:
REMARK  status: ('A' for Active; 'I' for Inactive)
REMARK    1  A    between atoms: C_3  and  O_4 
REMARK    2  A    between atoms: C_6  and  N_7 
REMARK       I    between atoms: N_7  and  C_8 
REMARK    3  A    between atoms: C_8  and  C_9 
REMARK    4  A    between atoms: C_14  and  C_15 
REMARK    5  A    between atoms: C_23  and  C_24 
ROOT
HETATM    1  C   UNL     1       4.289  27.599  51.168  1.00  0.00     0.148 A 
HETATM    2  N   UNL     1       4.627  27.912  52.441  1.00  0.00    -0.165 NA
HETATM    3  N   UNL     1       5.719  27.158  52.670  1.00  0.00    -0.240 N 
HETATM    4  C   UNL     1       6.120  26.420  51.592  1.00  0.00     0.123 A 
HETATM    5  N   UNL     1       7.225  25.647  51.630  1.00  0.00    -0.366 N 
HETATM    6  C   UNL     1       8.054  25.511  52.821  1.00  0.00     0.118 C 
HETATM    7  C   UNL     1       7.876  26.721  53.758  1.00  0.00     0.066 C 
HETATM    8  C   UNL     1       6.422  27.196  53.936  1.00  0.00     0.221 C 
HETATM    9  C   UNL     1       5.205  26.668  50.605  1.00  0.00     0.089 A 
HETATM   10  H   UNL     1       7.465  25.032  50.854  1.00  0.00     0.161 HD
ENDROOT
BRANCH   1  11
HETATM   11  C   UNL     1       3.110  28.184  50.503  1.00  0.00     0.276 C 
HETATM   12  N   UNL     1       2.995  27.755  49.195  1.00  0.00    -0.322 N 
HETATM   13  H   UNL     1       3.740  27.123  48.912  1.00  0.00     0.169 HD
HETATM   14  O   UNL     1       2.367  28.960  51.092  1.00  0.00    -0.266 OA
BRANCH  12  15
HETATM   15  C   UNL     1       2.018  28.097  48.245  1.00  0.00     0.037 A 
HETATM   16  C   UNL     1       1.546  27.227  47.261  1.00  0.00     0.066 A 
HETATM   17  C   UNL     1       0.572  27.657  46.360  1.00  0.00     0.067 A 
HETATM   18  C   UNL     1       0.052  28.946  46.423  1.00  0.00     0.036 A 
HETATM   19  C   UNL     1       0.519  29.820  47.402  1.00  0.00     0.005 A 
HETATM   20  C   UNL     1       1.498  29.397  48.307  1.00  0.00     0.029 A 
BRANCH  17  21
HETATM   21  O   UNL     1       0.146  26.771  45.415  1.00  0.00    -0.361 OA
HETATM   22  H   UNL     1      -0.807  26.631  45.524  1.00  0.00     0.217 HD
ENDBRANCH  17  21
ENDBRANCH  12  15
ENDBRANCH   1  11
BRANCH   8  23
HETATM   23  C   UNL     1       5.647  26.434  54.987  1.00  0.00     0.409 C 
HETATM   24  F   UNL     1       6.390  26.041  56.037  1.00  0.00    -0.169 F 
HETATM   25  F   UNL     1       4.640  27.205  55.474  1.00  0.00    -0.169 F 
HETATM   26  F   UNL     1       5.059  25.329  54.473  1.00  0.00    -0.169 F 
ENDBRANCH   8  23
BRANCH   6  27
HETATM   27  C   UNL     1       7.904  24.156  53.492  1.00  0.00    -0.035 A 
HETATM   28  C   UNL     1       8.077  24.062  54.887  1.00  0.00     0.012 A 
HETATM   29  C   UNL     1       7.970  22.833  55.544  1.00  0.00     0.043 A 
HETATM   30  C   UNL     1       7.689  21.688  54.813  1.00  0.00     0.116 A 
HETATM   31  F   UNL     1       7.586  20.511  55.443  1.00  0.00    -0.206 F 
HETATM   32  C   UNL     1       7.516  21.747  53.437  1.00  0.00     0.043 A 
HETATM   33  C   UNL     1       7.630  22.975  52.779  1.00  0.00     0.012 A 
ENDBRANCH   6  27
TORSDOF 5
ENDMDL
MODEL 6
REMARK VINA RESULT:      -8.8      5.758      8.798
REMARK  5 active torsions:
REMARK  status: ('A' for Active; 'I' for Inactive)
REMARK    1  A    between atoms: C_3  and  O_4 
REMARK    2  A    between atoms: C_6  and  N_7 
REMARK       I    between atoms: N_7  and  C_8 
REMARK    3  A    between atoms: C_8  and  C_9 
REMARK    4  A    between atoms: C_14  and  C_15 
REMARK    5  A    between atoms: C_23  and  C_24 
ROOT
HETATM    1  C   UNL     1       5.729  27.593  52.915  1.00  0.00     0.148 A 
HETATM    2  N   UNL     1       6.027  28.671  52.153  1.00  0.00    -0.165 NA
HETATM    3  N   UNL     1       4.830  29.054  51.670  1.00  0.00    -0.240 N 
HETATM    4  C   UNL     1       3.782  28.306  52.125  1.00  0.00     0.123 A 
HETATM    5  N   UNL     1       2.507  28.583  51.782  1.00  0.00    -0.366 N 
HETATM    6  C   UNL     1       2.150  29.672  50.881  1.00  0.00     0.118 C 
HETATM    7  C   UNL     1       3.251  30.748  50.853  1.00  0.00     0.066 C 
HETATM    8  C   UNL     1       4.690  30.202  50.797  1.00  0.00     0.221 C 
HETATM    9  C   UNL     1       4.330  27.337  52.922  1.00  0.00     0.089 A 
HETATM   10  H   UNL     1       1.742  27.967  52.053  1.00  0.00     0.161 HD
ENDROOT
BRANCH   1  11
HETATM   11  C   UNL     1       6.766  26.823  53.625  1.00  0.00     0.276 C 
HETATM   12  N   UNL     1       6.505  25.467  53.601  1.00  0.00    -0.322 N 
HETATM   13  H   UNL     1       5.646  25.232  53.110  1.00  0.00     0.169 HD
HETATM   14  O   UNL     1       7.716  27.380  54.163  1.00  0.00    -0.266 OA
BRANCH  12  15
HETATM   15  C   UNL     1       7.250  24.421  54.172  1.00  0.00     0.037 A 
HETATM   16  C   UNL     1       7.442  24.259  55.544  1.00  0.00     0.066 A 
HETATM   17  C   UNL     1       8.198  23.188  56.020  1.00  0.00     0.067 A 
HETATM   18  C   UNL     1       8.768  22.266  55.148  1.00  0.00     0.036 A 
HETATM   19  C   UNL     1       8.580  22.422  53.776  1.00  0.00     0.005 A 
HETATM   20  C   UNL     1       7.826  23.496  53.292  1.00  0.00     0.029 A 
BRANCH  17  21
HETATM   21  O   UNL     1       8.361  23.074  57.370  1.00  0.00    -0.361 OA
HETATM   22  H   UNL     1       8.539  22.146  57.586  1.00  0.00     0.217 HD
ENDBRANCH  17  21
ENDBRANCH  12  15
ENDBRANCH   1  11
BRANCH   8  23
HETATM   23  C   UNL     1       5.169  29.862  49.404  1.00  0.00     0.409 C 
HETATM   24  F   UNL     1       4.981  28.575  49.060  1.00  0.00    -0.169 F 
HETATM   25  F   UNL     1       4.515  30.621  48.487  1.00  0.00    -0.169 F 
HETATM   26  F   UNL     1       6.486  30.135  49.246  1.00  0.00    -0.169 F 
ENDBRANCH   8  23
BRANCH   6  27
HETATM   27  C   UNL     1       1.698  29.182  49.516  1.00  0.00    -0.035 A 
HETATM   28  C   UNL     1       1.220  30.119  48.578  1.00  0.00     0.012 A 
HETATM   29  C   UNL     1       0.774  29.713  47.318  1.00  0.00     0.043 A 
HETATM   30  C   UNL     1       0.802  28.367  46.983  1.00  0.00     0.116 A 
HETATM   31  F   UNL     1       0.375  27.978  45.774  1.00  0.00    -0.206 F 
HETATM   32  C   UNL     1       1.264  27.419  47.885  1.00  0.00     0.043 A 
HETATM   33  C   UNL     1       1.704  27.824  49.148  1.00  0.00     0.012 A 
ENDBRANCH   6  27
TORSDOF 5
ENDMDL
MODEL 7
REMARK VINA RESULT:      -8.8      4.278      8.985
REMARK  5 active torsions:
REMARK  status: ('A' for Active; 'I' for Inactive)
REMARK    1  A    between atoms: C_3  and  O_4 
REMARK    2  A    between atoms: C_6  and  N_7 
REMARK       I    between atoms: N_7  and  C_8 
REMARK    3  A    between atoms: C_8  and  C_9 
REMARK    4  A    between atoms: C_14  and  C_15 
REMARK    5  A    between atoms: C_23  and  C_24 
ROOT
HETATM    1  C   UNL     1       6.587  25.974  54.980  1.00  0.00     0.148 A 
HETATM    2  N   UNL     1       6.979  26.647  56.087  1.00  0.00    -0.165 NA
HETATM    3  N   UNL     1       6.052  27.616  56.209  1.00  0.00    -0.240 N 
HETATM    4  C   UNL     1       5.065  27.563  55.266  1.00  0.00     0.123 A 
HETATM    5  N   UNL     1       4.028  28.426  55.269  1.00  0.00    -0.366 N 
HETATM    6  C   UNL     1       3.896  29.497  56.249  1.00  0.00     0.118 C 
HETATM    7  C   UNL     1       4.690  29.175  57.530  1.00  0.00     0.066 C 
HETATM    8  C   UNL     1       6.089  28.578  57.292  1.00  0.00     0.221 C 
HETATM    9  C   UNL     1       5.389  26.519  54.441  1.00  0.00     0.089 A 
HETATM   10  H   UNL     1       3.347  28.435  54.512  1.00  0.00     0.161 HD
ENDROOT
BRANCH   1  11
HETATM   11  C   UNL     1       7.346  24.826  54.450  1.00  0.00     0.276 C 
HETATM   12  N   UNL     1       7.150  23.688  55.209  1.00  0.00    -0.322 N 
HETATM   13  H   UNL     1       6.530  23.835  56.000  1.00  0.00     0.169 HD
HETATM   14  O   UNL     1       8.058  24.938  53.459  1.00  0.00    -0.266 OA
BRANCH  12  15
HETATM   15  C   UNL     1       7.706  22.411  55.029  1.00  0.00     0.037 A 
HETATM   16  C   UNL     1       7.754  21.745  53.803  1.00  0.00     0.066 A 
HETATM   17  C   UNL     1       8.328  20.477  53.721  1.00  0.00     0.067 A 
HETATM   18  C   UNL     1       8.862  19.854  54.845  1.00  0.00     0.036 A 
HETATM   19  C   UNL     1       8.816  20.512  56.073  1.00  0.00     0.005 A 
HETATM   20  C   UNL     1       8.239  21.783  56.163  1.00  0.00     0.029 A 
BRANCH  17  21
HETATM   21  O   UNL     1       8.348  19.865  52.502  1.00  0.00    -0.361 OA
HETATM   22  H   UNL     1       7.542  20.104  52.019  1.00  0.00     0.217 HD
ENDBRANCH  17  21
ENDBRANCH  12  15
ENDBRANCH   1  11
BRANCH   8  23
HETATM   23  C   UNL     1       7.166  29.608  57.040  1.00  0.00     0.409 C 
HETATM   24  F   UNL     1       7.270  29.988  55.754  1.00  0.00    -0.169 F 
HETATM   25  F   UNL     1       6.922  30.727  57.770  1.00  0.00    -0.169 F 
HETATM   26  F   UNL     1       8.385  29.165  57.429  1.00  0.00    -0.169 F 
ENDBRANCH   8  23
BRANCH   6  27
HETATM   27  C   UNL     1       4.163  30.872  55.659  1.00  0.00    -0.035 A 
HETATM   28  C   UNL     1       4.408  31.952  56.530  1.00  0.00     0.012 A 
HETATM   29  C   UNL     1       4.638  33.238  56.034  1.00  0.00     0.043 A 
HETATM   30  C   UNL     1       4.625  33.456  54.663  1.00  0.00     0.116 A 
HETATM   31  F   UNL     1       4.846  34.688  54.188  1.00  0.00    -0.206 F 
HETATM   32  C   UNL     1       4.384  32.413  53.780  1.00  0.00     0.043 A 
HETATM   33  C   UNL     1       4.148  31.128  54.276  1.00  0.00     0.012 A 
ENDBRANCH   6  27
TORSDOF 5
ENDMDL
MODEL 8
REMARK VINA RESULT:      -8.7      6.159     11.892
REMARK  5 active torsions:
REMARK  status: ('A' for Active; 'I' for Inactive)
REMARK    1  A    between atoms: C_3  and  O_4 
REMARK    2  A    between atoms: C_6  and  N_7 
REMARK       I    between atoms: N_7  and  C_8 
REMARK    3  A    between atoms: C_8  and  C_9 
REMARK    4  A    between atoms: C_14  and  C_15 
REMARK    5  A    between atoms: C_23  and  C_24 
ROOT
HETATM    1  C   UNL     1       6.528  32.216  60.343  1.00  0.00     0.148 A 
HETATM    2  N   UNL     1       6.729  31.892  61.643  1.00  0.00    -0.165 NA
HETATM    3  N   UNL     1       5.899  32.721  62.304  1.00  0.00    -0.240 N 
HETATM    4  C   UNL     1       5.146  33.519  61.490  1.00  0.00     0.123 A 
HETATM    5  N   UNL     1       4.225  34.373  61.983  1.00  0.00    -0.366 N 
HETATM    6  C   UNL     1       3.985  34.537  63.411  1.00  0.00     0.118 C 
HETATM    7  C   UNL     1       4.439  33.290  64.194  1.00  0.00     0.066 C 
HETATM    8  C   UNL     1       5.790  32.701  63.749  1.00  0.00     0.221 C 
HETATM    9  C   UNL     1       5.539  33.230  60.211  1.00  0.00     0.089 A 
HETATM   10  H   UNL     1       3.733  35.026  61.376  1.00  0.00     0.161 HD
ENDROOT
BRANCH   1  11
HETATM   11  C   UNL     1       7.268  31.562  59.248  1.00  0.00     0.276 C 
HETATM   12  N   UNL     1       6.558  30.507  58.709  1.00  0.00    -0.322 N 
HETATM   13  H   UNL     1       5.659  30.356  59.159  1.00  0.00     0.169 HD
HETATM   14  O   UNL     1       8.382  31.949  58.914  1.00  0.00    -0.266 OA
BRANCH  12  15
HETATM   15  C   UNL     1       6.933  29.643  57.666  1.00  0.00     0.037 A 
HETATM   16  C   UNL     1       6.481  29.762  56.352  1.00  0.00     0.066 A 
HETATM   17  C   UNL     1       6.909  28.855  55.383  1.00  0.00     0.067 A 
HETATM   18  C   UNL     1       7.790  27.825  55.700  1.00  0.00     0.036 A 
HETATM   19  C   UNL     1       8.245  27.700  57.011  1.00  0.00     0.005 A 
HETATM   20  C   UNL     1       7.817  28.604  57.989  1.00  0.00     0.029 A 
BRANCH  17  21
HETATM   21  O   UNL     1       6.436  29.011  54.113  1.00  0.00    -0.361 OA
HETATM   22  H   UNL     1       5.527  29.344  54.156  1.00  0.00     0.217 HD
ENDBRANCH  17  21
ENDBRANCH  12  15
ENDBRANCH   1  11
BRANCH   8  23
HETATM   23  C   UNL     1       6.993  33.371  64.373  1.00  0.00     0.409 C 
HETATM   24  F   UNL     1       6.876  33.582  65.696  1.00  0.00    -0.169 F 
HETATM   25  F   UNL     1       8.101  32.608  64.185  1.00  0.00    -0.169 F 
HETATM   26  F   UNL     1       7.257  34.566  63.794  1.00  0.00    -0.169 F 
ENDBRANCH   8  23
BRANCH   6  27
HETATM   27  C   UNL     1       4.512  35.858  63.949  1.00  0.00    -0.035 A 
HETATM   28  C   UNL     1       4.998  36.819  63.040  1.00  0.00     0.012 A 
HETATM   29  C   UNL     1       5.511  38.038  63.488  1.00  0.00     0.043 A 
HETATM   30  C   UNL     1       5.543  38.308  64.850  1.00  0.00     0.116 A 
HETATM   31  F   UNL     1       6.034  39.478  65.279  1.00  0.00    -0.206 F 
HETATM   32  C   UNL     1       5.074  37.381  65.769  1.00  0.00     0.043 A 
HETATM   33  C   UNL     1       4.567  36.158  65.321  1.00  0.00     0.012 A 
ENDBRANCH   6  27
TORSDOF 5
ENDMDL
MODEL 9
REMARK VINA RESULT:      -8.6      2.170      2.822
REMARK  5 active torsions:
REMARK  status: ('A' for Active; 'I' for Inactive)
REMARK    1  A    between atoms: C_3  and  O_4 
REMARK    2  A    between atoms: C_6  and  N_7 
REMARK       I    between atoms: N_7  and  C_8 
REMARK    3  A    between atoms: C_8  and  C_9 
REMARK    4  A    between atoms: C_14  and  C_15 
REMARK    5  A    between atoms: C_23  and  C_24 
ROOT
HETATM    1  C   UNL     1       5.941  29.933  57.221  1.00  0.00     0.148 A 
HETATM    2  N   UNL     1       6.532  29.900  56.003  1.00  0.00    -0.165 NA
HETATM    3  N   UNL     1       6.153  28.708  55.505  1.00  0.00    -0.240 N 
HETATM    4  C   UNL     1       5.314  28.005  56.321  1.00  0.00     0.123 A 
HETATM    5  N   UNL     1       4.797  26.813  55.956  1.00  0.00    -0.366 N 
HETATM    6  C   UNL     1       5.116  26.170  54.688  1.00  0.00     0.118 C 
HETATM    7  C   UNL     1       5.589  27.203  53.648  1.00  0.00     0.066 C 
HETATM    8  C   UNL     1       6.565  28.265  54.187  1.00  0.00     0.221 C 
HETATM    9  C   UNL     1       5.168  28.762  57.452  1.00  0.00     0.089 A 
HETATM   10  H   UNL     1       4.246  26.256  56.606  1.00  0.00     0.161 HD
ENDROOT
BRANCH   1  11
HETATM   11  C   UNL     1       6.114  31.069  58.146  1.00  0.00     0.276 C 
HETATM   12  N   UNL     1       4.957  31.335  58.851  1.00  0.00    -0.322 N 
HETATM   13  H   UNL     1       4.187  30.716  58.609  1.00  0.00     0.169 HD
HETATM   14  O   UNL     1       7.179  31.670  58.223  1.00  0.00    -0.266 OA
BRANCH  12  15
HETATM   15  C   UNL     1       4.727  32.338  59.809  1.00  0.00     0.037 A 
HETATM   16  C   UNL     1       5.649  32.708  60.788  1.00  0.00     0.066 A 
HETATM   17  C   UNL     1       5.331  33.717  61.697  1.00  0.00     0.067 A 
HETATM   18  C   UNL     1       4.105  34.372  61.647  1.00  0.00     0.036 A 
HETATM   19  C   UNL     1       3.179  34.006  60.672  1.00  0.00     0.005 A 
HETATM   20  C   UNL     1       3.489  32.993  59.759  1.00  0.00     0.029 A 
BRANCH  17  21
HETATM   21  O   UNL     1       6.264  34.041  62.639  1.00  0.00    -0.361 OA
HETATM   22  H   UNL     1       6.890  34.674  62.255  1.00  0.00     0.217 HD
ENDBRANCH  17  21
ENDBRANCH  12  15
ENDBRANCH   1  11
BRANCH   8  23
HETATM   23  C   UNL     1       8.010  27.822  54.212  1.00  0.00     0.409 C 
HETATM   24  F   UNL     1       8.321  26.917  53.267  1.00  0.00    -0.169 F 
HETATM   25  F   UNL     1       8.829  28.890  54.030  1.00  0.00    -0.169 F 
HETATM   26  F   UNL     1       8.349  27.289  55.410  1.00  0.00    -0.169 F 
ENDBRANCH   8  23
BRANCH   6  27
HETATM   27  C   UNL     1       6.025  24.963  54.851  1.00  0.00    -0.035 A 
HETATM   28  C   UNL     1       6.496  24.634  56.138  1.00  0.00     0.012 A 
HETATM   29  C   UNL     1       7.351  23.546  56.335  1.00  0.00     0.043 A 
HETATM   30  C   UNL     1       7.742  22.778  55.247  1.00  0.00     0.116 A 
HETATM   31  F   UNL     1       8.561  21.735  55.436  1.00  0.00    -0.206 F 
HETATM   32  C   UNL     1       7.298  23.079  53.967  1.00  0.00     0.043 A 
HETATM   33  C   UNL     1       6.449  24.171  53.770  1.00  0.00     0.012 A 
ENDBRANCH   6  27
TORSDOF 5
ENDMDL
MODEL 10
REMARK VINA RESULT:      -8.5      6.231      9.420
REMARK  5 active torsions:
REMARK  status: ('A' for Active; 'I' for Inactive)
REMARK    1  A    between atoms: C_3  and  O_4 
REMARK    2  A    between atoms: C_6  and  N_7 
REMARK       I    between atoms: N_7  and  C_8 
REMARK    3  A    between atoms: C_8  and  C_9 
REMARK    4  A    between atoms: C_14  and  C_15 
REMARK    5  A    between atoms: C_23  and  C_24 
ROOT
HETATM    1  C   UNL     1       5.169  26.249  52.771  1.00  0.00     0.148 A 
HETATM    2  N   UNL     1       4.217  27.106  53.211  1.00  0.00    -0.165 NA
HETATM    3  N   UNL     1       3.952  27.862  52.128  1.00  0.00    -0.240 N 
HETATM    4  C   UNL     1       4.651  27.498  51.012  1.00  0.00     0.123 A 
HETATM    5  N   UNL     1       4.471  28.116  49.826  1.00  0.00    -0.366 N 
HETATM    6  C   UNL     1       3.551  29.233  49.649  1.00  0.00     0.118 C 
HETATM    7  C   UNL     1       2.459  29.227  50.736  1.00  0.00     0.066 C 
HETATM    8  C   UNL     1       2.963  28.920  52.158  1.00  0.00     0.221 C 
HETATM    9  C   UNL     1       5.463  26.465  51.396  1.00  0.00     0.089 A 
HETATM   10  H   UNL     1       5.059  27.898  49.023  1.00  0.00     0.161 HD
ENDROOT
BRANCH   1  11
HETATM   11  C   UNL     1       5.783  25.240  53.653  1.00  0.00     0.276 C 
HETATM   12  N   UNL     1       6.731  24.488  52.988  1.00  0.00    -0.322 N 
HETATM   13  H   UNL     1       6.837  24.748  52.010  1.00  0.00     0.169 HD
HETATM   14  O   UNL     1       5.440  25.126  54.824  1.00  0.00    -0.266 OA
BRANCH  12  15
HETATM   15  C   UNL     1       7.516  23.433  53.483  1.00  0.00     0.037 A 
HETATM   16  C   UNL     1       7.575  22.165  52.905  1.00  0.00     0.066 A 
HETATM   17  C   UNL     1       8.385  21.179  53.468  1.00  0.00     0.067 A 
HETATM   18  C   UNL     1       9.148  21.436  54.603  1.00  0.00     0.036 A 
HETATM   19  C   UNL     1       9.093  22.701  55.186  1.00  0.00     0.005 A 
HETATM   20  C   UNL     1       8.280  23.693  54.629  1.00  0.00     0.029 A 
BRANCH  17  21
HETATM   21  O   UNL     1       8.406  19.954  52.869  1.00  0.00    -0.361 OA
HETATM   22  H   UNL     1       7.566  19.504  53.047  1.00  0.00     0.217 HD
ENDBRANCH  17  21
ENDBRANCH  12  15
ENDBRANCH   1  11
BRANCH   8  23
HETATM   23  C   UNL     1       3.506  30.123  52.895  1.00  0.00     0.409 C 
HETATM   24  F   UNL     1       4.834  30.290  52.765  1.00  0.00    -0.169 F 
HETATM   25  F   UNL     1       2.913  31.257  52.438  1.00  0.00    -0.169 F 
HETATM   26  F   UNL     1       3.233  30.065  54.220  1.00  0.00    -0.169 F 
ENDBRANCH   8  23
BRANCH   6  27
HETATM   27  C   UNL     1       4.266  30.561  49.467  1.00  0.00    -0.035 A 
HETATM   28  C   UNL     1       5.669  30.603  49.591  1.00  0.00     0.012 A 
HETATM   29  C   UNL     1       6.368  31.805  49.453  1.00  0.00     0.043 A 
HETATM   30  C   UNL     1       5.671  32.976  49.189  1.00  0.00     0.116 A 
HETATM   31  F   UNL     1       6.341  34.128  49.055  1.00  0.00    -0.206 F 
HETATM   32  C   UNL     1       4.289  32.967  49.064  1.00  0.00     0.043 A 
HETATM   33  C   UNL     1       3.589  31.766  49.209  1.00  0.00     0.012 A 
ENDBRANCH   6  27
TORSDOF 5
ENDMDL
