MODEL 1
REMARK VINA RESULT:      -9.7      0.000      0.000
REMARK  3 active torsions:
REMARK  status: ('A' for Active; 'I' for Inactive)
REMARK    1  A    between atoms: C_6  and  N_7 
REMARK       I    between atoms: N_7  and  C_8 
REMARK    2  A    between atoms: C_8  and  C_9 
REMARK    3  A    between atoms: C_9  and  C_10 
ROOT
HETATM    1  C   UNL     1       6.741  28.136  55.601  1.00  0.00     0.286 C 
HETATM    2  N   UNL     1       8.196  28.571  55.364  1.00  0.00    -0.056 N 
HETATM    3  H   UNL     1       8.716  27.743  55.009  1.00  0.00     0.278 HD
HETATM    4  H   UNL     1       8.232  29.278  54.620  1.00  0.00     0.278 HD
HETATM    5  C   UNL     1       8.963  29.008  56.584  1.00  0.00     0.209 C 
HETATM    6  C   UNL     1       8.070  29.883  57.482  1.00  0.00     0.115 C 
HETATM    7  N   UNL     1       6.890  29.140  57.881  1.00  0.00    -0.353 N 
HETATM    8  C   UNL     1       6.196  28.319  57.033  1.00  0.00     0.249 C 
HETATM    9  O   UNL     1       5.149  27.801  57.410  1.00  0.00    -0.271 OA
HETATM   10  C   UNL     1      10.229  29.738  56.150  1.00  0.00     0.035 C 
HETATM   11  C   UNL     1      11.011  30.224  57.369  1.00  0.00     0.002 C 
HETATM   12  C   UNL     1      10.146  31.078  58.295  1.00  0.00     0.002 C 
HETATM   13  C   UNL     1       8.858  30.364  58.703  1.00  0.00     0.027 C 
HETATM   14  H   UNL     1       6.436  29.322  58.775  1.00  0.00     0.163 HD
ENDROOT
BRANCH   1  15
HETATM   15  C   UNL     1       6.463  26.721  55.068  1.00  0.00     0.146 C 
BRANCH  15  16
HETATM   16  C   UNL     1       7.012  26.550  53.674  1.00  0.00     0.224 C 
HETATM   17  N   UNL     1       7.476  25.390  53.158  1.00  0.00    -0.327 N 
HETATM   18  H   UNL     1       7.573  25.450  52.147  1.00  0.00     0.169 HD
HETATM   19  O   UNL     1       6.916  27.527  52.914  1.00  0.00    -0.273 OA
BRANCH  17  20
HETATM   20  C   UNL     1       7.859  24.149  53.696  1.00  0.00     0.035 A 
HETATM   21  C   UNL     1       7.860  22.935  53.016  1.00  0.00     0.037 A 
HETATM   22  C   UNL     1       8.247  21.736  53.651  1.00  0.00    -0.054 A 
HETATM   23  C   UNL     1       8.633  21.759  55.002  1.00  0.00    -0.056 A 
HETATM   24  C   UNL     1       8.251  20.454  52.859  1.00  0.00     0.049 C 
HETATM   25  C   UNL     1       9.051  20.508  55.728  1.00  0.00     0.049 C 
HETATM   26  C   UNL     1       8.586  22.971  55.699  1.00  0.00     0.009 A 
HETATM   27  C   UNL     1       8.199  24.148  55.054  1.00  0.00     0.030 A 
ENDBRANCH  17  20
ENDBRANCH  15  16
ENDBRANCH   1  15
TORSDOF 3
ENDMDL
MODEL 2
REMARK VINA RESULT:      -9.7      1.448      7.160
REMARK  3 active torsions:
REMARK  status: ('A' for Active; 'I' for Inactive)
REMARK    1  A    between atoms: C_6  and  N_7 
REMARK       I    between atoms: N_7  and  C_8 
REMARK    2  A    between atoms: C_8  and  C_9 
REMARK    3  A    between atoms: C_9  and  C_10 
ROOT
HETATM    1  C   UNL     1       7.404  25.369  55.108  1.00  0.00     0.286 C 
HETATM    2  N   UNL     1       7.555  24.451  53.886  1.00  0.00    -0.056 N 
HETATM    3  H   UNL     1       6.785  24.679  53.226  1.00  0.00     0.278 HD
HETATM    4  H   UNL     1       8.432  24.664  53.395  1.00  0.00     0.278 HD
HETATM    5  C   UNL     1       7.408  22.975  54.145  1.00  0.00     0.209 C 
HETATM    6  C   UNL     1       8.138  22.594  55.446  1.00  0.00     0.115 C 
HETATM    7  N   UNL     1       7.591  23.347  56.559  1.00  0.00    -0.353 N 
HETATM    8  C   UNL     1       7.250  24.670  56.476  1.00  0.00     0.249 C 
HETATM    9  O   UNL     1       6.889  25.269  57.484  1.00  0.00    -0.271 OA
HETATM   10  C   UNL     1       7.936  22.196  52.945  1.00  0.00     0.035 C 
HETATM   11  C   UNL     1       7.831  20.692  53.194  1.00  0.00     0.002 C 
HETATM   12  C   UNL     1       8.525  20.283  54.493  1.00  0.00     0.002 C 
HETATM   13  C   UNL     1       8.026  21.086  55.693  1.00  0.00     0.027 C 
HETATM   14  H   UNL     1       7.583  22.956  57.499  1.00  0.00     0.163 HD
ENDROOT
BRANCH   1  15
HETATM   15  C   UNL     1       6.325  26.444  54.899  1.00  0.00     0.146 C 
BRANCH  15  16
HETATM   16  C   UNL     1       6.814  27.529  53.973  1.00  0.00     0.224 C 
HETATM   17  N   UNL     1       7.664  28.521  54.318  1.00  0.00    -0.327 N 
HETATM   18  H   UNL     1       8.036  28.989  53.495  1.00  0.00     0.169 HD
HETATM   19  O   UNL     1       6.497  27.425  52.777  1.00  0.00    -0.273 OA
BRANCH  17  20
HETATM   20  C   UNL     1       8.131  29.047  55.536  1.00  0.00     0.035 A 
HETATM   21  C   UNL     1       9.465  29.273  55.863  1.00  0.00     0.037 A 
HETATM   22  C   UNL     1       9.835  29.790  57.122  1.00  0.00    -0.054 A 
HETATM   23  C   UNL     1       8.843  30.079  58.074  1.00  0.00    -0.056 A 
HETATM   24  C   UNL     1      11.293  30.036  57.414  1.00  0.00     0.049 C 
HETATM   25  C   UNL     1       9.184  30.628  59.433  1.00  0.00     0.049 C 
HETATM   26  C   UNL     1       7.507  29.806  57.763  1.00  0.00     0.009 A 
HETATM   27  C   UNL     1       7.158  29.292  56.511  1.00  0.00     0.030 A 
ENDBRANCH  17  20
ENDBRANCH  15  16
ENDBRANCH   1  15
TORSDOF 3
ENDMDL
MODEL 3
REMARK VINA RESULT:      -9.5      3.186      5.736
REMARK  3 active torsions:
REMARK  status: ('A' for Active; 'I' for Inactive)
REMARK    1  A    between atoms: C_6  and  N_7 
REMARK       I    between atoms: N_7  and  C_8 
REMARK    2  A    between atoms: C_8  and  C_9 
REMARK    3  A    between atoms: C_9  and  C_10 
ROOT
HETATM    1  C   UNL     1       5.794  26.661  52.757  1.00  0.00     0.286 C 
HETATM    2  N   UNL     1       5.868  28.129  52.310  1.00  0.00    -0.056 N 
HETATM    3  H   UNL     1       5.475  28.710  53.077  1.00  0.00     0.278 HD
HETATM    4  H   UNL     1       6.850  28.413  52.203  1.00  0.00     0.278 HD
HETATM    5  C   UNL     1       5.050  28.494  51.099  1.00  0.00     0.209 C 
HETATM    6  C   UNL     1       5.171  27.393  50.030  1.00  0.00     0.115 C 
HETATM    7  N   UNL     1       4.714  26.126  50.571  1.00  0.00    -0.353 N 
HETATM    8  C   UNL     1       4.998  25.705  51.843  1.00  0.00     0.249 C 
HETATM    9  O   UNL     1       4.665  24.579  52.199  1.00  0.00    -0.271 OA
HETATM   10  C   UNL     1       5.503  29.852  50.574  1.00  0.00     0.035 C 
HETATM   11  C   UNL     1       4.713  30.234  49.324  1.00  0.00     0.002 C 
HETATM   12  C   UNL     1       4.791  29.149  48.250  1.00  0.00     0.002 C 
HETATM   13  C   UNL     1       4.374  27.779  48.781  1.00  0.00     0.027 C 
HETATM   14  H   UNL     1       4.289  25.425  49.968  1.00  0.00     0.163 HD
ENDROOT
BRANCH   1  15
HETATM   15  C   UNL     1       5.368  26.521  54.227  1.00  0.00     0.146 C 
BRANCH  15  16
HETATM   16  C   UNL     1       6.564  26.569  55.144  1.00  0.00     0.224 C 
HETATM   17  N   UNL     1       7.537  25.633  55.204  1.00  0.00    -0.327 N 
HETATM   18  H   UNL     1       8.349  25.979  55.709  1.00  0.00     0.169 HD
HETATM   19  O   UNL     1       6.717  27.609  55.806  1.00  0.00    -0.273 OA
BRANCH  17  20
HETATM   20  C   UNL     1       7.670  24.311  54.743  1.00  0.00     0.035 A 
HETATM   21  C   UNL     1       7.602  23.166  55.532  1.00  0.00     0.037 A 
HETATM   22  C   UNL     1       7.765  21.880  54.975  1.00  0.00    -0.054 A 
HETATM   23  C   UNL     1       8.010  21.744  53.598  1.00  0.00    -0.056 A 
HETATM   24  C   UNL     1       7.659  20.674  55.873  1.00  0.00     0.049 C 
HETATM   25  C   UNL     1       8.195  20.396  52.956  1.00  0.00     0.049 C 
HETATM   26  C   UNL     1       8.126  22.897  52.815  1.00  0.00     0.009 A 
HETATM   27  C   UNL     1       7.963  24.163  53.382  1.00  0.00     0.030 A 
ENDBRANCH  17  20
ENDBRANCH  15  16
ENDBRANCH   1  15
TORSDOF 3
ENDMDL
MODEL 4
REMARK VINA RESULT:      -9.3      1.202      1.997
REMARK  3 active torsions:
REMARK  status: ('A' for Active; 'I' for Inactive)
REMARK    1  A    between atoms: C_6  and  N_7 
REMARK       I    between atoms: N_7  and  C_8 
REMARK    2  A    between atoms: C_8  and  C_9 
REMARK    3  A    between atoms: C_9  and  C_10 
ROOT
HETATM    1  C   UNL     1       7.350  28.869  56.218  1.00  0.00     0.286 C 
HETATM    2  N   UNL     1       8.654  29.543  56.674  1.00  0.00    -0.056 N 
HETATM    3  H   UNL     1       9.394  28.813  56.691  1.00  0.00     0.278 HD
HETATM    4  H   UNL     1       8.949  30.240  55.979  1.00  0.00     0.278 HD
HETATM    5  C   UNL     1       8.651  30.115  58.067  1.00  0.00     0.209 C 
HETATM    6  C   UNL     1       7.317  30.835  58.338  1.00  0.00     0.115 C 
HETATM    7  N   UNL     1       6.214  29.905  58.184  1.00  0.00    -0.353 N 
HETATM    8  C   UNL     1       6.152  28.970  57.186  1.00  0.00     0.249 C 
HETATM    9  O   UNL     1       5.142  28.285  57.056  1.00  0.00    -0.271 OA
HETATM   10  C   UNL     1       9.847  31.047  58.233  1.00  0.00     0.035 C 
HETATM   11  C   UNL     1       9.851  31.670  59.628  1.00  0.00     0.002 C 
HETATM   12  C   UNL     1       8.530  32.372  59.939  1.00  0.00     0.002 C 
HETATM   13  C   UNL     1       7.325  31.453  59.738  1.00  0.00     0.027 C 
HETATM   14  H   UNL     1       5.359  30.016  58.727  1.00  0.00     0.163 HD
ENDROOT
BRANCH   1  15
HETATM   15  C   UNL     1       7.576  27.423  55.748  1.00  0.00     0.146 C 
BRANCH  15  16
HETATM   16  C   UNL     1       7.648  27.347  54.244  1.00  0.00     0.224 C 
HETATM   17  N   UNL     1       7.585  26.209  53.519  1.00  0.00    -0.327 N 
HETATM   18  H   UNL     1       7.415  26.408  52.536  1.00  0.00     0.169 HD
HETATM   19  O   UNL     1       7.645  28.427  53.631  1.00  0.00    -0.273 OA
BRANCH  17  20
HETATM   20  C   UNL     1       7.710  24.839  53.812  1.00  0.00     0.035 A 
HETATM   21  C   UNL     1       7.963  24.298  55.069  1.00  0.00     0.037 A 
HETATM   22  C   UNL     1       8.089  22.906  55.259  1.00  0.00    -0.054 A 
HETATM   23  C   UNL     1       7.965  22.041  54.159  1.00  0.00    -0.056 A 
HETATM   24  C   UNL     1       8.340  22.375  56.647  1.00  0.00     0.049 C 
HETATM   25  C   UNL     1       8.094  20.549  54.306  1.00  0.00     0.049 C 
HETATM   26  C   UNL     1       7.758  22.587  52.888  1.00  0.00     0.009 A 
HETATM   27  C   UNL     1       7.638  23.969  52.718  1.00  0.00     0.030 A 
ENDBRANCH  17  20
ENDBRANCH  15  16
ENDBRANCH   1  15
TORSDOF 3
ENDMDL
MODEL 5
REMARK VINA RESULT:      -9.3      1.737      3.290
REMARK  3 active torsions:
REMARK  status: ('A' for Active; 'I' for Inactive)
REMARK    1  A    between atoms: C_6  and  N_7 
REMARK       I    between atoms: N_7  and  C_8 
REMARK    2  A    between atoms: C_8  and  C_9 
REMARK    3  A    between atoms: C_9  and  C_10 
ROOT
HETATM    1  C   UNL     1       7.219  28.833  56.445  1.00  0.00     0.286 C 
HETATM    2  N   UNL     1       6.747  29.609  57.684  1.00  0.00    -0.056 N 
HETATM    3  H   UNL     1       5.844  30.066  57.442  1.00  0.00     0.278 HD
HETATM    4  H   UNL     1       6.546  28.955  58.451  1.00  0.00     0.278 HD
HETATM    5  C   UNL     1       7.635  30.738  58.136  1.00  0.00     0.209 C 
HETATM    6  C   UNL     1       9.112  30.311  58.053  1.00  0.00     0.115 C 
HETATM    7  N   UNL     1       9.443  29.937  56.691  1.00  0.00    -0.353 N 
HETATM    8  C   UNL     1       8.606  29.212  55.885  1.00  0.00     0.249 C 
HETATM    9  O   UNL     1       8.993  28.845  54.780  1.00  0.00    -0.271 OA
HETATM   10  C   UNL     1       7.240  31.159  59.547  1.00  0.00     0.035 C 
HETATM   11  C   UNL     1       8.148  32.282  60.045  1.00  0.00     0.002 C 
HETATM   12  C   UNL     1       9.625  31.900  59.953  1.00  0.00     0.002 C 
HETATM   13  C   UNL     1      10.018  31.442  58.549  1.00  0.00     0.027 C 
HETATM   14  H   UNL     1      10.386  30.068  56.329  1.00  0.00     0.163 HD
ENDROOT
BRANCH   1  15
HETATM   15  C   UNL     1       6.153  28.801  55.338  1.00  0.00     0.146 C 
BRANCH  15  16
HETATM   16  C   UNL     1       4.958  27.984  55.759  1.00  0.00     0.224 C 
HETATM   17  N   UNL     1       4.895  26.634  55.746  1.00  0.00    -0.327 N 
HETATM   18  H   UNL     1       4.101  26.298  56.284  1.00  0.00     0.169 HD
HETATM   19  O   UNL     1       4.009  28.605  56.266  1.00  0.00    -0.273 OA
BRANCH  17  20
HETATM   20  C   UNL     1       5.661  25.612  55.157  1.00  0.00     0.035 A 
HETATM   21  C   UNL     1       6.672  24.891  55.786  1.00  0.00     0.037 A 
HETATM   22  C   UNL     1       7.397  23.893  55.101  1.00  0.00    -0.054 A 
HETATM   23  C   UNL     1       7.104  23.621  53.754  1.00  0.00    -0.056 A 
HETATM   24  C   UNL     1       8.465  23.127  55.838  1.00  0.00     0.049 C 
HETATM   25  C   UNL     1       7.850  22.569  52.978  1.00  0.00     0.049 C 
HETATM   26  C   UNL     1       6.121  24.379  53.109  1.00  0.00     0.009 A 
HETATM   27  C   UNL     1       5.414  25.365  53.802  1.00  0.00     0.030 A 
ENDBRANCH  17  20
ENDBRANCH  15  16
ENDBRANCH   1  15
TORSDOF 3
ENDMDL
MODEL 6
REMARK VINA RESULT:      -9.3      3.533      5.525
REMARK  3 active torsions:
REMARK  status: ('A' for Active; 'I' for Inactive)
REMARK    1  A    between atoms: C_6  and  N_7 
REMARK       I    between atoms: N_7  and  C_8 
REMARK    2  A    between atoms: C_8  and  C_9 
REMARK    3  A    between atoms: C_9  and  C_10 
ROOT
HETATM    1  C   UNL     1       4.464  26.924  53.257  1.00  0.00     0.286 C 
HETATM    2  N   UNL     1       4.765  26.365  51.857  1.00  0.00    -0.056 N 
HETATM    3  H   UNL     1       5.714  25.941  51.887  1.00  0.00     0.278 HD
HETATM    4  H   UNL     1       4.112  25.603  51.638  1.00  0.00     0.278 HD
HETATM    5  C   UNL     1       4.834  27.375  50.742  1.00  0.00     0.209 C 
HETATM    6  C   UNL     1       3.702  28.407  50.895  1.00  0.00     0.115 C 
HETATM    7  N   UNL     1       3.814  29.078  52.176  1.00  0.00    -0.353 N 
HETATM    8  C   UNL     1       4.141  28.431  53.338  1.00  0.00     0.249 C 
HETATM    9  O   UNL     1       4.118  29.043  54.401  1.00  0.00    -0.271 OA
HETATM   10  C   UNL     1       4.772  26.652  49.401  1.00  0.00     0.035 C 
HETATM   11  C   UNL     1       4.806  27.655  48.250  1.00  0.00     0.002 C 
HETATM   12  C   UNL     1       3.708  28.710  48.384  1.00  0.00     0.002 C 
HETATM   13  C   UNL     1       3.743  29.412  49.741  1.00  0.00     0.027 C 
HETATM   14  H   UNL     1       3.498  30.040  52.290  1.00  0.00     0.163 HD
ENDROOT
BRANCH   1  15
HETATM   15  C   UNL     1       5.532  26.520  54.286  1.00  0.00     0.146 C 
BRANCH  15  16
HETATM   16  C   UNL     1       6.917  26.624  53.699  1.00  0.00     0.224 C 
HETATM   17  N   UNL     1       7.769  25.589  53.526  1.00  0.00    -0.327 N 
HETATM   18  H   UNL     1       8.535  25.843  52.909  1.00  0.00     0.169 HD
HETATM   19  O   UNL     1       7.244  27.729  53.235  1.00  0.00    -0.273 OA
BRANCH  17  20
HETATM   20  C   UNL     1       7.835  24.270  54.009  1.00  0.00     0.035 A 
HETATM   21  C   UNL     1       7.868  23.120  53.226  1.00  0.00     0.037 A 
HETATM   22  C   UNL     1       7.918  21.836  53.807  1.00  0.00    -0.054 A 
HETATM   23  C   UNL     1       7.927  21.706  55.207  1.00  0.00    -0.056 A 
HETATM   24  C   UNL     1       7.976  20.626  52.910  1.00  0.00     0.049 C 
HETATM   25  C   UNL     1       7.975  20.359  55.877  1.00  0.00     0.049 C 
HETATM   26  C   UNL     1       7.845  22.859  55.993  1.00  0.00     0.009 A 
HETATM   27  C   UNL     1       7.794  24.123  55.401  1.00  0.00     0.030 A 
ENDBRANCH  17  20
ENDBRANCH  15  16
ENDBRANCH   1  15
TORSDOF 3
ENDMDL
MODEL 7
REMARK VINA RESULT:      -9.2      3.042      4.494
REMARK  3 active torsions:
REMARK  status: ('A' for Active; 'I' for Inactive)
REMARK    1  A    between atoms: C_6  and  N_7 
REMARK       I    between atoms: N_7  and  C_8 
REMARK    2  A    between atoms: C_8  and  C_9 
REMARK    3  A    between atoms: C_9  and  C_10 
ROOT
HETATM    1  C   UNL     1       6.010  26.802  55.561  1.00  0.00     0.286 C 
HETATM    2  N   UNL     1       5.676  28.263  55.901  1.00  0.00    -0.056 N 
HETATM    3  H   UNL     1       5.406  28.297  56.905  1.00  0.00     0.278 HD
HETATM    4  H   UNL     1       6.517  28.845  55.806  1.00  0.00     0.278 HD
HETATM    5  C   UNL     1       4.502  28.860  55.171  1.00  0.00     0.209 C 
HETATM    6  C   UNL     1       4.531  28.436  53.691  1.00  0.00     0.115 C 
HETATM    7  N   UNL     1       4.491  26.990  53.590  1.00  0.00    -0.353 N 
HETATM    8  C   UNL     1       5.191  26.158  54.423  1.00  0.00     0.249 C 
HETATM    9  O   UNL     1       5.190  24.949  54.215  1.00  0.00    -0.271 OA
HETATM   10  C   UNL     1       4.524  30.376  55.333  1.00  0.00     0.035 C 
HETATM   11  C   UNL     1       3.361  31.012  54.573  1.00  0.00     0.002 C 
HETATM   12  C   UNL     1       3.347  30.593  53.104  1.00  0.00     0.002 C 
HETATM   13  C   UNL     1       3.362  29.074  52.936  1.00  0.00     0.027 C 
HETATM   14  H   UNL     1       4.059  26.535  52.788  1.00  0.00     0.163 HD
ENDROOT
BRANCH   1  15
HETATM   15  C   UNL     1       6.041  25.907  56.811  1.00  0.00     0.146 C 
BRANCH  15  16
HETATM   16  C   UNL     1       7.452  25.719  57.308  1.00  0.00     0.224 C 
HETATM   17  N   UNL     1       8.347  24.845  56.796  1.00  0.00    -0.327 N 
HETATM   18  H   UNL     1       9.289  25.052  57.121  1.00  0.00     0.169 HD
HETATM   19  O   UNL     1       7.847  26.515  58.175  1.00  0.00    -0.273 OA
BRANCH  17  20
HETATM   20  C   UNL     1       8.268  23.731  55.942  1.00  0.00     0.035 A 
HETATM   21  C   UNL     1       8.247  22.399  56.346  1.00  0.00     0.037 A 
HETATM   22  C   UNL     1       8.182  21.348  55.408  1.00  0.00    -0.054 A 
HETATM   23  C   UNL     1       8.145  21.643  54.035  1.00  0.00    -0.056 A 
HETATM   24  C   UNL     1       8.138  19.925  55.903  1.00  0.00     0.049 C 
HETATM   25  C   UNL     1       8.080  20.558  52.993  1.00  0.00     0.049 C 
HETATM   26  C   UNL     1       8.216  22.979  53.628  1.00  0.00     0.009 A 
HETATM   27  C   UNL     1       8.281  24.008  54.570  1.00  0.00     0.030 A 
ENDBRANCH  17  20
ENDBRANCH  15  16
ENDBRANCH   1  15
TORSDOF 3
ENDMDL
MODEL 8
REMARK VINA RESULT:      -9.1      1.830      7.578
REMARK  3 active torsions:
REMARK  status: ('A' for Active; 'I' for Inactive)
REMARK    1  A    between atoms: C_6  and  N_7 
REMARK       I    between atoms: N_7  and  C_8 
REMARK    2  A    between atoms: C_8  and  C_9 
REMARK    3  A    between atoms: C_9  and  C_10 
ROOT
HETATM    1  C   UNL     1       7.513  26.381  55.874  1.00  0.00     0.286 C 
HETATM    2  N   UNL     1       7.316  25.683  54.519  1.00  0.00    -0.056 N 
HETATM    3  H   UNL     1       6.333  25.846  54.223  1.00  0.00     0.278 HD
HETATM    4  H   UNL     1       7.912  26.125  53.808  1.00  0.00     0.278 HD
HETATM    5  C   UNL     1       7.470  24.185  54.518  1.00  0.00     0.209 C 
HETATM    6  C   UNL     1       8.674  23.778  55.387  1.00  0.00     0.115 C 
HETATM    7  N   UNL     1       8.486  24.254  56.745  1.00  0.00    -0.353 N 
HETATM    8  C   UNL     1       7.970  25.486  57.045  1.00  0.00     0.249 C 
HETATM    9  O   UNL     1       7.935  25.862  58.213  1.00  0.00    -0.271 OA
HETATM   10  C   UNL     1       7.610  23.692  53.081  1.00  0.00     0.035 C 
HETATM   11  C   UNL     1       7.802  22.177  53.051  1.00  0.00     0.002 C 
HETATM   12  C   UNL     1       8.975  21.736  53.925  1.00  0.00     0.002 C 
HETATM   13  C   UNL     1       8.859  22.258  55.356  1.00  0.00     0.027 C 
HETATM   14  H   UNL     1       8.879  23.745  57.535  1.00  0.00     0.163 HD
ENDROOT
BRANCH   1  15
HETATM   15  C   UNL     1       6.303  27.246  56.263  1.00  0.00     0.146 C 
BRANCH  15  16
HETATM   16  C   UNL     1       6.311  28.555  55.515  1.00  0.00     0.224 C 
HETATM   17  N   UNL     1       6.895  29.695  55.948  1.00  0.00    -0.327 N 
HETATM   18  H   UNL     1       6.981  30.372  55.194  1.00  0.00     0.169 HD
HETATM   19  O   UNL     1       5.844  28.542  54.365  1.00  0.00    -0.273 OA
BRANCH  17  20
HETATM   20  C   UNL     1       7.389  30.147  57.184  1.00  0.00     0.035 A 
HETATM   21  C   UNL     1       6.708  30.967  58.079  1.00  0.00     0.037 A 
HETATM   22  C   UNL     1       7.299  31.382  59.291  1.00  0.00    -0.054 A 
HETATM   23  C   UNL     1       8.605  30.970  59.605  1.00  0.00    -0.056 A 
HETATM   24  C   UNL     1       6.506  32.251  60.233  1.00  0.00     0.049 C 
HETATM   25  C   UNL     1       9.282  31.388  60.882  1.00  0.00     0.049 C 
HETATM   26  C   UNL     1       9.307  30.187  58.683  1.00  0.00     0.009 A 
HETATM   27  C   UNL     1       8.707  29.786  57.487  1.00  0.00     0.030 A 
ENDBRANCH  17  20
ENDBRANCH  15  16
ENDBRANCH   1  15
TORSDOF 3
ENDMDL
MODEL 9
REMARK VINA RESULT:      -9.1      1.413      7.731
REMARK  3 active torsions:
REMARK  status: ('A' for Active; 'I' for Inactive)
REMARK    1  A    between atoms: C_6  and  N_7 
REMARK       I    between atoms: N_7  and  C_8 
REMARK    2  A    between atoms: C_8  and  C_9 
REMARK    3  A    between atoms: C_9  and  C_10 
ROOT
HETATM    1  C   UNL     1       6.948  25.007  54.948  1.00  0.00     0.286 C 
HETATM    2  N   UNL     1       7.023  23.699  55.751  1.00  0.00    -0.056 N 
HETATM    3  H   UNL     1       7.415  23.929  56.686  1.00  0.00     0.278 HD
HETATM    4  H   UNL     1       6.077  23.334  55.914  1.00  0.00     0.278 HD
HETATM    5  C   UNL     1       7.941  22.639  55.203  1.00  0.00     0.209 C 
HETATM    6  C   UNL     1       7.795  22.555  53.673  1.00  0.00     0.115 C 
HETATM    7  N   UNL     1       8.112  23.839  53.075  1.00  0.00    -0.353 N 
HETATM    8  C   UNL     1       7.716  25.035  53.610  1.00  0.00     0.249 C 
HETATM    9  O   UNL     1       7.933  26.076  52.997  1.00  0.00    -0.271 OA
HETATM   10  C   UNL     1       7.635  21.307  55.880  1.00  0.00     0.035 C 
HETATM   11  C   UNL     1       8.529  20.203  55.319  1.00  0.00     0.002 C 
HETATM   12  C   UNL     1       8.427  20.109  53.797  1.00  0.00     0.002 C 
HETATM   13  C   UNL     1       8.696  21.450  53.115  1.00  0.00     0.027 C 
HETATM   14  H   UNL     1       8.513  23.894  52.141  1.00  0.00     0.163 HD
ENDROOT
BRANCH   1  15
HETATM   15  C   UNL     1       7.270  26.239  55.810  1.00  0.00     0.146 C 
BRANCH  15  16
HETATM   16  C   UNL     1       6.218  27.307  55.644  1.00  0.00     0.224 C 
HETATM   17  N   UNL     1       6.372  28.608  55.974  1.00  0.00    -0.327 N 
HETATM   18  H   UNL     1       5.638  29.180  55.565  1.00  0.00     0.169 HD
HETATM   19  O   UNL     1       5.179  26.977  55.049  1.00  0.00    -0.273 OA
BRANCH  17  20
HETATM   20  C   UNL     1       7.295  29.331  56.751  1.00  0.00     0.035 A 
HETATM   21  C   UNL     1       8.680  29.289  56.613  1.00  0.00     0.037 A 
HETATM   22  C   UNL     1       9.525  30.042  57.455  1.00  0.00    -0.054 A 
HETATM   23  C   UNL     1       8.965  30.845  58.463  1.00  0.00    -0.056 A 
HETATM   24  C   UNL     1      11.016  29.977  57.245  1.00  0.00     0.049 C 
HETATM   25  C   UNL     1       9.823  31.663  59.391  1.00  0.00     0.049 C 
HETATM   26  C   UNL     1       7.577  30.849  58.633  1.00  0.00     0.009 A 
HETATM   27  C   UNL     1       6.755  30.096  57.791  1.00  0.00     0.030 A 
ENDBRANCH  17  20
ENDBRANCH  15  16
ENDBRANCH   1  15
TORSDOF 3
ENDMDL
MODEL 10
REMARK VINA RESULT:      -9.0      3.142      5.582
REMARK  3 active torsions:
REMARK  status: ('A' for Active; 'I' for Inactive)
REMARK    1  A    between atoms: C_6  and  N_7 
REMARK       I    between atoms: N_7  and  C_8 
REMARK    2  A    between atoms: C_8  and  C_9 
REMARK    3  A    between atoms: C_9  and  C_10 
ROOT
HETATM    1  C   UNL     1       5.883  26.523  52.811  1.00  0.00     0.286 C 
HETATM    2  N   UNL     1       5.951  27.998  52.385  1.00  0.00    -0.056 N 
HETATM    3  H   UNL     1       5.595  28.568  53.178  1.00  0.00     0.278 HD
HETATM    4  H   UNL     1       6.930  28.275  52.243  1.00  0.00     0.278 HD
HETATM    5  C   UNL     1       5.087  28.390  51.216  1.00  0.00     0.209 C 
HETATM    6  C   UNL     1       5.153  27.305  50.125  1.00  0.00     0.115 C 
HETATM    7  N   UNL     1       4.707  26.034  50.664  1.00  0.00    -0.353 N 
HETATM    8  C   UNL     1       5.041  25.589  51.915  1.00  0.00     0.249 C 
HETATM    9  O   UNL     1       4.713  24.460  52.266  1.00  0.00    -0.271 OA
HETATM   10  C   UNL     1       5.529  29.753  50.696  1.00  0.00     0.035 C 
HETATM   11  C   UNL     1       4.691  30.162  49.486  1.00  0.00     0.002 C 
HETATM   12  C   UNL     1       4.715  29.095  48.392  1.00  0.00     0.002 C 
HETATM   13  C   UNL     1       4.308  27.719  48.917  1.00  0.00     0.027 C 
HETATM   14  H   UNL     1       4.251  25.346  50.067  1.00  0.00     0.163 HD
ENDROOT
BRANCH   1  15
HETATM   15  C   UNL     1       5.517  26.362  54.295  1.00  0.00     0.146 C 
BRANCH  15  16
HETATM   16  C   UNL     1       6.684  26.717  55.182  1.00  0.00     0.224 C 
HETATM   17  N   UNL     1       7.686  25.877  55.523  1.00  0.00    -0.327 N 
HETATM   18  H   UNL     1       8.471  26.384  55.923  1.00  0.00     0.169 HD
HETATM   19  O   UNL     1       6.782  27.907  55.523  1.00  0.00    -0.273 OA
BRANCH  17  20
HETATM   20  C   UNL     1       7.877  24.485  55.458  1.00  0.00     0.035 A 
HETATM   21  C   UNL     1       7.802  23.708  54.306  1.00  0.00     0.037 A 
HETATM   22  C   UNL     1       7.994  22.311  54.348  1.00  0.00    -0.054 A 
HETATM   23  C   UNL     1       8.258  21.682  55.577  1.00  0.00    -0.056 A 
HETATM   24  C   UNL     1       7.925  21.523  53.066  1.00  0.00     0.049 C 
HETATM   25  C   UNL     1       8.466  20.195  55.676  1.00  0.00     0.049 C 
HETATM   26  C   UNL     1       8.285  22.456  56.741  1.00  0.00     0.009 A 
HETATM   27  C   UNL     1       8.092  23.838  56.681  1.00  0.00     0.030 A 
ENDBRANCH  17  20
ENDBRANCH  15  16
ENDBRANCH   1  15
TORSDOF 3
ENDMDL
