MODEL 1
REMARK VINA RESULT:      -9.7      0.000      0.000
REMARK  4 active torsions:
REMARK  status: ('A' for Active; 'I' for Inactive)
REMARK    1  A    between atoms: C_5  and  N_6 
REMARK       I    between atoms: N_6  and  C_7 
REMARK       I    between atoms: C_7  and  N_8 
REMARK    2  A    between atoms: N_8  and  C_9 
REMARK    3  A    between atoms: C_9  and  C_10 
REMARK    4  A    between atoms: C_13  and  C_14 
ROOT
HETATM    1  N   UNL     1       7.442  30.581  59.678  1.00  0.00    -0.309 N 
HETATM    2  C   UNL     1       8.498  30.191  58.903  1.00  0.00     0.321 C 
HETATM    3  N   UNL     1       8.204  29.339  57.875  1.00  0.00    -0.335 N 
HETATM    4  O   UNL     1       9.672  30.521  59.040  1.00  0.00    -0.247 OA
HETATM    5  H   UNL     1       6.524  30.452  59.268  1.00  0.00     0.170 HD
HETATM    6  H   UNL     1       9.041  29.070  57.375  1.00  0.00     0.164 HD
ENDROOT
BRANCH   3   7
HETATM    7  C   UNL     1       7.019  28.518  57.690  1.00  0.00     0.213 C 
BRANCH   7   8
HETATM    8  C   UNL     1       7.375  27.160  57.210  1.00  0.00     0.190 A 
HETATM    9  O   UNL     1       7.938  26.299  58.103  1.00  0.00    -0.194 OA
HETATM   10  N   UNL     1       8.153  25.105  57.416  1.00  0.00    -0.106 NA
HETATM   11  C   UNL     1       7.715  25.363  56.172  1.00  0.00     0.189 A 
HETATM   12  N   UNL     1       7.193  26.632  56.019  1.00  0.00    -0.202 NA
BRANCH  11  13
HETATM   13  C   UNL     1       7.757  24.411  55.068  1.00  0.00     0.014 A 
HETATM   14  C   UNL     1       7.819  24.846  53.737  1.00  0.00     0.015 A 
HETATM   15  C   UNL     1       7.871  23.921  52.691  1.00  0.00     0.001 A 
HETATM   16  C   UNL     1       7.856  22.553  52.963  1.00  0.00     0.000 A 
HETATM   17  C   UNL     1       7.786  22.108  54.281  1.00  0.00     0.001 A 
HETATM   18  C   UNL     1       7.736  23.031  55.328  1.00  0.00     0.015 A 
ENDBRANCH  11  13
ENDBRANCH   7   8
ENDBRANCH   3   7
BRANCH   1  19
HETATM   19  C   UNL     1       7.462  31.396  60.827  1.00  0.00     0.036 A 
HETATM   20  C   UNL     1       6.825  32.633  60.922  1.00  0.00     0.030 A 
HETATM   21  C   UNL     1       6.877  33.365  62.113  1.00  0.00     0.009 A 
HETATM   22  C   UNL     1       7.583  32.884  63.221  1.00  0.00    -0.062 A 
HETATM   23  C   UNL     1       7.598  33.646  64.512  1.00  0.00     0.048 C 
HETATM   24  C   UNL     1       8.226  31.647  63.124  1.00  0.00     0.009 A 
HETATM   25  C   UNL     1       8.171  30.915  61.935  1.00  0.00     0.030 A 
ENDBRANCH   1  19
TORSDOF 4
ENDMDL
MODEL 2
REMARK VINA RESULT:      -9.4      1.257      9.887
REMARK  4 active torsions:
REMARK  status: ('A' for Active; 'I' for Inactive)
REMARK    1  A    between atoms: C_5  and  N_6 
REMARK       I    between atoms: N_6  and  C_7 
REMARK       I    between atoms: C_7  and  N_8 
REMARK    2  A    between atoms: N_8  and  C_9 
REMARK    3  A    between atoms: C_9  and  C_10 
REMARK    4  A    between atoms: C_13  and  C_14 
ROOT
HETATM    1  N   UNL     1       7.788  25.573  55.287  1.00  0.00    -0.309 N 
HETATM    2  C   UNL     1       7.178  25.895  56.466  1.00  0.00     0.321 C 
HETATM    3  N   UNL     1       7.171  27.222  56.795  1.00  0.00    -0.335 N 
HETATM    4  O   UNL     1       6.648  25.119  57.256  1.00  0.00    -0.247 OA
HETATM    5  H   UNL     1       7.916  26.338  54.635  1.00  0.00     0.170 HD
HETATM    6  H   UNL     1       6.737  27.371  57.696  1.00  0.00     0.164 HD
ENDROOT
BRANCH   3   7
HETATM    7  C   UNL     1       8.003  28.290  56.265  1.00  0.00     0.213 C 
BRANCH   7   8
HETATM    8  C   UNL     1       8.461  29.200  57.344  1.00  0.00     0.190 A 
HETATM    9  O   UNL     1       9.700  29.751  57.225  1.00  0.00    -0.194 OA
HETATM   10  N   UNL     1       9.875  30.570  58.341  1.00  0.00    -0.106 NA
HETATM   11  C   UNL     1       8.733  30.423  59.033  1.00  0.00     0.189 A 
HETATM   12  N   UNL     1       7.814  29.594  58.420  1.00  0.00    -0.202 NA
BRANCH  11  13
HETATM   13  C   UNL     1       8.451  31.073  60.308  1.00  0.00     0.014 A 
HETATM   14  C   UNL     1       8.882  30.513  61.519  1.00  0.00     0.015 A 
HETATM   15  C   UNL     1       8.613  31.154  62.732  1.00  0.00     0.001 A 
HETATM   16  C   UNL     1       7.908  32.357  62.747  1.00  0.00     0.000 A 
HETATM   17  C   UNL     1       7.468  32.920  61.551  1.00  0.00     0.001 A 
HETATM   18  C   UNL     1       7.736  32.281  60.339  1.00  0.00     0.015 A 
ENDBRANCH  11  13
ENDBRANCH   7   8
ENDBRANCH   3   7
BRANCH   1  19
HETATM   19  C   UNL     1       7.993  24.292  54.736  1.00  0.00     0.036 A 
HETATM   20  C   UNL     1       8.719  23.277  55.359  1.00  0.00     0.030 A 
HETATM   21  C   UNL     1       8.851  22.025  54.749  1.00  0.00     0.009 A 
HETATM   22  C   UNL     1       8.279  21.774  53.497  1.00  0.00    -0.062 A 
HETATM   23  C   UNL     1       8.380  20.418  52.866  1.00  0.00     0.048 C 
HETATM   24  C   UNL     1       7.556  22.792  52.870  1.00  0.00     0.009 A 
HETATM   25  C   UNL     1       7.422  24.041  53.482  1.00  0.00     0.030 A 
ENDBRANCH   1  19
TORSDOF 4
ENDMDL
MODEL 3
REMARK VINA RESULT:      -9.3      1.359      1.899
REMARK  4 active torsions:
REMARK  status: ('A' for Active; 'I' for Inactive)
REMARK    1  A    between atoms: C_5  and  N_6 
REMARK       I    between atoms: N_6  and  C_7 
REMARK       I    between atoms: C_7  and  N_8 
REMARK    2  A    between atoms: N_8  and  C_9 
REMARK    3  A    between atoms: C_9  and  C_10 
REMARK    4  A    between atoms: C_13  and  C_14 
ROOT
HETATM    1  N   UNL     1       7.336  30.970  60.165  1.00  0.00    -0.309 N 
HETATM    2  C   UNL     1       8.111  31.234  59.071  1.00  0.00     0.321 C 
HETATM    3  N   UNL     1       8.073  30.301  58.072  1.00  0.00    -0.335 N 
HETATM    4  O   UNL     1       8.835  32.210  58.901  1.00  0.00    -0.247 OA
HETATM    5  H   UNL     1       6.599  30.288  60.028  1.00  0.00     0.170 HD
HETATM    6  H   UNL     1       8.699  30.551  57.318  1.00  0.00     0.164 HD
ENDROOT
BRANCH   3   7
HETATM    7  C   UNL     1       7.614  28.923  58.136  1.00  0.00     0.213 C 
BRANCH   7   8
HETATM    8  C   UNL     1       7.628  28.289  56.794  1.00  0.00     0.190 A 
HETATM    9  O   UNL     1       7.665  29.107  55.707  1.00  0.00    -0.194 OA
HETATM   10  N   UNL     1       7.692  28.274  54.588  1.00  0.00    -0.106 NA
HETATM   11  C   UNL     1       7.654  27.035  55.107  1.00  0.00     0.189 A 
HETATM   12  N   UNL     1       7.644  27.010  56.487  1.00  0.00    -0.202 NA
BRANCH  11  13
HETATM   13  C   UNL     1       7.638  25.810  54.316  1.00  0.00     0.014 A 
HETATM   14  C   UNL     1       7.606  24.550  54.931  1.00  0.00     0.015 A 
HETATM   15  C   UNL     1       7.580  23.385  54.158  1.00  0.00     0.001 A 
HETATM   16  C   UNL     1       7.590  23.467  52.766  1.00  0.00     0.000 A 
HETATM   17  C   UNL     1       7.629  24.712  52.143  1.00  0.00     0.001 A 
HETATM   18  C   UNL     1       7.654  25.877  52.914  1.00  0.00     0.015 A 
ENDBRANCH  11  13
ENDBRANCH   7   8
ENDBRANCH   3   7
BRANCH   1  19
HETATM   19  C   UNL     1       7.230  31.718  61.355  1.00  0.00     0.036 A 
HETATM   20  C   UNL     1       6.132  32.512  61.686  1.00  0.00     0.030 A 
HETATM   21  C   UNL     1       6.100  33.203  62.903  1.00  0.00     0.009 A 
HETATM   22  C   UNL     1       7.172  33.127  63.798  1.00  0.00    -0.062 A 
HETATM   23  C   UNL     1       7.117  33.828  65.122  1.00  0.00     0.048 C 
HETATM   24  C   UNL     1       8.274  32.335  63.464  1.00  0.00     0.009 A 
HETATM   25  C   UNL     1       8.304  31.644  62.250  1.00  0.00     0.030 A 
ENDBRANCH   1  19
TORSDOF 4
ENDMDL
MODEL 4
REMARK VINA RESULT:      -9.1      1.324      1.562
REMARK  4 active torsions:
REMARK  status: ('A' for Active; 'I' for Inactive)
REMARK    1  A    between atoms: C_5  and  N_6 
REMARK       I    between atoms: N_6  and  C_7 
REMARK       I    between atoms: C_7  and  N_8 
REMARK    2  A    between atoms: N_8  and  C_9 
REMARK    3  A    between atoms: C_9  and  C_10 
REMARK    4  A    between atoms: C_13  and  C_14 
ROOT
HETATM    1  N   UNL     1       6.598  31.656  60.001  1.00  0.00    -0.309 N 
HETATM    2  C   UNL     1       7.510  31.638  58.984  1.00  0.00     0.321 C 
HETATM    3  N   UNL     1       7.153  30.928  57.872  1.00  0.00    -0.335 N 
HETATM    4  O   UNL     1       8.609  32.185  58.972  1.00  0.00    -0.247 OA
HETATM    5  H   UNL     1       5.650  31.404  59.747  1.00  0.00     0.170 HD
HETATM    6  H   UNL     1       7.895  30.934  57.184  1.00  0.00     0.164 HD
ENDROOT
BRANCH   3   7
HETATM    7  C   UNL     1       6.120  29.915  57.738  1.00  0.00     0.213 C 
BRANCH   7   8
HETATM    8  C   UNL     1       6.710  28.571  57.519  1.00  0.00     0.190 A 
HETATM    9  O   UNL     1       7.695  28.165  58.367  1.00  0.00    -0.194 OA
HETATM   10  N   UNL     1       8.057  26.880  57.963  1.00  0.00    -0.106 NA
HETATM   11  C   UNL     1       7.268  26.639  56.902  1.00  0.00     0.189 A 
HETATM   12  N   UNL     1       6.392  27.668  56.617  1.00  0.00    -0.202 NA
BRANCH  11  13
HETATM   13  C   UNL     1       7.298  25.413  56.113  1.00  0.00     0.014 A 
HETATM   14  C   UNL     1       6.616  25.320  54.892  1.00  0.00     0.015 A 
HETATM   15  C   UNL     1       6.664  24.142  54.141  1.00  0.00     0.001 A 
HETATM   16  C   UNL     1       7.389  23.045  54.605  1.00  0.00     0.000 A 
HETATM   17  C   UNL     1       8.065  23.122  55.821  1.00  0.00     0.001 A 
HETATM   18  C   UNL     1       8.019  24.299  56.571  1.00  0.00     0.015 A 
ENDBRANCH  11  13
ENDBRANCH   7   8
ENDBRANCH   3   7
BRANCH   1  19
HETATM   19  C   UNL     1       6.725  32.251  61.272  1.00  0.00     0.036 A 
HETATM   20  C   UNL     1       5.936  33.308  61.726  1.00  0.00     0.030 A 
HETATM   21  C   UNL     1       6.115  33.822  63.015  1.00  0.00     0.009 A 
HETATM   22  C   UNL     1       7.099  33.303  63.863  1.00  0.00    -0.062 A 
HETATM   23  C   UNL     1       7.258  33.822  65.261  1.00  0.00     0.048 C 
HETATM   24  C   UNL     1       7.893  32.248  63.407  1.00  0.00     0.009 A 
HETATM   25  C   UNL     1       7.712  31.733  62.121  1.00  0.00     0.030 A 
ENDBRANCH   1  19
TORSDOF 4
ENDMDL
MODEL 5
REMARK VINA RESULT:      -9.0      4.502      7.388
REMARK  4 active torsions:
REMARK  status: ('A' for Active; 'I' for Inactive)
REMARK    1  A    between atoms: C_5  and  N_6 
REMARK       I    between atoms: N_6  and  C_7 
REMARK       I    between atoms: C_7  and  N_8 
REMARK    2  A    between atoms: N_8  and  C_9 
REMARK    3  A    between atoms: C_9  and  C_10 
REMARK    4  A    between atoms: C_13  and  C_14 
ROOT
HETATM    1  N   UNL     1       6.451  27.598  54.492  1.00  0.00    -0.309 N 
HETATM    2  C   UNL     1       5.727  27.777  55.637  1.00  0.00     0.321 C 
HETATM    3  N   UNL     1       6.450  27.881  56.792  1.00  0.00    -0.335 N 
HETATM    4  O   UNL     1       4.506  27.846  55.731  1.00  0.00    -0.247 OA
HETATM    5  H   UNL     1       7.432  27.845  54.549  1.00  0.00     0.170 HD
HETATM    6  H   UNL     1       5.841  27.973  57.595  1.00  0.00     0.164 HD
ENDROOT
BRANCH   3   7
HETATM    7  C   UNL     1       7.828  27.489  57.037  1.00  0.00     0.213 C 
BRANCH   7   8
HETATM    8  C   UNL     1       8.016  26.030  56.839  1.00  0.00     0.190 A 
HETATM    9  O   UNL     1       8.487  25.303  57.889  1.00  0.00    -0.194 OA
HETATM   10  N   UNL     1       8.551  23.979  57.454  1.00  0.00    -0.106 NA
HETATM   11  C   UNL     1       8.127  24.036  56.180  1.00  0.00     0.189 A 
HETATM   12  N   UNL     1       7.756  25.303  55.774  1.00  0.00    -0.202 NA
BRANCH  11  13
HETATM   13  C   UNL     1       8.041  22.887  55.287  1.00  0.00     0.014 A 
HETATM   14  C   UNL     1       7.993  23.051  53.895  1.00  0.00     0.015 A 
HETATM   15  C   UNL     1       7.922  21.938  53.052  1.00  0.00     0.001 A 
HETATM   16  C   UNL     1       7.895  20.653  53.591  1.00  0.00     0.000 A 
HETATM   17  C   UNL     1       7.934  20.475  54.972  1.00  0.00     0.001 A 
HETATM   18  C   UNL     1       8.006  21.586  55.815  1.00  0.00     0.015 A 
ENDBRANCH  11  13
ENDBRANCH   7   8
ENDBRANCH   3   7
BRANCH   1  19
HETATM   19  C   UNL     1       5.971  27.401  53.182  1.00  0.00     0.036 A 
HETATM   20  C   UNL     1       5.725  28.431  52.274  1.00  0.00     0.030 A 
HETATM   21  C   UNL     1       5.271  28.142  50.982  1.00  0.00     0.009 A 
HETATM   22  C   UNL     1       5.037  26.822  50.584  1.00  0.00    -0.062 A 
HETATM   23  C   UNL     1       4.597  26.509  49.185  1.00  0.00     0.048 C 
HETATM   24  C   UNL     1       5.278  25.790  51.495  1.00  0.00     0.009 A 
HETATM   25  C   UNL     1       5.734  26.079  52.784  1.00  0.00     0.030 A 
ENDBRANCH   1  19
TORSDOF 4
ENDMDL
MODEL 6
REMARK VINA RESULT:      -8.9      2.761      3.847
REMARK  4 active torsions:
REMARK  status: ('A' for Active; 'I' for Inactive)
REMARK    1  A    between atoms: C_5  and  N_6 
REMARK       I    between atoms: N_6  and  C_7 
REMARK       I    between atoms: C_7  and  N_8 
REMARK    2  A    between atoms: N_8  and  C_9 
REMARK    3  A    between atoms: C_9  and  C_10 
REMARK    4  A    between atoms: C_13  and  C_14 
ROOT
HETATM    1  N   UNL     1       7.784  29.141  56.293  1.00  0.00    -0.309 N 
HETATM    2  C   UNL     1       6.630  29.300  55.578  1.00  0.00     0.321 C 
HETATM    3  N   UNL     1       6.498  28.511  54.470  1.00  0.00    -0.335 N 
HETATM    4  O   UNL     1       5.713  30.077  55.826  1.00  0.00    -0.247 OA
HETATM    5  H   UNL     1       8.291  28.280  56.123  1.00  0.00     0.170 HD
HETATM    6  H   UNL     1       5.639  28.715  53.978  1.00  0.00     0.164 HD
ENDROOT
BRANCH   3   7
HETATM    7  C   UNL     1       7.530  27.787  53.745  1.00  0.00     0.213 C 
BRANCH   7   8
HETATM    8  C   UNL     1       7.213  26.340  53.659  1.00  0.00     0.190 A 
HETATM    9  O   UNL     1       6.066  25.980  53.020  1.00  0.00    -0.194 OA
HETATM   10  N   UNL     1       6.015  24.586  53.059  1.00  0.00    -0.106 NA
HETATM   11  C   UNL     1       7.127  24.241  53.730  1.00  0.00     0.189 A 
HETATM   12  N   UNL     1       7.914  25.315  54.093  1.00  0.00    -0.202 NA
BRANCH  11  13
HETATM   13  C   UNL     1       7.505  22.869  54.049  1.00  0.00     0.014 A 
HETATM   14  C   UNL     1       7.487  22.400  55.371  1.00  0.00     0.015 A 
HETATM   15  C   UNL     1       7.841  21.079  55.659  1.00  0.00     0.001 A 
HETATM   16  C   UNL     1       8.221  20.215  54.632  1.00  0.00     0.000 A 
HETATM   17  C   UNL     1       8.250  20.671  53.316  1.00  0.00     0.001 A 
HETATM   18  C   UNL     1       7.896  21.990  53.026  1.00  0.00     0.015 A 
ENDBRANCH  11  13
ENDBRANCH   7   8
ENDBRANCH   3   7
BRANCH   1  19
HETATM   19  C   UNL     1       8.207  29.856  57.431  1.00  0.00     0.036 A 
HETATM   20  C   UNL     1       7.385  30.162  58.515  1.00  0.00     0.030 A 
HETATM   21  C   UNL     1       7.896  30.856  59.617  1.00  0.00     0.009 A 
HETATM   22  C   UNL     1       9.231  31.274  59.644  1.00  0.00    -0.062 A 
HETATM   23  C   UNL     1       9.791  31.976  60.845  1.00  0.00     0.048 C 
HETATM   24  C   UNL     1      10.053  30.972  58.555  1.00  0.00     0.009 A 
HETATM   25  C   UNL     1       9.543  30.277  57.456  1.00  0.00     0.030 A 
ENDBRANCH   1  19
TORSDOF 4
ENDMDL
MODEL 7
REMARK VINA RESULT:      -8.9      1.660      9.754
REMARK  4 active torsions:
REMARK  status: ('A' for Active; 'I' for Inactive)
REMARK    1  A    between atoms: C_5  and  N_6 
REMARK       I    between atoms: N_6  and  C_7 
REMARK       I    between atoms: C_7  and  N_8 
REMARK    2  A    between atoms: N_8  and  C_9 
REMARK    3  A    between atoms: C_9  and  C_10 
REMARK    4  A    between atoms: C_13  and  C_14 
ROOT
HETATM    1  N   UNL     1       7.932  27.955  57.500  1.00  0.00    -0.309 N 
HETATM    2  C   UNL     1       9.005  28.799  57.449  1.00  0.00     0.321 C 
HETATM    3  N   UNL     1       8.871  29.979  58.125  1.00  0.00    -0.335 N 
HETATM    4  O   UNL     1      10.063  28.608  56.856  1.00  0.00    -0.247 OA
HETATM    5  H   UNL     1       7.270  28.130  58.247  1.00  0.00     0.170 HD
HETATM    6  H   UNL     1       9.691  30.561  58.006  1.00  0.00     0.164 HD
ENDROOT
BRANCH   3   7
HETATM    7  C   UNL     1       7.655  30.621  58.595  1.00  0.00     0.213 C 
BRANCH   7   8
HETATM    8  C   UNL     1       7.763  30.996  60.027  1.00  0.00     0.190 A 
HETATM    9  O   UNL     1       8.838  30.536  60.723  1.00  0.00    -0.194 OA
HETATM   10  N   UNL     1       8.714  31.040  62.017  1.00  0.00    -0.106 NA
HETATM   11  C   UNL     1       7.569  31.743  61.983  1.00  0.00     0.189 A 
HETATM   12  N   UNL     1       6.965  31.760  60.741  1.00  0.00    -0.202 NA
BRANCH  11  13
HETATM   13  C   UNL     1       6.998  32.446  63.125  1.00  0.00     0.014 A 
HETATM   14  C   UNL     1       7.816  33.085  64.068  1.00  0.00     0.015 A 
HETATM   15  C   UNL     1       7.252  33.765  65.151  1.00  0.00     0.001 A 
HETATM   16  C   UNL     1       5.867  33.808  65.307  1.00  0.00     0.000 A 
HETATM   17  C   UNL     1       5.043  33.170  64.382  1.00  0.00     0.001 A 
HETATM   18  C   UNL     1       5.605  32.492  63.298  1.00  0.00     0.015 A 
ENDBRANCH  11  13
ENDBRANCH   7   8
ENDBRANCH   3   7
BRANCH   1  19
HETATM   19  C   UNL     1       7.772  26.713  56.854  1.00  0.00     0.036 A 
HETATM   20  C   UNL     1       7.111  26.541  55.638  1.00  0.00     0.030 A 
HETATM   21  C   UNL     1       7.020  25.272  55.055  1.00  0.00     0.009 A 
HETATM   22  C   UNL     1       7.569  24.152  55.687  1.00  0.00    -0.062 A 
HETATM   23  C   UNL     1       7.514  22.801  55.040  1.00  0.00     0.048 C 
HETATM   24  C   UNL     1       8.227  24.323  56.909  1.00  0.00     0.009 A 
HETATM   25  C   UNL     1       8.320  25.591  57.489  1.00  0.00     0.030 A 
ENDBRANCH   1  19
TORSDOF 4
ENDMDL
MODEL 8
REMARK VINA RESULT:      -8.7      1.727      9.940
REMARK  4 active torsions:
REMARK  status: ('A' for Active; 'I' for Inactive)
REMARK    1  A    between atoms: C_5  and  N_6 
REMARK       I    between atoms: N_6  and  C_7 
REMARK       I    between atoms: C_7  and  N_8 
REMARK    2  A    between atoms: N_8  and  C_9 
REMARK    3  A    between atoms: C_9  and  C_10 
REMARK    4  A    between atoms: C_13  and  C_14 
ROOT
HETATM    1  N   UNL     1       7.427  27.582  55.446  1.00  0.00    -0.309 N 
HETATM    2  C   UNL     1       6.308  28.316  55.720  1.00  0.00     0.321 C 
HETATM    3  N   UNL     1       6.502  29.453  56.453  1.00  0.00    -0.335 N 
HETATM    4  O   UNL     1       5.157  28.056  55.382  1.00  0.00    -0.247 OA
HETATM    5  H   UNL     1       8.309  28.071  55.546  1.00  0.00     0.170 HD
HETATM    6  H   UNL     1       5.624  29.918  56.644  1.00  0.00     0.164 HD
ENDROOT
BRANCH   3   7
HETATM    7  C   UNL     1       7.646  29.818  57.274  1.00  0.00     0.213 C 
BRANCH   7   8
HETATM    8  C   UNL     1       7.282  30.850  58.276  1.00  0.00     0.190 A 
HETATM    9  O   UNL     1       6.535  31.907  57.855  1.00  0.00    -0.194 OA
HETATM   10  N   UNL     1       6.317  32.707  58.977  1.00  0.00    -0.106 NA
HETATM   11  C   UNL     1       6.964  32.064  59.963  1.00  0.00     0.189 A 
HETATM   12  N   UNL     1       7.554  30.881  59.563  1.00  0.00    -0.202 NA
BRANCH  11  13
HETATM   13  C   UNL     1       7.045  32.535  61.341  1.00  0.00     0.014 A 
HETATM   14  C   UNL     1       6.105  33.440  61.855  1.00  0.00     0.015 A 
HETATM   15  C   UNL     1       6.190  33.873  63.181  1.00  0.00     0.001 A 
HETATM   16  C   UNL     1       7.215  33.410  64.005  1.00  0.00     0.000 A 
HETATM   17  C   UNL     1       8.159  32.516  63.505  1.00  0.00     0.001 A 
HETATM   18  C   UNL     1       8.075  32.082  62.180  1.00  0.00     0.015 A 
ENDBRANCH  11  13
ENDBRANCH   7   8
ENDBRANCH   3   7
BRANCH   1  19
HETATM   19  C   UNL     1       7.514  26.350  54.769  1.00  0.00     0.036 A 
HETATM   20  C   UNL     1       7.695  26.221  53.392  1.00  0.00     0.030 A 
HETATM   21  C   UNL     1       7.795  24.955  52.807  1.00  0.00     0.009 A 
HETATM   22  C   UNL     1       7.694  23.796  53.583  1.00  0.00    -0.062 A 
HETATM   23  C   UNL     1       7.849  22.440  52.962  1.00  0.00     0.048 C 
HETATM   24  C   UNL     1       7.507  23.924  54.962  1.00  0.00     0.009 A 
HETATM   25  C   UNL     1       7.410  25.189  55.547  1.00  0.00     0.030 A 
ENDBRANCH   1  19
TORSDOF 4
ENDMDL
MODEL 9
REMARK VINA RESULT:      -8.6      2.180      3.509
REMARK  4 active torsions:
REMARK  status: ('A' for Active; 'I' for Inactive)
REMARK    1  A    between atoms: C_5  and  N_6 
REMARK       I    between atoms: N_6  and  C_7 
REMARK       I    between atoms: C_7  and  N_8 
REMARK    2  A    between atoms: N_8  and  C_9 
REMARK    3  A    between atoms: C_9  and  C_10 
REMARK    4  A    between atoms: C_13  and  C_14 
ROOT
HETATM    1  N   UNL     1       6.560  28.799  56.782  1.00  0.00    -0.309 N 
HETATM    2  C   UNL     1       7.080  28.599  55.535  1.00  0.00     0.321 C 
HETATM    3  N   UNL     1       6.459  27.648  54.773  1.00  0.00    -0.335 N 
HETATM    4  O   UNL     1       8.042  29.176  55.038  1.00  0.00    -0.247 OA
HETATM    5  H   UNL     1       5.617  28.458  56.925  1.00  0.00     0.170 HD
HETATM    6  H   UNL     1       6.926  27.534  53.882  1.00  0.00     0.164 HD
ENDROOT
BRANCH   3   7
HETATM    7  C   UNL     1       5.564  26.587  55.202  1.00  0.00     0.213 C 
BRANCH   7   8
HETATM    8  C   UNL     1       6.302  25.319  55.429  1.00  0.00     0.190 A 
HETATM    9  O   UNL     1       6.794  25.087  56.677  1.00  0.00    -0.194 OA
HETATM   10  N   UNL     1       7.415  23.839  56.629  1.00  0.00    -0.106 NA
HETATM   11  C   UNL     1       7.252  23.445  55.354  1.00  0.00     0.189 A 
HETATM   12  N   UNL     1       6.532  24.337  54.585  1.00  0.00    -0.202 NA
BRANCH  11  13
HETATM   13  C   UNL     1       7.761  22.193  54.806  1.00  0.00     0.014 A 
HETATM   14  C   UNL     1       8.037  21.096  55.636  1.00  0.00     0.015 A 
HETATM   15  C   UNL     1       8.514  19.900  55.093  1.00  0.00     0.001 A 
HETATM   16  C   UNL     1       8.724  19.788  53.719  1.00  0.00     0.000 A 
HETATM   17  C   UNL     1       8.462  20.872  52.885  1.00  0.00     0.001 A 
HETATM   18  C   UNL     1       7.984  22.068  53.426  1.00  0.00     0.015 A 
ENDBRANCH  11  13
ENDBRANCH   7   8
ENDBRANCH   3   7
BRANCH   1  19
HETATM   19  C   UNL     1       7.031  29.662  57.791  1.00  0.00     0.036 A 
HETATM   20  C   UNL     1       8.182  29.434  58.545  1.00  0.00     0.030 A 
HETATM   21  C   UNL     1       8.589  30.359  59.512  1.00  0.00     0.009 A 
HETATM   22  C   UNL     1       7.843  31.517  59.756  1.00  0.00    -0.062 A 
HETATM   23  C   UNL     1       8.306  32.531  60.758  1.00  0.00     0.048 C 
HETATM   24  C   UNL     1       6.687  31.744  59.004  1.00  0.00     0.009 A 
HETATM   25  C   UNL     1       6.282  30.821  58.037  1.00  0.00     0.030 A 
ENDBRANCH   1  19
TORSDOF 4
ENDMDL
MODEL 10
REMARK VINA RESULT:      -8.5      5.079      8.121
REMARK  4 active torsions:
REMARK  status: ('A' for Active; 'I' for Inactive)
REMARK    1  A    between atoms: C_5  and  N_6 
REMARK       I    between atoms: N_6  and  C_7 
REMARK       I    between atoms: C_7  and  N_8 
REMARK    2  A    between atoms: N_8  and  C_9 
REMARK    3  A    between atoms: C_9  and  C_10 
REMARK    4  A    between atoms: C_13  and  C_14 
ROOT
HETATM    1  N   UNL     1       6.040  28.588  52.908  1.00  0.00    -0.309 N 
HETATM    2  C   UNL     1       5.245  28.493  54.015  1.00  0.00     0.321 C 
HETATM    3  N   UNL     1       5.896  28.396  55.212  1.00  0.00    -0.335 N 
HETATM    4  O   UNL     1       4.018  28.479  54.040  1.00  0.00    -0.247 OA
HETATM    5  H   UNL     1       6.998  28.869  53.077  1.00  0.00     0.170 HD
HETATM    6  H   UNL     1       5.240  28.292  55.976  1.00  0.00     0.164 HD
ENDROOT
BRANCH   3   7
HETATM    7  C   UNL     1       7.281  28.034  55.464  1.00  0.00     0.213 C 
BRANCH   7   8
HETATM    8  C   UNL     1       7.427  26.570  55.659  1.00  0.00     0.190 A 
HETATM    9  O   UNL     1       7.509  26.106  56.936  1.00  0.00    -0.194 OA
HETATM   10  N   UNL     1       7.618  24.718  56.845  1.00  0.00    -0.106 NA
HETATM   11  C   UNL     1       7.606  24.479  55.523  1.00  0.00     0.189 A 
HETATM   12  N   UNL     1       7.457  25.616  54.754  1.00  0.00    -0.202 NA
BRANCH  11  13
HETATM   13  C   UNL     1       7.723  23.155  54.923  1.00  0.00     0.014 A 
HETATM   14  C   UNL     1       7.733  21.998  55.715  1.00  0.00     0.015 A 
HETATM   15  C   UNL     1       7.833  20.735  55.123  1.00  0.00     0.001 A 
HETATM   16  C   UNL     1       7.931  20.617  53.737  1.00  0.00     0.000 A 
HETATM   17  C   UNL     1       7.931  21.759  52.940  1.00  0.00     0.001 A 
HETATM   18  C   UNL     1       7.829  23.021  53.529  1.00  0.00     0.015 A 
ENDBRANCH  11  13
ENDBRANCH   7   8
ENDBRANCH   3   7
BRANCH   1  19
HETATM   19  C   UNL     1       5.644  28.639  51.556  1.00  0.00     0.036 A 
HETATM   20  C   UNL     1       5.585  29.809  50.799  1.00  0.00     0.030 A 
HETATM   21  C   UNL     1       5.205  29.762  49.453  1.00  0.00     0.009 A 
HETATM   22  C   UNL     1       4.856  28.550  48.848  1.00  0.00    -0.062 A 
HETATM   23  C   UNL     1       4.495  28.495  47.394  1.00  0.00     0.048 C 
HETATM   24  C   UNL     1       4.910  27.379  49.608  1.00  0.00     0.009 A 
HETATM   25  C   UNL     1       5.293  27.425  50.951  1.00  0.00     0.030 A 
ENDBRANCH   1  19
TORSDOF 4
ENDMDL
