MODEL 1
REMARK VINA RESULT:      -8.9      0.000      0.000
REMARK  9 active torsions:
REMARK  status: ('A' for Active; 'I' for Inactive)
REMARK    1  A    between atoms: O_2  and  C_3 
REMARK    2  A    between atoms: C_5  and  C_15 
REMARK    3  A    between atoms: C_8  and  C_9 
REMARK       I    between atoms: C_15  and  N_17 
REMARK    4  A    between atoms: N_17  and  C_18 
REMARK    5  A    between atoms: C_18  and  C_19 
REMARK    6  A    between atoms: C_18  and  C_27 
REMARK    7  A    between atoms: C_19  and  N_20 
REMARK    8  A    between atoms: N_20  and  S_21 
REMARK    9  A    between atoms: S_21  and  C_24 
ROOT
HETATM    1  C   UNL     1       7.386  27.672  54.466  1.00  0.00     0.252 C 
HETATM    2  O   UNL     1       7.522  28.222  53.378  1.00  0.00    -0.268 OA
HETATM    3  N   UNL     1       7.203  26.312  54.583  1.00  0.00    -0.347 N 
HETATM    4  H   UNL     1       7.180  25.855  55.483  1.00  0.00     0.163 HD
ENDROOT
BRANCH   3   5
HETATM    5  C   UNL     1       7.241  25.450  53.393  1.00  0.00     0.132 C 
BRANCH   5   6
HETATM    6  C   UNL     1       5.942  25.635  52.555  1.00  0.00     0.134 C 
BRANCH   6   7
HETATM    7  N   UNL     1       6.259  26.206  51.214  1.00  0.00    -0.217 NA
HETATM    8  H   UNL     1       6.431  25.469  50.526  1.00  0.00     0.139 HD
BRANCH   7   9
HETATM    9  S   UNL     1       5.135  27.286  50.569  1.00  0.00     0.213 S 
HETATM   10  O   UNL     1       4.182  27.535  51.627  1.00  0.00    -0.211 OA
HETATM   11  O   UNL     1       5.881  28.363  49.960  1.00  0.00    -0.211 OA
BRANCH   9  12
HETATM   12  C   UNL     1       4.294  26.424  49.211  1.00  0.00     0.124 A 
HETATM   13  C   UNL     1       3.262  27.251  48.491  1.00  0.00     0.023 A 
HETATM   14  C   UNL     1       4.583  26.955  47.834  1.00  0.00     0.023 A 
ENDBRANCH   9  12
ENDBRANCH   7   9
ENDBRANCH   6   7
ENDBRANCH   5   6
BRANCH   5  15
HETATM   15  C   UNL     1       7.613  24.025  53.798  1.00  0.00    -0.034 A 
HETATM   16  C   UNL     1       7.808  23.626  55.130  1.00  0.00     0.009 A 
HETATM   17  C   UNL     1       8.124  22.301  55.448  1.00  0.00     0.001 A 
HETATM   18  C   UNL     1       8.251  21.350  54.441  1.00  0.00     0.000 A 
HETATM   19  C   UNL     1       8.050  21.717  53.115  1.00  0.00     0.001 A 
HETATM   20  C   UNL     1       7.725  23.038  52.798  1.00  0.00     0.009 A 
ENDBRANCH   5  15
ENDBRANCH   3   5
BRANCH   1  21
HETATM   21  C   UNL     1       7.463  28.474  55.722  1.00  0.00     0.034 A 
HETATM   22  C   UNL     1       8.721  28.980  56.092  1.00  0.00     0.054 A 
HETATM   23  C   UNL     1       8.884  29.736  57.259  1.00  0.00     0.080 A 
HETATM   24  C   UNL     1       7.763  30.002  58.073  1.00  0.00     0.010 A 
HETATM   25  C   UNL     1       6.505  29.503  57.687  1.00  0.00     0.016 A 
HETATM   26  C   UNL     1       6.352  28.748  56.521  1.00  0.00     0.018 A 
BRANCH  23  27
HETATM   27  O   UNL     1      10.091  30.236  57.679  1.00  0.00    -0.355 OA
HETATM   28  C   UNL     1      11.275  29.714  57.089  1.00  0.00     0.210 C 
ENDBRANCH  23  27
BRANCH  24  29
HETATM   29  C   UNL     1       7.866  30.795  59.292  1.00  0.00     0.013 A 
HETATM   30  C   UNL     1       8.575  30.563  60.493  1.00  0.00     0.152 A 
HETATM   31  N   UNL     1       8.415  31.544  61.388  1.00  0.00    -0.187 NA
HETATM   32  N   UNL     1       7.586  32.399  60.767  1.00  0.00    -0.289 N 
HETATM   33  H   UNL     1       7.302  33.235  61.265  1.00  0.00     0.188 HD
HETATM   34  C   UNL     1       7.235  32.002  59.509  1.00  0.00     0.123 A 
ENDBRANCH  24  29
ENDBRANCH   1  21
TORSDOF 9
ENDMDL
MODEL 2
REMARK VINA RESULT:      -8.9      3.252      7.505
REMARK  9 active torsions:
REMARK  status: ('A' for Active; 'I' for Inactive)
REMARK    1  A    between atoms: O_2  and  C_3 
REMARK    2  A    between atoms: C_5  and  C_15 
REMARK    3  A    between atoms: C_8  and  C_9 
REMARK       I    between atoms: C_15  and  N_17 
REMARK    4  A    between atoms: N_17  and  C_18 
REMARK    5  A    between atoms: C_18  and  C_19 
REMARK    6  A    between atoms: C_18  and  C_27 
REMARK    7  A    between atoms: C_19  and  N_20 
REMARK    8  A    between atoms: N_20  and  S_21 
REMARK    9  A    between atoms: S_21  and  C_24 
ROOT
HETATM    1  C   UNL     1       5.752  25.381  54.394  1.00  0.00     0.252 C 
HETATM    2  O   UNL     1       4.923  25.448  55.296  1.00  0.00    -0.268 OA
HETATM    3  N   UNL     1       6.954  24.727  54.549  1.00  0.00    -0.347 N 
HETATM    4  H   UNL     1       7.592  24.600  53.777  1.00  0.00     0.163 HD
ENDROOT
BRANCH   3   5
HETATM    5  C   UNL     1       7.257  24.010  55.796  1.00  0.00     0.132 C 
BRANCH   5   6
HETATM    6  C   UNL     1       8.105  24.911  56.741  1.00  0.00     0.134 C 
BRANCH   6   7
HETATM    7  N   UNL     1       7.223  25.811  57.539  1.00  0.00    -0.217 NA
HETATM    8  H   UNL     1       7.354  25.666  58.543  1.00  0.00     0.139 HD
BRANCH   7   9
HETATM    9  S   UNL     1       7.341  27.463  57.217  1.00  0.00     0.213 S 
HETATM   10  O   UNL     1       8.118  28.017  58.302  1.00  0.00    -0.211 OA
HETATM   11  O   UNL     1       7.766  27.599  55.843  1.00  0.00    -0.211 OA
BRANCH   9  12
HETATM   12  C   UNL     1       5.657  28.136  57.294  1.00  0.00     0.124 A 
HETATM   13  C   UNL     1       5.591  29.634  57.434  1.00  0.00     0.023 A 
HETATM   14  C   UNL     1       5.248  28.984  56.121  1.00  0.00     0.023 A 
ENDBRANCH   9  12
ENDBRANCH   7   9
ENDBRANCH   6   7
ENDBRANCH   5   6
BRANCH   5  15
HETATM   15  C   UNL     1       7.809  22.622  55.473  1.00  0.00    -0.034 A 
HETATM   16  C   UNL     1       8.365  21.769  56.438  1.00  0.00     0.009 A 
HETATM   17  C   UNL     1       8.834  20.497  56.093  1.00  0.00     0.001 A 
HETATM   18  C   UNL     1       8.755  20.055  54.776  1.00  0.00     0.000 A 
HETATM   19  C   UNL     1       8.195  20.877  53.804  1.00  0.00     0.001 A 
HETATM   20  C   UNL     1       7.719  22.143  54.151  1.00  0.00     0.009 A 
ENDBRANCH   5  15
ENDBRANCH   3   5
BRANCH   1  21
HETATM   21  C   UNL     1       5.453  25.981  53.061  1.00  0.00     0.034 A 
HETATM   22  C   UNL     1       5.351  27.381  52.988  1.00  0.00     0.054 A 
HETATM   23  C   UNL     1       5.066  28.025  51.777  1.00  0.00     0.080 A 
HETATM   24  C   UNL     1       4.885  27.254  50.610  1.00  0.00     0.010 A 
HETATM   25  C   UNL     1       5.003  25.854  50.690  1.00  0.00     0.016 A 
HETATM   26  C   UNL     1       5.287  25.220  51.903  1.00  0.00     0.018 A 
BRANCH  23  27
HETATM   27  O   UNL     1       4.935  29.385  51.652  1.00  0.00    -0.355 OA
HETATM   28  C   UNL     1       4.236  30.088  52.671  1.00  0.00     0.210 C 
ENDBRANCH  23  27
BRANCH  24  29
HETATM   29  C   UNL     1       4.601  27.867  49.318  1.00  0.00     0.013 A 
HETATM   30  C   UNL     1       5.461  28.439  48.352  1.00  0.00     0.152 A 
HETATM   31  N   UNL     1       4.807  28.900  47.282  1.00  0.00    -0.187 NA
HETATM   32  N   UNL     1       3.521  28.643  47.569  1.00  0.00    -0.289 N 
HETATM   33  H   UNL     1       2.816  28.923  46.897  1.00  0.00     0.188 HD
HETATM   34  C   UNL     1       3.344  28.020  48.771  1.00  0.00     0.123 A 
ENDBRANCH  24  29
ENDBRANCH   1  21
TORSDOF 9
ENDMDL
MODEL 3
REMARK VINA RESULT:      -8.7      3.166      8.117
REMARK  9 active torsions:
REMARK  status: ('A' for Active; 'I' for Inactive)
REMARK    1  A    between atoms: O_2  and  C_3 
REMARK    2  A    between atoms: C_5  and  C_15 
REMARK    3  A    between atoms: C_8  and  C_9 
REMARK       I    between atoms: C_15  and  N_17 
REMARK    4  A    between atoms: N_17  and  C_18 
REMARK    5  A    between atoms: C_18  and  C_19 
REMARK    6  A    between atoms: C_18  and  C_27 
REMARK    7  A    between atoms: C_19  and  N_20 
REMARK    8  A    between atoms: N_20  and  S_21 
REMARK    9  A    between atoms: S_21  and  C_24 
ROOT
HETATM    1  C   UNL     1       6.677  27.261  53.299  1.00  0.00     0.252 C 
HETATM    2  O   UNL     1       7.485  28.184  53.312  1.00  0.00    -0.268 OA
HETATM    3  N   UNL     1       5.335  27.463  53.062  1.00  0.00    -0.347 N 
HETATM    4  H   UNL     1       4.692  26.691  52.965  1.00  0.00     0.163 HD
ENDROOT
BRANCH   3   5
HETATM    5  C   UNL     1       4.830  28.804  52.737  1.00  0.00     0.132 C 
BRANCH   5   6
HETATM    6  C   UNL     1       4.243  29.480  54.011  1.00  0.00     0.134 C 
BRANCH   6   7
HETATM    7  N   UNL     1       5.335  30.033  54.863  1.00  0.00    -0.217 NA
HETATM    8  H   UNL     1       5.226  31.040  55.002  1.00  0.00     0.139 HD
BRANCH   7   9
HETATM    9  S   UNL     1       5.557  29.306  56.369  1.00  0.00     0.213 S 
HETATM   10  O   UNL     1       4.948  30.200  57.327  1.00  0.00    -0.211 OA
HETATM   11  O   UNL     1       5.130  27.931  56.245  1.00  0.00    -0.211 OA
BRANCH   9  12
HETATM   12  C   UNL     1       7.347  29.253  56.669  1.00  0.00     0.124 A 
HETATM   13  C   UNL     1       7.734  29.210  58.124  1.00  0.00     0.023 A 
HETATM   14  C   UNL     1       7.862  27.975  57.273  1.00  0.00     0.023 A 
ENDBRANCH   9  12
ENDBRANCH   7   9
ENDBRANCH   6   7
ENDBRANCH   5   6
BRANCH   5  15
HETATM   15  C   UNL     1       3.928  28.732  51.506  1.00  0.00    -0.034 A 
HETATM   16  C   UNL     1       4.277  28.047  50.332  1.00  0.00     0.009 A 
HETATM   17  C   UNL     1       3.402  27.992  49.241  1.00  0.00     0.001 A 
HETATM   18  C   UNL     1       2.163  28.620  49.305  1.00  0.00     0.000 A 
HETATM   19  C   UNL     1       1.789  29.294  50.462  1.00  0.00     0.001 A 
HETATM   20  C   UNL     1       2.658  29.341  51.554  1.00  0.00     0.009 A 
ENDBRANCH   5  15
ENDBRANCH   3   5
BRANCH   1  21
HETATM   21  C   UNL     1       7.145  25.858  53.498  1.00  0.00     0.034 A 
HETATM   22  C   UNL     1       7.155  25.358  54.812  1.00  0.00     0.054 A 
HETATM   23  C   UNL     1       7.587  24.054  55.088  1.00  0.00     0.080 A 
HETATM   24  C   UNL     1       8.011  23.227  54.027  1.00  0.00     0.010 A 
HETATM   25  C   UNL     1       7.984  23.731  52.714  1.00  0.00     0.016 A 
HETATM   26  C   UNL     1       7.553  25.035  52.448  1.00  0.00     0.018 A 
BRANCH  23  27
HETATM   27  O   UNL     1       7.637  23.522  56.352  1.00  0.00    -0.355 OA
HETATM   28  C   UNL     1       8.385  24.215  57.342  1.00  0.00     0.210 C 
ENDBRANCH  23  27
BRANCH  24  29
HETATM   29  C   UNL     1       8.456  21.857  54.250  1.00  0.00     0.013 A 
HETATM   30  C   UNL     1       8.168  20.661  53.552  1.00  0.00     0.152 A 
HETATM   31  N   UNL     1       8.782  19.594  54.073  1.00  0.00    -0.187 NA
HETATM   32  N   UNL     1       9.450  20.101  55.120  1.00  0.00    -0.289 N 
HETATM   33  H   UNL     1       9.993  19.466  55.694  1.00  0.00     0.188 HD
HETATM   34  C   UNL     1       9.296  21.450  55.266  1.00  0.00     0.123 A 
ENDBRANCH  24  29
ENDBRANCH   1  21
TORSDOF 9
ENDMDL
MODEL 4
REMARK VINA RESULT:      -8.6      3.462      8.993
REMARK  9 active torsions:
REMARK  status: ('A' for Active; 'I' for Inactive)
REMARK    1  A    between atoms: O_2  and  C_3 
REMARK    2  A    between atoms: C_5  and  C_15 
REMARK    3  A    between atoms: C_8  and  C_9 
REMARK       I    between atoms: C_15  and  N_17 
REMARK    4  A    between atoms: N_17  and  C_18 
REMARK    5  A    between atoms: C_18  and  C_19 
REMARK    6  A    between atoms: C_18  and  C_27 
REMARK    7  A    between atoms: C_19  and  N_20 
REMARK    8  A    between atoms: N_20  and  S_21 
REMARK    9  A    between atoms: S_21  and  C_24 
ROOT
HETATM    1  C   UNL     1       7.463  26.407  57.494  1.00  0.00     0.252 C 
HETATM    2  O   UNL     1       7.639  26.370  58.708  1.00  0.00    -0.268 OA
HETATM    3  N   UNL     1       7.103  27.565  56.840  1.00  0.00    -0.347 N 
HETATM    4  H   UNL     1       7.047  27.609  55.833  1.00  0.00     0.163 HD
ENDROOT
BRANCH   3   5
HETATM    5  C   UNL     1       6.989  28.832  57.576  1.00  0.00     0.132 C 
BRANCH   5   6
HETATM    6  C   UNL     1       5.756  29.637  57.071  1.00  0.00     0.134 C 
BRANCH   6   7
HETATM    7  N   UNL     1       5.127  30.392  58.192  1.00  0.00    -0.217 NA
HETATM    8  H   UNL     1       5.748  30.440  59.003  1.00  0.00     0.139 HD
BRANCH   7   9
HETATM    9  S   UNL     1       4.584  31.951  57.841  1.00  0.00     0.213 S 
HETATM   10  O   UNL     1       5.217  32.311  56.593  1.00  0.00    -0.211 OA
HETATM   11  O   UNL     1       3.146  31.942  57.981  1.00  0.00    -0.211 OA
BRANCH   9  12
HETATM   12  C   UNL     1       5.213  33.035  59.154  1.00  0.00     0.124 A 
HETATM   13  C   UNL     1       4.612  32.782  60.512  1.00  0.00     0.023 A 
HETATM   14  C   UNL     1       6.024  32.352  60.221  1.00  0.00     0.023 A 
ENDBRANCH   9  12
ENDBRANCH   7   9
ENDBRANCH   6   7
ENDBRANCH   5   6
BRANCH   5  15
HETATM   15  C   UNL     1       8.338  29.551  57.580  1.00  0.00    -0.034 A 
HETATM   16  C   UNL     1       8.683  30.539  58.513  1.00  0.00     0.009 A 
HETATM   17  C   UNL     1       9.942  31.150  58.486  1.00  0.00     0.001 A 
HETATM   18  C   UNL     1      10.879  30.781  57.527  1.00  0.00     0.000 A 
HETATM   19  C   UNL     1      10.565  29.793  56.599  1.00  0.00     0.001 A 
HETATM   20  C   UNL     1       9.312  29.178  56.631  1.00  0.00     0.009 A 
ENDBRANCH   5  15
ENDBRANCH   3   5
BRANCH   1  21
HETATM   21  C   UNL     1       7.686  25.183  56.671  1.00  0.00     0.034 A 
HETATM   22  C   UNL     1       6.999  25.090  55.449  1.00  0.00     0.054 A 
HETATM   23  C   UNL     1       7.144  23.971  54.618  1.00  0.00     0.080 A 
HETATM   24  C   UNL     1       8.003  22.924  55.014  1.00  0.00     0.010 A 
HETATM   25  C   UNL     1       8.697  23.032  56.233  1.00  0.00     0.016 A 
HETATM   26  C   UNL     1       8.544  24.152  57.056  1.00  0.00     0.018 A 
BRANCH  23  27
HETATM   27  O   UNL     1       6.484  23.819  53.425  1.00  0.00    -0.355 OA
HETATM   28  C   UNL     1       5.431  24.725  53.122  1.00  0.00     0.210 C 
ENDBRANCH  23  27
BRANCH  24  29
HETATM   29  C   UNL     1       8.207  21.742  54.186  1.00  0.00     0.013 A 
HETATM   30  C   UNL     1       8.795  20.490  54.483  1.00  0.00     0.152 A 
HETATM   31  N   UNL     1       8.792  19.654  53.440  1.00  0.00    -0.187 NA
HETATM   32  N   UNL     1       8.219  20.377  52.464  1.00  0.00    -0.289 N 
HETATM   33  H   UNL     1       8.117  19.950  51.550  1.00  0.00     0.188 HD
HETATM   34  C   UNL     1       7.844  21.628  52.860  1.00  0.00     0.123 A 
ENDBRANCH  24  29
ENDBRANCH   1  21
TORSDOF 9
ENDMDL
MODEL 5
REMARK VINA RESULT:      -8.6      1.997      2.661
REMARK  9 active torsions:
REMARK  status: ('A' for Active; 'I' for Inactive)
REMARK    1  A    between atoms: O_2  and  C_3 
REMARK    2  A    between atoms: C_5  and  C_15 
REMARK    3  A    between atoms: C_8  and  C_9 
REMARK       I    between atoms: C_15  and  N_17 
REMARK    4  A    between atoms: N_17  and  C_18 
REMARK    5  A    between atoms: C_18  and  C_19 
REMARK    6  A    between atoms: C_18  and  C_27 
REMARK    7  A    between atoms: C_19  and  N_20 
REMARK    8  A    between atoms: N_20  and  S_21 
REMARK    9  A    between atoms: S_21  and  C_24 
ROOT
HETATM    1  C   UNL     1       7.597  27.960  54.749  1.00  0.00     0.252 C 
HETATM    2  O   UNL     1       8.142  28.247  53.689  1.00  0.00    -0.268 OA
HETATM    3  N   UNL     1       6.673  26.944  54.848  1.00  0.00    -0.347 N 
HETATM    4  H   UNL     1       6.295  26.656  55.739  1.00  0.00     0.163 HD
ENDROOT
BRANCH   3   5
HETATM    5  C   UNL     1       6.359  26.107  53.682  1.00  0.00     0.132 C 
BRANCH   5   6
HETATM    6  C   UNL     1       4.849  26.230  53.323  1.00  0.00     0.134 C 
BRANCH   6   7
HETATM    7  N   UNL     1       4.679  26.631  51.896  1.00  0.00    -0.217 NA
HETATM    8  H   UNL     1       3.929  26.100  51.447  1.00  0.00     0.139 HD
BRANCH   7   9
HETATM    9  S   UNL     1       4.426  28.272  51.599  1.00  0.00     0.213 S 
HETATM   10  O   UNL     1       5.742  28.870  51.566  1.00  0.00    -0.211 OA
HETATM   11  O   UNL     1       3.529  28.366  50.470  1.00  0.00    -0.211 OA
BRANCH   9  12
HETATM   12  C   UNL     1       3.516  28.931  53.024  1.00  0.00     0.124 A 
HETATM   13  C   UNL     1       4.365  29.689  54.010  1.00  0.00     0.023 A 
HETATM   14  C   UNL     1       3.428  30.431  53.095  1.00  0.00     0.023 A 
ENDBRANCH   9  12
ENDBRANCH   7   9
ENDBRANCH   6   7
ENDBRANCH   5   6
BRANCH   5  15
HETATM   15  C   UNL     1       6.913  24.698  53.893  1.00  0.00    -0.034 A 
HETATM   16  C   UNL     1       6.945  24.059  55.142  1.00  0.00     0.009 A 
HETATM   17  C   UNL     1       7.442  22.758  55.275  1.00  0.00     0.001 A 
HETATM   18  C   UNL     1       7.915  22.072  54.161  1.00  0.00     0.000 A 
HETATM   19  C   UNL     1       7.882  22.679  52.911  1.00  0.00     0.001 A 
HETATM   20  C   UNL     1       7.378  23.974  52.776  1.00  0.00     0.009 A 
ENDBRANCH   5  15
ENDBRANCH   3   5
BRANCH   1  21
HETATM   21  C   UNL     1       7.965  28.690  55.997  1.00  0.00     0.034 A 
HETATM   22  C   UNL     1       6.951  29.414  56.648  1.00  0.00     0.054 A 
HETATM   23  C   UNL     1       7.212  30.134  57.821  1.00  0.00     0.080 A 
HETATM   24  C   UNL     1       8.514  30.125  58.363  1.00  0.00     0.010 A 
HETATM   25  C   UNL     1       9.520  29.386  57.712  1.00  0.00     0.016 A 
HETATM   26  C   UNL     1       9.251  28.672  56.541  1.00  0.00     0.018 A 
BRANCH  23  27
HETATM   27  O   UNL     1       6.266  30.873  58.486  1.00  0.00    -0.355 OA
HETATM   28  C   UNL     1       4.974  30.988  57.903  1.00  0.00     0.210 C 
ENDBRANCH  23  27
BRANCH  24  29
HETATM   29  C   UNL     1       8.844  30.841  59.588  1.00  0.00     0.013 A 
HETATM   30  C   UNL     1       8.723  30.464  60.946  1.00  0.00     0.152 A 
HETATM   31  N   UNL     1       9.142  31.414  61.788  1.00  0.00    -0.187 NA
HETATM   32  N   UNL     1       9.514  32.412  60.971  1.00  0.00    -0.289 N 
HETATM   33  H   UNL     1       9.862  33.267  61.389  1.00  0.00     0.188 HD
HETATM   34  C   UNL     1       9.364  32.118  59.647  1.00  0.00     0.123 A 
ENDBRANCH  24  29
ENDBRANCH   1  21
TORSDOF 9
ENDMDL
MODEL 6
REMARK VINA RESULT:      -8.5      3.008      7.866
REMARK  9 active torsions:
REMARK  status: ('A' for Active; 'I' for Inactive)
REMARK    1  A    between atoms: O_2  and  C_3 
REMARK    2  A    between atoms: C_5  and  C_15 
REMARK    3  A    between atoms: C_8  and  C_9 
REMARK       I    between atoms: C_15  and  N_17 
REMARK    4  A    between atoms: N_17  and  C_18 
REMARK    5  A    between atoms: C_18  and  C_19 
REMARK    6  A    between atoms: C_18  and  C_27 
REMARK    7  A    between atoms: C_19  and  N_20 
REMARK    8  A    between atoms: N_20  and  S_21 
REMARK    9  A    between atoms: S_21  and  C_24 
ROOT
HETATM    1  C   UNL     1       7.466  26.527  57.362  1.00  0.00     0.252 C 
HETATM    2  O   UNL     1       7.666  26.539  58.572  1.00  0.00    -0.268 OA
HETATM    3  N   UNL     1       7.068  27.651  56.673  1.00  0.00    -0.347 N 
HETATM    4  H   UNL     1       6.992  27.656  55.666  1.00  0.00     0.163 HD
ENDROOT
BRANCH   3   5
HETATM    5  C   UNL     1       6.940  28.942  57.363  1.00  0.00     0.132 C 
BRANCH   5   6
HETATM    6  C   UNL     1       5.788  29.777  56.730  1.00  0.00     0.134 C 
BRANCH   6   7
HETATM    7  N   UNL     1       6.009  29.951  55.266  1.00  0.00    -0.217 NA
HETATM    8  H   UNL     1       6.990  29.809  55.018  1.00  0.00     0.139 HD
BRANCH   7   9
HETATM    9  S   UNL     1       5.056  29.008  54.242  1.00  0.00     0.213 S 
HETATM   10  O   UNL     1       5.944  28.010  53.692  1.00  0.00    -0.211 OA
HETATM   11  O   UNL     1       3.874  28.634  54.985  1.00  0.00    -0.211 OA
BRANCH   9  12
HETATM   12  C   UNL     1       4.488  30.093  52.903  1.00  0.00     0.124 A 
HETATM   13  C   UNL     1       3.338  29.544  52.100  1.00  0.00     0.023 A 
HETATM   14  C   UNL     1       3.108  30.665  53.077  1.00  0.00     0.023 A 
ENDBRANCH   9  12
ENDBRANCH   7   9
ENDBRANCH   6   7
ENDBRANCH   5   6
BRANCH   5  15
HETATM   15  C   UNL     1       8.310  29.610  57.468  1.00  0.00    -0.034 A 
HETATM   16  C   UNL     1       9.365  29.353  56.580  1.00  0.00     0.009 A 
HETATM   17  C   UNL     1      10.593  30.011  56.708  1.00  0.00     0.001 A 
HETATM   18  C   UNL     1      10.788  30.940  57.725  1.00  0.00     0.000 A 
HETATM   19  C   UNL     1       9.753  31.221  58.610  1.00  0.00     0.001 A 
HETATM   20  C   UNL     1       8.525  30.571  58.477  1.00  0.00     0.009 A 
ENDBRANCH   5  15
ENDBRANCH   3   5
BRANCH   1  21
HETATM   21  C   UNL     1       7.700  25.278  56.581  1.00  0.00     0.034 A 
HETATM   22  C   UNL     1       6.921  25.078  55.429  1.00  0.00     0.054 A 
HETATM   23  C   UNL     1       7.070  23.929  54.642  1.00  0.00     0.080 A 
HETATM   24  C   UNL     1       8.027  22.959  55.009  1.00  0.00     0.010 A 
HETATM   25  C   UNL     1       8.813  23.175  56.156  1.00  0.00     0.016 A 
HETATM   26  C   UNL     1       8.656  24.324  56.936  1.00  0.00     0.018 A 
BRANCH  23  27
HETATM   27  O   UNL     1       6.323  23.673  53.520  1.00  0.00    -0.355 OA
HETATM   28  C   UNL     1       6.069  24.747  52.624  1.00  0.00     0.210 C 
ENDBRANCH  23  27
BRANCH  24  29
HETATM   29  C   UNL     1       8.240  21.751  54.222  1.00  0.00     0.013 A 
HETATM   30  C   UNL     1       8.769  20.490  54.582  1.00  0.00     0.152 A 
HETATM   31  N   UNL     1       8.798  19.628  53.560  1.00  0.00    -0.187 NA
HETATM   32  N   UNL     1       8.306  20.343  52.537  1.00  0.00    -0.289 N 
HETATM   33  H   UNL     1       8.242  19.896  51.629  1.00  0.00     0.188 HD
HETATM   34  C   UNL     1       7.949  21.615  52.881  1.00  0.00     0.123 A 
ENDBRANCH  24  29
ENDBRANCH   1  21
TORSDOF 9
ENDMDL
MODEL 7
REMARK VINA RESULT:      -8.4      2.803      8.011
REMARK  9 active torsions:
REMARK  status: ('A' for Active; 'I' for Inactive)
REMARK    1  A    between atoms: O_2  and  C_3 
REMARK    2  A    between atoms: C_5  and  C_15 
REMARK    3  A    between atoms: C_8  and  C_9 
REMARK       I    between atoms: C_15  and  N_17 
REMARK    4  A    between atoms: N_17  and  C_18 
REMARK    5  A    between atoms: C_18  and  C_19 
REMARK    6  A    between atoms: C_18  and  C_27 
REMARK    7  A    between atoms: C_19  and  N_20 
REMARK    8  A    between atoms: N_20  and  S_21 
REMARK    9  A    between atoms: S_21  and  C_24 
ROOT
HETATM    1  C   UNL     1       5.163  25.748  53.159  1.00  0.00     0.252 C 
HETATM    2  O   UNL     1       4.357  24.910  53.549  1.00  0.00    -0.268 OA
HETATM    3  N   UNL     1       6.357  25.976  53.809  1.00  0.00    -0.347 N 
HETATM    4  H   UNL     1       7.054  26.602  53.433  1.00  0.00     0.163 HD
ENDROOT
BRANCH   3   5
HETATM    5  C   UNL     1       6.742  25.158  54.967  1.00  0.00     0.132 C 
BRANCH   5   6
HETATM    6  C   UNL     1       7.655  25.979  55.925  1.00  0.00     0.134 C 
BRANCH   6   7
HETATM    7  N   UNL     1       7.023  27.288  56.257  1.00  0.00    -0.217 NA
HETATM    8  H   UNL     1       6.790  27.347  57.251  1.00  0.00     0.139 HD
BRANCH   7   9
HETATM    9  S   UNL     1       7.886  28.673  55.828  1.00  0.00     0.213 S 
HETATM   10  O   UNL     1       8.287  28.472  54.454  1.00  0.00    -0.211 OA
HETATM   11  O   UNL     1       7.087  29.811  56.219  1.00  0.00    -0.211 OA
BRANCH   9  12
HETATM   12  C   UNL     1       9.369  28.714  56.874  1.00  0.00     0.124 A 
HETATM   13  C   UNL     1      10.394  29.738  56.461  1.00  0.00     0.023 A 
HETATM   14  C   UNL     1       9.550  29.967  57.686  1.00  0.00     0.023 A 
ENDBRANCH   9  12
ENDBRANCH   7   9
ENDBRANCH   6   7
ENDBRANCH   5   6
BRANCH   5  15
HETATM   15  C   UNL     1       7.269  23.804  54.491  1.00  0.00    -0.034 A 
HETATM   16  C   UNL     1       7.678  23.555  53.172  1.00  0.00     0.009 A 
HETATM   17  C   UNL     1       8.175  22.303  52.795  1.00  0.00     0.001 A 
HETATM   18  C   UNL     1       8.273  21.277  53.730  1.00  0.00     0.000 A 
HETATM   19  C   UNL     1       7.886  21.503  55.046  1.00  0.00     0.001 A 
HETATM   20  C   UNL     1       7.398  22.756  55.425  1.00  0.00     0.009 A 
ENDBRANCH   5  15
ENDBRANCH   3   5
BRANCH   1  21
HETATM   21  C   UNL     1       4.888  26.526  51.916  1.00  0.00     0.034 A 
HETATM   22  C   UNL     1       4.429  27.845  52.065  1.00  0.00     0.054 A 
HETATM   23  C   UNL     1       4.139  28.643  50.951  1.00  0.00     0.080 A 
HETATM   24  C   UNL     1       4.320  28.113  49.656  1.00  0.00     0.010 A 
HETATM   25  C   UNL     1       4.793  26.796  49.516  1.00  0.00     0.016 A 
HETATM   26  C   UNL     1       5.079  26.006  50.635  1.00  0.00     0.018 A 
BRANCH  23  27
HETATM   27  O   UNL     1       3.669  29.929  51.038  1.00  0.00    -0.355 OA
HETATM   28  C   UNL     1       3.358  30.444  52.327  1.00  0.00     0.210 C 
ENDBRANCH  23  27
BRANCH  24  29
HETATM   29  C   UNL     1       4.050  28.899  48.458  1.00  0.00     0.013 A 
HETATM   30  C   UNL     1       4.838  29.855  47.778  1.00  0.00     0.152 A 
HETATM   31  N   UNL     1       4.228  30.360  46.700  1.00  0.00    -0.187 NA
HETATM   32  N   UNL     1       3.037  29.741  46.699  1.00  0.00    -0.289 N 
HETATM   33  H   UNL     1       2.377  29.976  45.967  1.00  0.00     0.188 HD
HETATM   34  C   UNL     1       2.883  28.852  47.724  1.00  0.00     0.123 A 
ENDBRANCH  24  29
ENDBRANCH   1  21
TORSDOF 9
ENDMDL
MODEL 8
REMARK VINA RESULT:      -8.4      1.396      2.190
REMARK  9 active torsions:
REMARK  status: ('A' for Active; 'I' for Inactive)
REMARK    1  A    between atoms: O_2  and  C_3 
REMARK    2  A    between atoms: C_5  and  C_15 
REMARK    3  A    between atoms: C_8  and  C_9 
REMARK       I    between atoms: C_15  and  N_17 
REMARK    4  A    between atoms: N_17  and  C_18 
REMARK    5  A    between atoms: C_18  and  C_19 
REMARK    6  A    between atoms: C_18  and  C_27 
REMARK    7  A    between atoms: C_19  and  N_20 
REMARK    8  A    between atoms: N_20  and  S_21 
REMARK    9  A    between atoms: S_21  and  C_24 
ROOT
HETATM    1  C   UNL     1       7.815  28.089  54.709  1.00  0.00     0.252 C 
HETATM    2  O   UNL     1       8.248  28.558  53.661  1.00  0.00    -0.268 OA
HETATM    3  N   UNL     1       7.139  26.889  54.752  1.00  0.00    -0.347 N 
HETATM    4  H   UNL     1       6.864  26.467  55.627  1.00  0.00     0.163 HD
ENDROOT
BRANCH   3   5
HETATM    5  C   UNL     1       6.977  26.081  53.536  1.00  0.00     0.132 C 
BRANCH   5   6
HETATM    6  C   UNL     1       5.621  26.413  52.847  1.00  0.00     0.134 C 
BRANCH   6   7
HETATM    7  N   UNL     1       5.780  27.549  51.893  1.00  0.00    -0.217 NA
HETATM    8  H   UNL     1       6.751  27.642  51.584  1.00  0.00     0.139 HD
BRANCH   7   9
HETATM    9  S   UNL     1       4.784  27.536  50.532  1.00  0.00     0.213 S 
HETATM   10  O   UNL     1       4.720  26.156  50.109  1.00  0.00    -0.211 OA
HETATM   11  O   UNL     1       3.590  28.274  50.872  1.00  0.00    -0.211 OA
BRANCH   9  12
HETATM   12  C   UNL     1       5.630  28.506  49.252  1.00  0.00     0.124 A 
HETATM   13  C   UNL     1       5.198  28.190  47.844  1.00  0.00     0.023 A 
HETATM   14  C   UNL     1       4.760  29.474  48.496  1.00  0.00     0.023 A 
ENDBRANCH   9  12
ENDBRANCH   7   9
ENDBRANCH   6   7
ENDBRANCH   5   6
BRANCH   5  15
HETATM   15  C   UNL     1       7.260  24.613  53.849  1.00  0.00    -0.034 A 
HETATM   16  C   UNL     1       7.649  23.676  52.879  1.00  0.00     0.009 A 
HETATM   17  C   UNL     1       7.919  22.348  53.225  1.00  0.00     0.001 A 
HETATM   18  C   UNL     1       7.806  21.932  54.548  1.00  0.00     0.000 A 
HETATM   19  C   UNL     1       7.435  22.844  55.530  1.00  0.00     0.001 A 
HETATM   20  C   UNL     1       7.174  24.172  55.186  1.00  0.00     0.009 A 
ENDBRANCH   5  15
ENDBRANCH   3   5
BRANCH   1  21
HETATM   21  C   UNL     1       8.056  28.799  55.998  1.00  0.00     0.034 A 
HETATM   22  C   UNL     1       6.966  29.467  56.584  1.00  0.00     0.054 A 
HETATM   23  C   UNL     1       7.107  30.165  57.790  1.00  0.00     0.080 A 
HETATM   24  C   UNL     1       8.363  30.191  58.432  1.00  0.00     0.010 A 
HETATM   25  C   UNL     1       9.444  29.508  57.845  1.00  0.00     0.016 A 
HETATM   26  C   UNL     1       9.295  28.815  56.640  1.00  0.00     0.018 A 
BRANCH  23  27
HETATM   27  O   UNL     1       6.084  30.850  58.396  1.00  0.00    -0.355 OA
HETATM   28  C   UNL     1       5.154  31.537  57.567  1.00  0.00     0.210 C 
ENDBRANCH  23  27
BRANCH  24  29
HETATM   29  C   UNL     1       8.568  30.887  59.696  1.00  0.00     0.013 A 
HETATM   30  C   UNL     1       8.755  30.394  61.008  1.00  0.00     0.152 A 
HETATM   31  N   UNL     1       8.914  31.367  61.911  1.00  0.00    -0.187 NA
HETATM   32  N   UNL     1       8.808  32.488  61.181  1.00  0.00    -0.289 N 
HETATM   33  H   UNL     1       8.882  33.379  61.660  1.00  0.00     0.188 HD
HETATM   34  C   UNL     1       8.609  32.257  59.850  1.00  0.00     0.123 A 
ENDBRANCH  24  29
ENDBRANCH   1  21
TORSDOF 9
ENDMDL
MODEL 9
REMARK VINA RESULT:      -8.3      3.689      9.214
REMARK  9 active torsions:
REMARK  status: ('A' for Active; 'I' for Inactive)
REMARK    1  A    between atoms: O_2  and  C_3 
REMARK    2  A    between atoms: C_5  and  C_15 
REMARK    3  A    between atoms: C_8  and  C_9 
REMARK       I    between atoms: C_15  and  N_17 
REMARK    4  A    between atoms: N_17  and  C_18 
REMARK    5  A    between atoms: C_18  and  C_19 
REMARK    6  A    between atoms: C_18  and  C_27 
REMARK    7  A    between atoms: C_19  and  N_20 
REMARK    8  A    between atoms: N_20  and  S_21 
REMARK    9  A    between atoms: S_21  and  C_24 
ROOT
HETATM    1  C   UNL     1       6.090  26.192  51.905  1.00  0.00     0.252 C 
HETATM    2  O   UNL     1       6.998  25.465  51.516  1.00  0.00    -0.268 OA
HETATM    3  N   UNL     1       5.904  26.485  53.238  1.00  0.00    -0.347 N 
HETATM    4  H   UNL     1       5.211  27.153  53.543  1.00  0.00     0.163 HD
ENDROOT
BRANCH   3   5
HETATM    5  C   UNL     1       6.849  25.989  54.248  1.00  0.00     0.132 C 
BRANCH   5   6
HETATM    6  C   UNL     1       6.401  24.588  54.760  1.00  0.00     0.134 C 
BRANCH   6   7
HETATM    7  N   UNL     1       7.003  23.508  53.926  1.00  0.00    -0.217 NA
HETATM    8  H   UNL     1       7.272  23.856  53.003  1.00  0.00     0.139 HD
BRANCH   7   9
HETATM    9  S   UNL     1       8.316  22.685  54.591  1.00  0.00     0.213 S 
HETATM   10  O   UNL     1       9.008  22.085  53.473  1.00  0.00    -0.211 OA
HETATM   11  O   UNL     1       8.985  23.603  55.484  1.00  0.00    -0.211 OA
BRANCH   9  12
HETATM   12  C   UNL     1       7.636  21.367  55.639  1.00  0.00     0.124 A 
HETATM   13  C   UNL     1       8.499  20.136  55.730  1.00  0.00     0.023 A 
HETATM   14  C   UNL     1       8.409  21.081  56.898  1.00  0.00     0.023 A 
ENDBRANCH   9  12
ENDBRANCH   7   9
ENDBRANCH   6   7
ENDBRANCH   5   6
BRANCH   5  15
HETATM   15  C   UNL     1       7.096  27.070  55.300  1.00  0.00    -0.034 A 
HETATM   16  C   UNL     1       6.818  28.429  55.090  1.00  0.00     0.009 A 
HETATM   17  C   UNL     1       7.042  29.375  56.096  1.00  0.00     0.001 A 
HETATM   18  C   UNL     1       7.545  28.979  57.331  1.00  0.00     0.000 A 
HETATM   19  C   UNL     1       7.815  27.636  57.568  1.00  0.00     0.001 A 
HETATM   20  C   UNL     1       7.584  26.690  56.566  1.00  0.00     0.009 A 
ENDBRANCH   5  15
ENDBRANCH   3   5
BRANCH   1  21
HETATM   21  C   UNL     1       5.171  26.830  50.917  1.00  0.00     0.034 A 
HETATM   22  C   UNL     1       4.938  26.146  49.712  1.00  0.00     0.054 A 
HETATM   23  C   UNL     1       4.095  26.676  48.727  1.00  0.00     0.080 A 
HETATM   24  C   UNL     1       3.462  27.917  48.955  1.00  0.00     0.010 A 
HETATM   25  C   UNL     1       3.690  28.588  50.170  1.00  0.00     0.016 A 
HETATM   26  C   UNL     1       4.535  28.051  51.147  1.00  0.00     0.018 A 
BRANCH  23  27
HETATM   27  O   UNL     1       3.848  26.062  47.526  1.00  0.00    -0.355 OA
HETATM   28  C   UNL     1       2.983  24.933  47.515  1.00  0.00     0.210 C 
ENDBRANCH  23  27
BRANCH  24  29
HETATM   29  C   UNL     1       2.563  28.513  47.975  1.00  0.00     0.013 A 
HETATM   30  C   UNL     1       1.182  28.317  47.741  1.00  0.00     0.152 A 
HETATM   31  N   UNL     1       0.714  29.064  46.736  1.00  0.00    -0.187 NA
HETATM   32  N   UNL     1       1.800  29.727  46.310  1.00  0.00    -0.289 N 
HETATM   33  H   UNL     1       1.695  30.360  45.525  1.00  0.00     0.188 HD
HETATM   34  C   UNL     1       2.929  29.440  47.021  1.00  0.00     0.123 A 
ENDBRANCH  24  29
ENDBRANCH   1  21
TORSDOF 9
ENDMDL
MODEL 10
REMARK VINA RESULT:      -8.1      6.850     13.377
REMARK  9 active torsions:
REMARK  status: ('A' for Active; 'I' for Inactive)
REMARK    1  A    between atoms: O_2  and  C_3 
REMARK    2  A    between atoms: C_5  and  C_15 
REMARK    3  A    between atoms: C_8  and  C_9 
REMARK       I    between atoms: C_15  and  N_17 
REMARK    4  A    between atoms: N_17  and  C_18 
REMARK    5  A    between atoms: C_18  and  C_19 
REMARK    6  A    between atoms: C_18  and  C_27 
REMARK    7  A    between atoms: C_19  and  N_20 
REMARK    8  A    between atoms: N_20  and  S_21 
REMARK    9  A    between atoms: S_21  and  C_24 
ROOT
HETATM    1  C   UNL     1       6.763  33.556  62.707  1.00  0.00     0.252 C 
HETATM    2  O   UNL     1       6.786  33.170  63.871  1.00  0.00    -0.268 OA
HETATM    3  N   UNL     1       6.133  34.723  62.333  1.00  0.00    -0.347 N 
HETATM    4  H   UNL     1       6.195  35.080  61.391  1.00  0.00     0.163 HD
ENDROOT
BRANCH   3   5
HETATM    5  C   UNL     1       5.522  35.596  63.344  1.00  0.00     0.132 C 
BRANCH   5   6
HETATM    6  C   UNL     1       4.009  35.259  63.501  1.00  0.00     0.134 C 
BRANCH   6   7
HETATM    7  N   UNL     1       3.485  35.786  64.793  1.00  0.00    -0.217 NA
HETATM    8  H   UNL     1       2.503  36.061  64.712  1.00  0.00     0.139 HD
BRANCH   7   9
HETATM    9  S   UNL     1       3.650  34.783  66.140  1.00  0.00     0.213 S 
HETATM   10  O   UNL     1       2.432  34.949  66.901  1.00  0.00    -0.211 OA
HETATM   11  O   UNL     1       4.064  33.486  65.656  1.00  0.00    -0.211 OA
BRANCH   9  12
HETATM   12  C   UNL     1       5.042  35.429  67.109  1.00  0.00     0.124 A 
HETATM   13  C   UNL     1       5.365  34.629  68.344  1.00  0.00     0.023 A 
HETATM   14  C   UNL     1       6.266  34.554  67.141  1.00  0.00     0.023 A 
ENDBRANCH   9  12
ENDBRANCH   7   9
ENDBRANCH   6   7
ENDBRANCH   5   6
BRANCH   5  15
HETATM   15  C   UNL     1       5.886  37.052  63.059  1.00  0.00    -0.034 A 
HETATM   16  C   UNL     1       6.100  37.556  61.767  1.00  0.00     0.009 A 
HETATM   17  C   UNL     1       6.409  38.904  61.559  1.00  0.00     0.001 A 
HETATM   18  C   UNL     1       6.507  39.775  62.640  1.00  0.00     0.000 A 
HETATM   19  C   UNL     1       6.286  39.303  63.929  1.00  0.00     0.001 A 
HETATM   20  C   UNL     1       5.970  37.958  64.135  1.00  0.00     0.009 A 
ENDBRANCH   5  15
ENDBRANCH   3   5
BRANCH   1  21
HETATM   21  C   UNL     1       7.474  32.779  61.650  1.00  0.00     0.034 A 
HETATM   22  C   UNL     1       6.848  32.666  60.397  1.00  0.00     0.054 A 
HETATM   23  C   UNL     1       7.442  31.947  59.352  1.00  0.00     0.080 A 
HETATM   24  C   UNL     1       8.696  31.335  59.559  1.00  0.00     0.010 A 
HETATM   25  C   UNL     1       9.322  31.466  60.812  1.00  0.00     0.016 A 
HETATM   26  C   UNL     1       8.721  32.183  61.851  1.00  0.00     0.018 A 
BRANCH  23  27
HETATM   27  O   UNL     1       6.867  31.787  58.116  1.00  0.00    -0.355 OA
HETATM   28  C   UNL     1       5.577  31.194  58.049  1.00  0.00     0.210 C 
ENDBRANCH  23  27
BRANCH  24  29
HETATM   29  C   UNL     1       9.371  30.588  58.505  1.00  0.00     0.013 A 
HETATM   30  C   UNL     1      10.548  30.871  57.774  1.00  0.00     0.152 A 
HETATM   31  N   UNL     1      10.846  29.922  56.881  1.00  0.00    -0.187 NA
HETATM   32  N   UNL     1       9.848  29.036  57.024  1.00  0.00    -0.289 N 
HETATM   33  H   UNL     1       9.848  28.216  56.429  1.00  0.00     0.188 HD
HETATM   34  C   UNL     1       8.944  29.383  57.988  1.00  0.00     0.123 A 
ENDBRANCH  24  29
ENDBRANCH   1  21
TORSDOF 9
ENDMDL
