MODEL 1
REMARK VINA RESULT:      -9.9      0.000      0.000
REMARK  4 active torsions:
REMARK  status: ('A' for Active; 'I' for Inactive)
REMARK    1  A    between atoms: C_10  and  C_11 
REMARK    2  A    between atoms: N_14  and  C_16 
REMARK    3  A    between atoms: C_16  and  C_17 
REMARK    4  A    between atoms: C_18  and  C_19 
ROOT
HETATM    1  C   UNL     1       8.607  30.978  59.678  1.00  0.00    -0.036 A 
HETATM    2  C   UNL     1       7.406  31.660  59.902  1.00  0.00     0.013 A 
HETATM    3  C   UNL     1       7.137  32.234  61.150  1.00  0.00     0.023 A 
HETATM    4  C   UNL     1       8.061  32.121  62.192  1.00  0.00     0.044 A 
HETATM    5  C   UNL     1       7.787  32.710  63.470  1.00  0.00     0.099 C 
HETATM    6  N   UNL     1       7.569  33.184  64.505  1.00  0.00    -0.191 NA
HETATM    7  C   UNL     1       9.255  31.425  61.982  1.00  0.00     0.023 A 
HETATM    8  C   UNL     1       9.523  30.853  60.734  1.00  0.00     0.013 A 
ENDROOT
BRANCH   1   9
HETATM    9  C   UNL     1       8.858  30.368  58.365  1.00  0.00     0.009 C 
HETATM   10  C   UNL     1       8.081  29.386  57.878  1.00  0.00     0.001 C 
BRANCH  10  11
HETATM   11  C   UNL     1       8.196  28.708  56.552  1.00  0.00     0.262 C 
BRANCH  11  12
HETATM   12  N   UNL     1       7.003  27.880  56.115  1.00  0.00    -0.068 N 
HETATM   13  C   UNL     1       7.319  27.204  54.794  1.00  0.00     0.236 C 
HETATM   14  C   UNL     1       6.186  26.282  54.353  1.00  0.00     0.037 C 
HETATM   15  C   UNL     1       5.829  25.241  55.434  1.00  0.00     0.024 C 
HETATM   16  C   UNL     1       5.416  26.050  56.667  1.00  0.00     0.037 C 
HETATM   17  C   UNL     1       6.565  26.903  57.184  1.00  0.00     0.236 C 
HETATM   18  H   UNL     1       6.231  28.536  55.954  1.00  0.00     0.280 HD
BRANCH  15  19
HETATM   19  C   UNL     1       6.944  24.233  55.686  1.00  0.00    -0.024 A 
HETATM   20  C   UNL     1       7.502  23.247  54.788  1.00  0.00     0.018 A 
HETATM   21  C   UNL     1       8.424  22.502  55.519  1.00  0.00     0.138 A 
HETATM   22  C   UNL     1       7.339  22.865  53.440  1.00  0.00     0.017 A 
HETATM   23  N   UNL     1       9.133  21.433  55.118  1.00  0.00    -0.242 NA
HETATM   24  N   UNL     1       8.531  23.053  56.760  1.00  0.00    -0.350 N 
HETATM   25  C   UNL     1       8.916  21.099  53.831  1.00  0.00     0.119 A 
HETATM   26  C   UNL     1       8.061  21.765  52.968  1.00  0.00     0.020 A 
HETATM   27  H   UNL     1       9.180  22.721  57.460  1.00  0.00     0.166 HD
HETATM   28  C   UNL     1       7.658  24.103  56.873  1.00  0.00     0.098 A 
ENDBRANCH  15  19
ENDBRANCH  11  12
ENDBRANCH  10  11
ENDBRANCH   1   9
TORSDOF 4
ENDMDL
MODEL 2
REMARK VINA RESULT:      -9.8      1.321      2.011
REMARK  4 active torsions:
REMARK  status: ('A' for Active; 'I' for Inactive)
REMARK    1  A    between atoms: C_10  and  C_11 
REMARK    2  A    between atoms: N_14  and  C_16 
REMARK    3  A    between atoms: C_16  and  C_17 
REMARK    4  A    between atoms: C_18  and  C_19 
ROOT
HETATM    1  C   UNL     1       9.360  29.999  57.549  1.00  0.00    -0.036 A 
HETATM    2  C   UNL     1       8.380  29.609  58.468  1.00  0.00     0.013 A 
HETATM    3  C   UNL     1       8.250  30.273  59.694  1.00  0.00     0.023 A 
HETATM    4  C   UNL     1       9.110  31.326  60.020  1.00  0.00     0.044 A 
HETATM    5  C   UNL     1       8.978  32.007  61.273  1.00  0.00     0.099 C 
HETATM    6  N   UNL     1       8.875  32.560  62.287  1.00  0.00    -0.191 NA
HETATM    7  C   UNL     1      10.104  31.709  59.114  1.00  0.00     0.023 A 
HETATM    8  C   UNL     1      10.230  31.046  57.889  1.00  0.00     0.013 A 
ENDROOT
BRANCH   1   9
HETATM    9  C   UNL     1       9.486  29.275  56.277  1.00  0.00     0.009 C 
HETATM   10  C   UNL     1       8.412  28.906  55.560  1.00  0.00     0.001 C 
BRANCH  10  11
HETATM   11  C   UNL     1       8.396  28.205  54.241  1.00  0.00     0.262 C 
BRANCH  11  12
HETATM   12  N   UNL     1       7.219  27.283  53.984  1.00  0.00    -0.068 N 
HETATM   13  C   UNL     1       7.640  26.187  53.024  1.00  0.00     0.236 C 
HETATM   14  C   UNL     1       6.520  25.175  52.803  1.00  0.00     0.037 C 
HETATM   15  C   UNL     1       6.005  24.579  54.129  1.00  0.00     0.024 C 
HETATM   16  C   UNL     1       5.502  25.770  54.951  1.00  0.00     0.037 C 
HETATM   17  C   UNL     1       6.627  26.743  55.268  1.00  0.00     0.236 C 
HETATM   18  H   UNL     1       6.498  27.846  53.519  1.00  0.00     0.280 HD
BRANCH  15  19
HETATM   19  C   UNL     1       7.040  23.716  54.839  1.00  0.00    -0.024 A 
HETATM   20  C   UNL     1       7.677  22.499  54.388  1.00  0.00     0.018 A 
HETATM   21  C   UNL     1       8.468  22.037  55.437  1.00  0.00     0.138 A 
HETATM   22  C   UNL     1       7.681  21.703  53.224  1.00  0.00     0.017 A 
HETATM   23  N   UNL     1       9.185  20.903  55.499  1.00  0.00    -0.242 NA
HETATM   24  N   UNL     1       8.428  22.958  56.439  1.00  0.00    -0.350 N 
HETATM   25  C   UNL     1       9.130  20.171  54.369  1.00  0.00     0.119 A 
HETATM   26  C   UNL     1       8.421  20.517  53.230  1.00  0.00     0.020 A 
HETATM   27  H   UNL     1       8.967  22.874  57.291  1.00  0.00     0.166 HD
HETATM   28  C   UNL     1       7.586  23.980  56.092  1.00  0.00     0.098 A 
ENDBRANCH  15  19
ENDBRANCH  11  12
ENDBRANCH  10  11
ENDBRANCH   1   9
TORSDOF 4
ENDMDL
MODEL 3
REMARK VINA RESULT:      -9.5      4.408      8.054
REMARK  4 active torsions:
REMARK  status: ('A' for Active; 'I' for Inactive)
REMARK    1  A    between atoms: C_10  and  C_11 
REMARK    2  A    between atoms: N_14  and  C_16 
REMARK    3  A    between atoms: C_16  and  C_17 
REMARK    4  A    between atoms: C_18  and  C_19 
ROOT
HETATM    1  C   UNL     1       5.577  27.768  51.623  1.00  0.00    -0.036 A 
HETATM    2  C   UNL     1       5.268  28.672  50.601  1.00  0.00     0.013 A 
HETATM    3  C   UNL     1       4.737  28.218  49.388  1.00  0.00     0.023 A 
HETATM    4  C   UNL     1       4.522  26.852  49.179  1.00  0.00     0.044 A 
HETATM    5  C   UNL     1       3.977  26.386  47.939  1.00  0.00     0.099 C 
HETATM    6  N   UNL     1       3.538  26.004  46.936  1.00  0.00    -0.191 NA
HETATM    7  C   UNL     1       4.846  25.942  50.189  1.00  0.00     0.023 A 
HETATM    8  C   UNL     1       5.375  26.397  51.402  1.00  0.00     0.013 A 
ENDROOT
BRANCH   1   9
HETATM    9  C   UNL     1       6.150  28.269  52.880  1.00  0.00     0.009 C 
HETATM   10  C   UNL     1       5.449  28.279  54.026  1.00  0.00     0.001 C 
BRANCH  10  11
HETATM   11  C   UNL     1       5.917  28.719  55.375  1.00  0.00     0.262 C 
BRANCH  11  12
HETATM   12  N   UNL     1       6.317  27.619  56.339  1.00  0.00    -0.068 N 
HETATM   13  C   UNL     1       5.344  26.462  56.214  1.00  0.00     0.236 C 
HETATM   14  C   UNL     1       5.755  25.287  57.097  1.00  0.00     0.037 C 
HETATM   15  C   UNL     1       7.199  24.825  56.815  1.00  0.00     0.024 C 
HETATM   16  C   UNL     1       8.085  26.044  57.093  1.00  0.00     0.037 C 
HETATM   17  C   UNL     1       7.759  27.195  56.154  1.00  0.00     0.236 C 
HETATM   18  H   UNL     1       6.223  28.006  57.285  1.00  0.00     0.280 HD
BRANCH  15  19
HETATM   19  C   UNL     1       7.375  24.222  55.427  1.00  0.00    -0.024 A 
HETATM   20  C   UNL     1       7.574  22.841  55.052  1.00  0.00     0.018 A 
HETATM   21  C   UNL     1       7.783  22.815  53.675  1.00  0.00     0.138 A 
HETATM   22  C   UNL     1       7.624  21.589  55.700  1.00  0.00     0.017 A 
HETATM   23  N   UNL     1       8.082  21.760  52.899  1.00  0.00    -0.242 NA
HETATM   24  N   UNL     1       7.610  24.077  53.194  1.00  0.00    -0.350 N 
HETATM   25  C   UNL     1       8.142  20.597  53.577  1.00  0.00     0.119 A 
HETATM   26  C   UNL     1       7.920  20.455  54.937  1.00  0.00     0.020 A 
HETATM   27  H   UNL     1       7.657  24.307  52.210  1.00  0.00     0.166 HD
HETATM   28  C   UNL     1       7.351  24.933  54.231  1.00  0.00     0.098 A 
ENDBRANCH  15  19
ENDBRANCH  11  12
ENDBRANCH  10  11
ENDBRANCH   1   9
TORSDOF 4
ENDMDL
MODEL 4
REMARK VINA RESULT:      -9.5      2.017      3.200
REMARK  4 active torsions:
REMARK  status: ('A' for Active; 'I' for Inactive)
REMARK    1  A    between atoms: C_10  and  C_11 
REMARK    2  A    between atoms: N_14  and  C_16 
REMARK    3  A    between atoms: C_16  and  C_17 
REMARK    4  A    between atoms: C_18  and  C_19 
ROOT
HETATM    1  C   UNL     1       6.135  29.346  57.306  1.00  0.00    -0.036 A 
HETATM    2  C   UNL     1       5.674  30.599  57.726  1.00  0.00     0.013 A 
HETATM    3  C   UNL     1       6.488  31.431  58.504  1.00  0.00     0.023 A 
HETATM    4  C   UNL     1       7.767  31.012  58.883  1.00  0.00     0.044 A 
HETATM    5  C   UNL     1       8.601  31.863  59.678  1.00  0.00     0.099 C 
HETATM    6  N   UNL     1       9.280  32.548  60.322  1.00  0.00    -0.191 NA
HETATM    7  C   UNL     1       8.226  29.754  58.483  1.00  0.00     0.023 A 
HETATM    8  C   UNL     1       7.413  28.925  57.704  1.00  0.00     0.013 A 
ENDROOT
BRANCH   1   9
HETATM    9  C   UNL     1       5.254  28.484  56.505  1.00  0.00     0.009 C 
HETATM   10  C   UNL     1       5.458  28.285  55.193  1.00  0.00     0.001 C 
BRANCH  10  11
HETATM   11  C   UNL     1       4.671  27.410  54.273  1.00  0.00     0.262 C 
BRANCH  11  12
HETATM   12  N   UNL     1       5.472  26.556  53.309  1.00  0.00    -0.068 N 
HETATM   13  C   UNL     1       6.952  26.787  53.544  1.00  0.00     0.236 C 
HETATM   14  C   UNL     1       7.807  25.880  52.663  1.00  0.00     0.037 C 
HETATM   15  C   UNL     1       7.447  24.391  52.839  1.00  0.00     0.024 C 
HETATM   16  C   UNL     1       5.968  24.275  52.458  1.00  0.00     0.037 C 
HETATM   17  C   UNL     1       5.086  25.094  53.388  1.00  0.00     0.236 C 
HETATM   18  H   UNL     1       5.249  26.888  52.364  1.00  0.00     0.280 HD
BRANCH  15  19
HETATM   19  C   UNL     1       7.784  23.853  54.224  1.00  0.00    -0.024 A 
HETATM   20  C   UNL     1       8.061  22.494  54.632  1.00  0.00     0.018 A 
HETATM   21  C   UNL     1       8.209  22.503  56.016  1.00  0.00     0.138 A 
HETATM   22  C   UNL     1       8.191  21.234  54.012  1.00  0.00     0.017 A 
HETATM   23  N   UNL     1       8.403  21.458  56.838  1.00  0.00    -0.242 NA
HETATM   24  N   UNL     1       8.149  23.795  56.444  1.00  0.00    -0.350 N 
HETATM   25  C   UNL     1       8.494  20.279  56.192  1.00  0.00     0.119 A 
HETATM   26  C   UNL     1       8.406  20.113  54.820  1.00  0.00     0.020 A 
HETATM   27  H   UNL     1       8.284  24.067  57.408  1.00  0.00     0.166 HD
HETATM   28  C   UNL     1       7.908  24.621  55.378  1.00  0.00     0.098 A 
ENDBRANCH  15  19
ENDBRANCH  11  12
ENDBRANCH  10  11
ENDBRANCH   1   9
TORSDOF 4
ENDMDL
MODEL 5
REMARK VINA RESULT:      -9.3      5.585      9.450
REMARK  4 active torsions:
REMARK  status: ('A' for Active; 'I' for Inactive)
REMARK    1  A    between atoms: C_10  and  C_11 
REMARK    2  A    between atoms: N_14  and  C_16 
REMARK    3  A    between atoms: C_16  and  C_17 
REMARK    4  A    between atoms: C_18  and  C_19 
ROOT
HETATM    1  C   UNL     1       6.484  24.721  54.589  1.00  0.00    -0.036 A 
HETATM    2  C   UNL     1       6.664  24.439  53.230  1.00  0.00     0.013 A 
HETATM    3  C   UNL     1       7.252  23.235  52.825  1.00  0.00     0.023 A 
HETATM    4  C   UNL     1       7.680  22.305  53.777  1.00  0.00     0.044 A 
HETATM    5  C   UNL     1       8.280  21.071  53.364  1.00  0.00     0.099 C 
HETATM    6  N   UNL     1       8.768  20.072  53.034  1.00  0.00    -0.191 NA
HETATM    7  C   UNL     1       7.521  22.588  55.137  1.00  0.00     0.023 A 
HETATM    8  C   UNL     1       6.932  23.791  55.539  1.00  0.00     0.013 A 
ENDROOT
BRANCH   1   9
HETATM    9  C   UNL     1       5.881  26.000  54.988  1.00  0.00     0.009 C 
HETATM   10  C   UNL     1       5.508  26.922  54.084  1.00  0.00     0.001 C 
BRANCH  10  11
HETATM   11  C   UNL     1       4.852  28.238  54.345  1.00  0.00     0.262 C 
BRANCH  11  12
HETATM   12  N   UNL     1       4.978  29.281  53.252  1.00  0.00    -0.068 N 
HETATM   13  C   UNL     1       5.624  28.653  52.031  1.00  0.00     0.236 C 
HETATM   14  C   UNL     1       5.690  29.635  50.865  1.00  0.00     0.037 C 
HETATM   15  C   UNL     1       4.306  30.217  50.517  1.00  0.00     0.024 C 
HETATM   16  C   UNL     1       3.821  30.922  51.788  1.00  0.00     0.037 C 
HETATM   17  C   UNL     1       3.652  29.941  52.938  1.00  0.00     0.236 C 
HETATM   18  H   UNL     1       5.613  30.005  53.605  1.00  0.00     0.280 HD
BRANCH  15  19
HETATM   19  C   UNL     1       3.339  29.176  49.966  1.00  0.00    -0.024 A 
HETATM   20  C   UNL     1       3.607  28.051  49.099  1.00  0.00     0.018 A 
HETATM   21  C   UNL     1       2.382  27.463  48.799  1.00  0.00     0.138 A 
HETATM   22  C   UNL     1       4.735  27.450  48.503  1.00  0.00     0.017 A 
HETATM   23  N   UNL     1       2.134  26.434  47.971  1.00  0.00    -0.242 NA
HETATM   24  N   UNL     1       1.416  28.097  49.520  1.00  0.00    -0.350 N 
HETATM   25  C   UNL     1       3.246  25.918  47.411  1.00  0.00     0.119 A 
HETATM   26  C   UNL     1       4.536  26.367  47.641  1.00  0.00     0.020 A 
HETATM   27  H   UNL     1       0.444  27.816  49.514  1.00  0.00     0.166 HD
HETATM   28  C   UNL     1       1.975  29.120  50.238  1.00  0.00     0.098 A 
ENDBRANCH  15  19
ENDBRANCH  11  12
ENDBRANCH  10  11
ENDBRANCH   1   9
TORSDOF 4
ENDMDL
MODEL 6
REMARK VINA RESULT:      -9.3      6.732     11.161
REMARK  4 active torsions:
REMARK  status: ('A' for Active; 'I' for Inactive)
REMARK    1  A    between atoms: C_10  and  C_11 
REMARK    2  A    between atoms: N_14  and  C_16 
REMARK    3  A    between atoms: C_16  and  C_17 
REMARK    4  A    between atoms: C_18  and  C_19 
ROOT
HETATM    1  C   UNL     1       7.843  32.273  62.103  1.00  0.00    -0.036 A 
HETATM    2  C   UNL     1       7.224  32.397  60.855  1.00  0.00     0.013 A 
HETATM    3  C   UNL     1       7.938  32.141  59.679  1.00  0.00     0.023 A 
HETATM    4  C   UNL     1       9.285  31.770  59.738  1.00  0.00     0.044 A 
HETATM    5  C   UNL     1      10.017  31.505  58.535  1.00  0.00     0.099 C 
HETATM    6  N   UNL     1      10.613  31.291  57.564  1.00  0.00    -0.191 NA
HETATM    7  C   UNL     1       9.915  31.662  60.981  1.00  0.00     0.023 A 
HETATM    8  C   UNL     1       9.199  31.917  62.155  1.00  0.00     0.013 A 
ENDROOT
BRANCH   1   9
HETATM    9  C   UNL     1       7.076  32.566  63.322  1.00  0.00     0.009 C 
HETATM   10  C   UNL     1       7.596  33.282  64.333  1.00  0.00     0.001 C 
BRANCH  10  11
HETATM   11  C   UNL     1       6.921  33.685  65.603  1.00  0.00     0.262 C 
BRANCH  11  12
HETATM   12  N   UNL     1       5.973  34.865  65.515  1.00  0.00    -0.068 N 
HETATM   13  C   UNL     1       6.140  35.544  64.169  1.00  0.00     0.236 C 
HETATM   14  C   UNL     1       5.142  36.684  63.989  1.00  0.00     0.037 C 
HETATM   15  C   UNL     1       3.686  36.221  64.195  1.00  0.00     0.024 C 
HETATM   16  C   UNL     1       3.625  35.671  65.624  1.00  0.00     0.037 C 
HETATM   17  C   UNL     1       4.540  34.468  65.798  1.00  0.00     0.236 C 
HETATM   18  H   UNL     1       6.262  35.532  66.240  1.00  0.00     0.280 HD
BRANCH  15  19
HETATM   19  C   UNL     1       3.211  35.246  63.125  1.00  0.00    -0.024 A 
HETATM   20  C   UNL     1       3.418  35.290  61.695  1.00  0.00     0.018 A 
HETATM   21  C   UNL     1       2.701  34.232  61.144  1.00  0.00     0.138 A 
HETATM   22  C   UNL     1       4.112  36.103  60.774  1.00  0.00     0.017 A 
HETATM   23  N   UNL     1       2.540  33.923  59.846  1.00  0.00    -0.242 NA
HETATM   24  N   UNL     1       2.173  33.498  62.162  1.00  0.00    -0.350 N 
HETATM   25  C   UNL     1       3.204  34.749  59.013  1.00  0.00     0.119 A 
HETATM   26  C   UNL     1       3.989  35.819  59.411  1.00  0.00     0.020 A 
HETATM   27  H   UNL     1       1.651  32.643  62.017  1.00  0.00     0.166 HD
HETATM   28  C   UNL     1       2.480  34.085  63.360  1.00  0.00     0.098 A 
ENDBRANCH  15  19
ENDBRANCH  11  12
ENDBRANCH  10  11
ENDBRANCH   1   9
TORSDOF 4
ENDMDL
MODEL 7
REMARK VINA RESULT:      -8.9      5.337      9.265
REMARK  4 active torsions:
REMARK  status: ('A' for Active; 'I' for Inactive)
REMARK    1  A    between atoms: C_10  and  C_11 
REMARK    2  A    between atoms: N_14  and  C_16 
REMARK    3  A    between atoms: C_16  and  C_17 
REMARK    4  A    between atoms: C_18  and  C_19 
ROOT
HETATM    1  C   UNL     1       7.440  25.112  54.295  1.00  0.00    -0.036 A 
HETATM    2  C   UNL     1       7.322  24.091  55.245  1.00  0.00     0.013 A 
HETATM    3  C   UNL     1       7.579  22.761  54.893  1.00  0.00     0.023 A 
HETATM    4  C   UNL     1       7.944  22.436  53.583  1.00  0.00     0.044 A 
HETATM    5  C   UNL     1       8.209  21.074  53.223  1.00  0.00     0.099 C 
HETATM    6  N   UNL     1       8.423  19.974  52.926  1.00  0.00    -0.191 NA
HETATM    7  C   UNL     1       8.045  23.448  52.625  1.00  0.00     0.023 A 
HETATM    8  C   UNL     1       7.790  24.777  52.978  1.00  0.00     0.013 A 
ENDROOT
BRANCH   1   9
HETATM    9  C   UNL     1       7.147  26.499  54.685  1.00  0.00     0.009 C 
HETATM   10  C   UNL     1       6.370  27.298  53.935  1.00  0.00     0.001 C 
BRANCH  10  11
HETATM   11  C   UNL     1       5.960  28.704  54.230  1.00  0.00     0.262 C 
BRANCH  11  12
HETATM   12  N   UNL     1       4.720  29.206  53.516  1.00  0.00    -0.068 N 
HETATM   13  C   UNL     1       5.132  30.076  52.344  1.00  0.00     0.236 C 
HETATM   14  C   UNL     1       3.923  30.532  51.533  1.00  0.00     0.037 C 
HETATM   15  C   UNL     1       3.058  29.346  51.061  1.00  0.00     0.024 C 
HETATM   16  C   UNL     1       2.611  28.626  52.337  1.00  0.00     0.037 C 
HETATM   17  C   UNL     1       3.798  28.075  53.111  1.00  0.00     0.236 C 
HETATM   18  H   UNL     1       4.213  29.798  54.184  1.00  0.00     0.280 HD
BRANCH  15  19
HETATM   19  C   UNL     1       3.767  28.454  50.050  1.00  0.00    -0.024 A 
HETATM   20  C   UNL     1       3.203  27.663  48.979  1.00  0.00     0.018 A 
HETATM   21  C   UNL     1       4.249  26.946  48.404  1.00  0.00     0.138 A 
HETATM   22  C   UNL     1       1.928  27.438  48.419  1.00  0.00     0.017 A 
HETATM   23  N   UNL     1       4.188  26.028  47.425  1.00  0.00    -0.242 NA
HETATM   24  N   UNL     1       5.412  27.343  48.990  1.00  0.00    -0.350 N 
HETATM   25  C   UNL     1       2.942  25.837  46.947  1.00  0.00     0.119 A 
HETATM   26  C   UNL     1       1.809  26.501  47.388  1.00  0.00     0.020 A 
HETATM   27  H   UNL     1       6.321  27.004  48.706  1.00  0.00     0.166 HD
HETATM   28  C   UNL     1       5.143  28.259  49.972  1.00  0.00     0.098 A 
ENDBRANCH  15  19
ENDBRANCH  11  12
ENDBRANCH  10  11
ENDBRANCH   1   9
TORSDOF 4
ENDMDL
MODEL 8
REMARK VINA RESULT:      -8.7      6.619     10.823
REMARK  4 active torsions:
REMARK  status: ('A' for Active; 'I' for Inactive)
REMARK    1  A    between atoms: C_10  and  C_11 
REMARK    2  A    between atoms: N_14  and  C_16 
REMARK    3  A    between atoms: C_16  and  C_17 
REMARK    4  A    between atoms: C_18  and  C_19 
ROOT
HETATM    1  C   UNL     1       7.156  24.581  53.336  1.00  0.00    -0.036 A 
HETATM    2  C   UNL     1       7.909  23.551  52.762  1.00  0.00     0.013 A 
HETATM    3  C   UNL     1       8.300  22.446  53.527  1.00  0.00     0.023 A 
HETATM    4  C   UNL     1       7.953  22.366  54.879  1.00  0.00     0.044 A 
HETATM    5  C   UNL     1       8.352  21.234  55.662  1.00  0.00     0.099 C 
HETATM    6  N   UNL     1       8.673  20.321  56.301  1.00  0.00    -0.191 NA
HETATM    7  C   UNL     1       7.217  23.400  55.463  1.00  0.00     0.023 A 
HETATM    8  C   UNL     1       6.825  24.503  54.697  1.00  0.00     0.013 A 
ENDROOT
BRANCH   1   9
HETATM    9  C   UNL     1       6.773  25.739  52.516  1.00  0.00     0.009 C 
HETATM   10  C   UNL     1       5.488  26.085  52.329  1.00  0.00     0.001 C 
BRANCH  10  11
HETATM   11  C   UNL     1       4.962  27.251  51.559  1.00  0.00     0.262 C 
BRANCH  11  12
HETATM   12  N   UNL     1       5.315  27.297  50.085  1.00  0.00    -0.068 N 
HETATM   13  C   UNL     1       4.553  26.209  49.352  1.00  0.00     0.236 C 
HETATM   14  C   UNL     1       4.799  26.270  47.848  1.00  0.00     0.037 C 
HETATM   15  C   UNL     1       4.475  27.659  47.261  1.00  0.00     0.024 C 
HETATM   16  C   UNL     1       5.390  28.643  47.997  1.00  0.00     0.037 C 
HETATM   17  C   UNL     1       5.093  28.671  49.489  1.00  0.00     0.236 C 
HETATM   18  H   UNL     1       6.316  27.082  50.013  1.00  0.00     0.280 HD
BRANCH  15  19
HETATM   19  C   UNL     1       2.993  28.007  47.329  1.00  0.00    -0.024 A 
HETATM   20  C   UNL     1       2.329  29.240  46.971  1.00  0.00     0.018 A 
HETATM   21  C   UNL     1       0.986  29.096  47.309  1.00  0.00     0.138 A 
HETATM   22  C   UNL     1       2.688  30.485  46.413  1.00  0.00     0.017 A 
HETATM   23  N   UNL     1       0.005  30.010  47.226  1.00  0.00    -0.242 NA
HETATM   24  N   UNL     1       0.789  27.820  47.742  1.00  0.00    -0.350 N 
HETATM   25  C   UNL     1       0.413  31.187  46.710  1.00  0.00     0.119 A 
HETATM   26  C   UNL     1       1.703  31.469  46.292  1.00  0.00     0.020 A 
HETATM   27  H   UNL     1      -0.119  27.454  47.996  1.00  0.00     0.166 HD
HETATM   28  C   UNL     1       1.982  27.147  47.747  1.00  0.00     0.098 A 
ENDBRANCH  15  19
ENDBRANCH  11  12
ENDBRANCH  10  11
ENDBRANCH   1   9
TORSDOF 4
ENDMDL
MODEL 9
REMARK VINA RESULT:      -8.7      1.653      9.979
REMARK  4 active torsions:
REMARK  status: ('A' for Active; 'I' for Inactive)
REMARK    1  A    between atoms: C_10  and  C_11 
REMARK    2  A    between atoms: N_14  and  C_16 
REMARK    3  A    between atoms: C_16  and  C_17 
REMARK    4  A    between atoms: C_18  and  C_19 
ROOT
HETATM    1  C   UNL     1       7.661  24.738  55.254  1.00  0.00    -0.036 A 
HETATM    2  C   UNL     1       8.259  23.689  55.959  1.00  0.00     0.013 A 
HETATM    3  C   UNL     1       8.493  22.457  55.337  1.00  0.00     0.023 A 
HETATM    4  C   UNL     1       8.118  22.257  54.005  1.00  0.00     0.044 A 
HETATM    5  C   UNL     1       8.358  20.997  53.366  1.00  0.00     0.099 C 
HETATM    6  N   UNL     1       8.549  19.979  52.846  1.00  0.00    -0.191 NA
HETATM    7  C   UNL     1       7.502  23.295  53.300  1.00  0.00     0.023 A 
HETATM    8  C   UNL     1       7.271  24.526  53.923  1.00  0.00     0.013 A 
ENDROOT
BRANCH   1   9
HETATM    9  C   UNL     1       7.409  26.016  55.935  1.00  0.00     0.009 C 
HETATM   10  C   UNL     1       6.315  26.216  56.689  1.00  0.00     0.001 C 
BRANCH  10  11
HETATM   11  C   UNL     1       5.956  27.441  57.464  1.00  0.00     0.262 C 
BRANCH  11  12
HETATM   12  N   UNL     1       6.801  28.673  57.203  1.00  0.00    -0.068 N 
HETATM   13  C   UNL     1       6.005  29.913  57.564  1.00  0.00     0.236 C 
HETATM   14  C   UNL     1       6.842  31.179  57.409  1.00  0.00     0.037 C 
HETATM   15  C   UNL     1       8.153  31.113  58.218  1.00  0.00     0.024 C 
HETATM   16  C   UNL     1       8.911  29.897  57.677  1.00  0.00     0.037 C 
HETATM   17  C   UNL     1       8.138  28.608  57.911  1.00  0.00     0.236 C 
HETATM   18  H   UNL     1       6.982  28.700  56.194  1.00  0.00     0.280 HD
BRANCH  15  19
HETATM   19  C   UNL     1       7.927  31.095  59.725  1.00  0.00    -0.024 A 
HETATM   20  C   UNL     1       6.899  31.750  60.500  1.00  0.00     0.018 A 
HETATM   21  C   UNL     1       7.182  31.511  61.842  1.00  0.00     0.138 A 
HETATM   22  C   UNL     1       5.758  32.540  60.249  1.00  0.00     0.017 A 
HETATM   23  N   UNL     1       6.541  31.984  62.924  1.00  0.00    -0.242 NA
HETATM   24  N   UNL     1       8.247  30.665  61.910  1.00  0.00    -0.350 N 
HETATM   25  C   UNL     1       5.476  32.753  62.622  1.00  0.00     0.119 A 
HETATM   26  C   UNL     1       5.046  33.049  61.339  1.00  0.00     0.020 A 
HETATM   27  H   UNL     1       8.611  30.300  62.780  1.00  0.00     0.166 HD
HETATM   28  C   UNL     1       8.699  30.393  60.646  1.00  0.00     0.098 A 
ENDBRANCH  15  19
ENDBRANCH  11  12
ENDBRANCH  10  11
ENDBRANCH   1   9
TORSDOF 4
ENDMDL
MODEL 10
REMARK VINA RESULT:      -8.7      3.843      8.344
REMARK  4 active torsions:
REMARK  status: ('A' for Active; 'I' for Inactive)
REMARK    1  A    between atoms: C_10  and  C_11 
REMARK    2  A    between atoms: N_14  and  C_16 
REMARK    3  A    between atoms: C_16  and  C_17 
REMARK    4  A    between atoms: C_18  and  C_19 
ROOT
HETATM    1  C   UNL     1       7.535  24.856  54.873  1.00  0.00    -0.036 A 
HETATM    2  C   UNL     1       7.462  23.718  55.683  1.00  0.00     0.013 A 
HETATM    3  C   UNL     1       7.714  22.449  55.150  1.00  0.00     0.023 A 
HETATM    4  C   UNL     1       8.029  22.303  53.796  1.00  0.00     0.044 A 
HETATM    5  C   UNL     1       8.289  21.004  53.249  1.00  0.00     0.099 C 
HETATM    6  N   UNL     1       8.500  19.955  52.802  1.00  0.00    -0.191 NA
HETATM    7  C   UNL     1       8.085  23.434  52.976  1.00  0.00     0.023 A 
HETATM    8  C   UNL     1       7.835  24.701  53.511  1.00  0.00     0.013 A 
ENDROOT
BRANCH   1   9
HETATM    9  C   UNL     1       7.248  26.176  55.453  1.00  0.00     0.009 C 
HETATM   10  C   UNL     1       7.598  26.490  56.711  1.00  0.00     0.001 C 
BRANCH  10  11
HETATM   11  C   UNL     1       7.405  27.796  57.410  1.00  0.00     0.262 C 
BRANCH  11  12
HETATM   12  N   UNL     1       6.222  28.631  56.960  1.00  0.00    -0.068 N 
HETATM   13  C   UNL     1       6.617  29.447  55.744  1.00  0.00     0.236 C 
HETATM   14  C   UNL     1       5.434  30.237  55.192  1.00  0.00     0.037 C 
HETATM   15  C   UNL     1       4.226  29.331  54.877  1.00  0.00     0.024 C 
HETATM   16  C   UNL     1       3.855  28.662  56.204  1.00  0.00     0.037 C 
HETATM   17  C   UNL     1       4.986  27.788  56.724  1.00  0.00     0.236 C 
HETATM   18  H   UNL     1       6.014  29.285  57.722  1.00  0.00     0.280 HD
BRANCH  15  19
HETATM   19  C   UNL     1       4.488  28.359  53.734  1.00  0.00    -0.024 A 
HETATM   20  C   UNL     1       4.887  28.639  52.373  1.00  0.00     0.018 A 
HETATM   21  C   UNL     1       4.895  27.426  51.690  1.00  0.00     0.138 A 
HETATM   22  C   UNL     1       5.231  29.773  51.607  1.00  0.00     0.017 A 
HETATM   23  N   UNL     1       5.133  27.208  50.385  1.00  0.00    -0.242 NA
HETATM   24  N   UNL     1       4.635  26.431  52.583  1.00  0.00    -0.350 N 
HETATM   25  C   UNL     1       5.431  28.330  49.701  1.00  0.00     0.119 A 
HETATM   26  C   UNL     1       5.501  29.601  50.247  1.00  0.00     0.020 A 
HETATM   27  H   UNL     1       4.640  25.450  52.338  1.00  0.00     0.166 HD
HETATM   28  C   UNL     1       4.401  26.973  53.819  1.00  0.00     0.098 A 
ENDBRANCH  15  19
ENDBRANCH  11  12
ENDBRANCH  10  11
ENDBRANCH   1   9
TORSDOF 4
ENDMDL
