MODEL 1
REMARK VINA RESULT:      -8.6      0.000      0.000
REMARK  6 active torsions:
REMARK  status: ('A' for Active; 'I' for Inactive)
REMARK    1  A    between atoms: C_2  and  N_3 
REMARK    2  A    between atoms: C_2  and  C_16 
REMARK    3  A    between atoms: N_3  and  C_6 
REMARK    4  A    between atoms: C_16  and  C_17 
REMARK       I    between atoms: C_17  and  N_18 
REMARK    5  A    between atoms: N_18  and  C_19 
REMARK    6  A    between atoms: C_22  and  O_23 
ROOT
HETATM    1  C   UNL     1       5.836  28.970  55.043  1.00  0.00     0.040 C 
HETATM    2  C   UNL     1       6.901  28.164  55.776  1.00  0.00     0.191 C 
ENDROOT
BRANCH   2   3
HETATM    3  N   UNL     1       7.328  26.980  54.942  1.00  0.00    -0.063 N 
HETATM    4  H   UNL     1       7.484  27.351  53.978  1.00  0.00     0.278 HD
HETATM    5  H   UNL     1       8.270  26.713  55.251  1.00  0.00     0.278 HD
BRANCH   3   6
HETATM    6  C   UNL     1       6.474  25.744  54.828  1.00  0.00     0.221 C 
HETATM    7  C   UNL     1       7.239  24.509  54.431  1.00  0.00    -0.011 A 
HETATM    8  C   UNL     1       8.120  23.910  55.347  1.00  0.00     0.009 A 
HETATM    9  C   UNL     1       7.077  23.936  53.160  1.00  0.00     0.011 A 
HETATM   10  C   UNL     1       8.875  22.799  54.962  1.00  0.00     0.019 A 
HETATM   11  S   UNL     1       8.343  24.572  56.985  1.00  0.00    -0.129 SA
HETATM   12  C   UNL     1       8.726  22.254  53.688  1.00  0.00     0.001 A 
HETATM   13  C   UNL     1       7.822  22.814  52.790  1.00  0.00     0.001 A 
HETATM   14  C   UNL     1       6.678  25.214  57.357  1.00  0.00     0.082 C 
HETATM   15  C   UNL     1       5.765  25.484  56.162  1.00  0.00     0.048 C 
ENDBRANCH   3   6
ENDBRANCH   2   3
BRANCH   2  16
HETATM   16  C   UNL     1       8.071  29.037  56.246  1.00  0.00     0.135 C 
BRANCH  16  17
HETATM   17  C   UNL     1       8.048  29.214  57.749  1.00  0.00     0.224 C 
HETATM   18  N   UNL     1       8.237  30.521  58.138  1.00  0.00    -0.327 N 
HETATM   19  H   UNL     1       8.477  31.198  57.423  1.00  0.00     0.169 HD
HETATM   20  O   UNL     1       7.915  28.226  58.467  1.00  0.00    -0.273 OA
BRANCH  18  21
HETATM   21  C   UNL     1       8.213  31.027  59.454  1.00  0.00     0.034 A 
HETATM   22  C   UNL     1       9.352  30.819  60.243  1.00  0.00     0.032 A 
HETATM   23  C   UNL     1       9.421  31.312  61.553  1.00  0.00     0.039 A 
HETATM   24  C   UNL     1       8.354  32.030  62.085  1.00  0.00     0.068 A 
HETATM   25  C   UNL     1       7.218  32.237  61.301  1.00  0.00     0.039 A 
HETATM   26  C   UNL     1       7.144  31.739  59.995  1.00  0.00     0.032 A 
BRANCH  24  27
HETATM   27  O   UNL     1       8.294  32.577  63.335  1.00  0.00    -0.356 OA
HETATM   28  C   UNL     1       7.059  33.162  63.729  1.00  0.00     0.210 C 
ENDBRANCH  24  27
ENDBRANCH  18  21
ENDBRANCH  16  17
ENDBRANCH   2  16
TORSDOF 6
ENDMDL
MODEL 2
REMARK VINA RESULT:      -8.5      1.174      1.493
REMARK  6 active torsions:
REMARK  status: ('A' for Active; 'I' for Inactive)
REMARK    1  A    between atoms: C_2  and  N_3 
REMARK    2  A    between atoms: C_2  and  C_16 
REMARK    3  A    between atoms: N_3  and  C_6 
REMARK    4  A    between atoms: C_16  and  C_17 
REMARK       I    between atoms: C_17  and  N_18 
REMARK    5  A    between atoms: N_18  and  C_19 
REMARK    6  A    between atoms: C_22  and  O_23 
ROOT
HETATM    1  C   UNL     1       9.323  28.937  54.580  1.00  0.00     0.040 C 
HETATM    2  C   UNL     1       8.572  28.842  55.901  1.00  0.00     0.191 C 
ENDROOT
BRANCH   2   3
HETATM    3  N   UNL     1       7.987  27.461  56.074  1.00  0.00    -0.063 N 
HETATM    4  H   UNL     1       8.788  26.797  55.970  1.00  0.00     0.278 HD
HETATM    5  H   UNL     1       7.722  27.364  57.060  1.00  0.00     0.278 HD
BRANCH   3   6
HETATM    6  C   UNL     1       6.861  26.965  55.205  1.00  0.00     0.221 C 
HETATM    7  C   UNL     1       7.242  25.817  54.308  1.00  0.00    -0.011 A 
HETATM    8  C   UNL     1       7.478  24.547  54.862  1.00  0.00     0.009 A 
HETATM    9  C   UNL     1       7.356  25.991  52.920  1.00  0.00     0.011 A 
HETATM   10  C   UNL     1       7.889  23.495  54.041  1.00  0.00     0.019 A 
HETATM   11  S   UNL     1       7.317  24.258  56.612  1.00  0.00    -0.129 SA
HETATM   12  C   UNL     1       8.025  23.685  52.667  1.00  0.00     0.001 A 
HETATM   13  C   UNL     1       7.749  24.928  52.104  1.00  0.00     0.001 A 
HETATM   14  C   UNL     1       5.959  25.388  57.054  1.00  0.00     0.082 C 
HETATM   15  C   UNL     1       5.681  26.538  56.087  1.00  0.00     0.048 C 
ENDBRANCH   3   6
ENDBRANCH   2   3
BRANCH   2  16
HETATM   16  C   UNL     1       9.425  29.300  57.090  1.00  0.00     0.135 C 
BRANCH  16  17
HETATM   17  C   UNL     1       8.573  29.509  58.323  1.00  0.00     0.224 C 
HETATM   18  N   UNL     1       8.947  30.614  59.053  1.00  0.00    -0.327 N 
HETATM   19  H   UNL     1       9.791  31.102  58.775  1.00  0.00     0.169 HD
HETATM   20  O   UNL     1       7.692  28.695  58.588  1.00  0.00    -0.273 OA
BRANCH  18  21
HETATM   21  C   UNL     1       8.324  31.115  60.215  1.00  0.00     0.034 A 
HETATM   22  C   UNL     1       8.920  30.808  61.445  1.00  0.00     0.032 A 
HETATM   23  C   UNL     1       8.381  31.287  62.646  1.00  0.00     0.039 A 
HETATM   24  C   UNL     1       7.245  32.092  62.629  1.00  0.00     0.068 A 
HETATM   25  C   UNL     1       6.650  32.398  61.405  1.00  0.00     0.039 A 
HETATM   26  C   UNL     1       7.182  31.913  60.204  1.00  0.00     0.032 A 
BRANCH  24  27
HETATM   27  O   UNL     1       6.626  32.636  63.719  1.00  0.00    -0.356 OA
HETATM   28  C   UNL     1       7.428  33.414  64.598  1.00  0.00     0.210 C 
ENDBRANCH  24  27
ENDBRANCH  18  21
ENDBRANCH  16  17
ENDBRANCH   2  16
TORSDOF 6
ENDMDL
MODEL 3
REMARK VINA RESULT:      -8.3      6.503      9.259
REMARK  6 active torsions:
REMARK  status: ('A' for Active; 'I' for Inactive)
REMARK    1  A    between atoms: C_2  and  N_3 
REMARK    2  A    between atoms: C_2  and  C_16 
REMARK    3  A    between atoms: N_3  and  C_6 
REMARK    4  A    between atoms: C_16  and  C_17 
REMARK       I    between atoms: C_17  and  N_18 
REMARK    5  A    between atoms: N_18  and  C_19 
REMARK    6  A    between atoms: C_22  and  O_23 
ROOT
HETATM    1  C   UNL     1       3.931  29.517  53.755  1.00  0.00     0.040 C 
HETATM    2  C   UNL     1       4.051  28.158  53.078  1.00  0.00     0.191 C 
ENDROOT
BRANCH   2   3
HETATM    3  N   UNL     1       3.385  28.188  51.723  1.00  0.00    -0.063 N 
HETATM    4  H   UNL     1       2.808  27.319  51.670  1.00  0.00     0.278 HD
HETATM    5  H   UNL     1       2.686  28.939  51.744  1.00  0.00     0.278 HD
BRANCH   3   6
HETATM    6  C   UNL     1       4.185  28.290  50.450  1.00  0.00     0.221 C 
HETATM    7  C   UNL     1       3.589  27.532  49.293  1.00  0.00    -0.011 A 
HETATM    8  C   UNL     1       2.413  28.002  48.683  1.00  0.00     0.009 A 
HETATM    9  C   UNL     1       4.196  26.366  48.802  1.00  0.00     0.011 A 
HETATM   10  C   UNL     1       1.825  27.271  47.649  1.00  0.00     0.019 A 
HETATM   11  S   UNL     1       1.616  29.493  49.240  1.00  0.00    -0.129 SA
HETATM   12  C   UNL     1       2.423  26.099  47.187  1.00  0.00     0.001 A 
HETATM   13  C   UNL     1       3.612  25.651  47.755  1.00  0.00     0.001 A 
HETATM   14  C   UNL     1       3.039  30.508  49.755  1.00  0.00     0.082 C 
HETATM   15  C   UNL     1       4.338  29.763  50.056  1.00  0.00     0.048 C 
ENDBRANCH   3   6
ENDBRANCH   2   3
BRANCH   2  16
HETATM   16  C   UNL     1       5.497  27.652  53.040  1.00  0.00     0.135 C 
BRANCH  16  17
HETATM   17  C   UNL     1       5.550  26.146  53.179  1.00  0.00     0.224 C 
HETATM   18  N   UNL     1       6.767  25.692  53.635  1.00  0.00    -0.327 N 
HETATM   19  H   UNL     1       7.520  26.363  53.725  1.00  0.00     0.169 HD
HETATM   20  O   UNL     1       4.573  25.478  52.848  1.00  0.00    -0.273 OA
BRANCH  18  21
HETATM   21  C   UNL     1       7.121  24.357  53.925  1.00  0.00     0.034 A 
HETATM   22  C   UNL     1       7.534  23.555  52.853  1.00  0.00     0.032 A 
HETATM   23  C   UNL     1       7.928  22.226  53.058  1.00  0.00     0.039 A 
HETATM   24  C   UNL     1       7.925  21.687  54.341  1.00  0.00     0.068 A 
HETATM   25  C   UNL     1       7.513  22.485  55.410  1.00  0.00     0.039 A 
HETATM   26  C   UNL     1       7.111  23.810  55.206  1.00  0.00     0.032 A 
BRANCH  24  27
HETATM   27  O   UNL     1       8.296  20.418  54.684  1.00  0.00    -0.356 OA
HETATM   28  C   UNL     1       8.732  20.209  56.021  1.00  0.00     0.210 C 
ENDBRANCH  24  27
ENDBRANCH  18  21
ENDBRANCH  16  17
ENDBRANCH   2  16
TORSDOF 6
ENDMDL
MODEL 4
REMARK VINA RESULT:      -8.2      5.838      9.052
REMARK  6 active torsions:
REMARK  status: ('A' for Active; 'I' for Inactive)
REMARK    1  A    between atoms: C_2  and  N_3 
REMARK    2  A    between atoms: C_2  and  C_16 
REMARK    3  A    between atoms: N_3  and  C_6 
REMARK    4  A    between atoms: C_16  and  C_17 
REMARK       I    between atoms: C_17  and  N_18 
REMARK    5  A    between atoms: N_18  and  C_19 
REMARK    6  A    between atoms: C_22  and  O_23 
ROOT
HETATM    1  C   UNL     1       6.934  27.246  53.241  1.00  0.00     0.040 C 
HETATM    2  C   UNL     1       7.773  26.005  52.963  1.00  0.00     0.191 C 
ENDROOT
BRANCH   2   3
HETATM    3  N   UNL     1       7.929  25.186  54.222  1.00  0.00    -0.063 N 
HETATM    4  H   UNL     1       8.880  24.756  54.166  1.00  0.00     0.278 HD
HETATM    5  H   UNL     1       8.010  25.844  55.005  1.00  0.00     0.278 HD
BRANCH   3   6
HETATM    6  C   UNL     1       6.952  24.099  54.585  1.00  0.00     0.221 C 
HETATM    7  C   UNL     1       7.597  22.767  54.865  1.00  0.00    -0.011 A 
HETATM    8  C   UNL     1       8.350  22.589  56.037  1.00  0.00     0.009 A 
HETATM    9  C   UNL     1       7.448  21.691  53.975  1.00  0.00     0.011 A 
HETATM   10  C   UNL     1       8.998  21.374  56.271  1.00  0.00     0.019 A 
HETATM   11  S   UNL     1       8.546  23.907  57.219  1.00  0.00    -0.129 SA
HETATM   12  C   UNL     1       8.866  20.320  55.368  1.00  0.00     0.001 A 
HETATM   13  C   UNL     1       8.084  20.474  54.226  1.00  0.00     0.001 A 
HETATM   14  C   UNL     1       6.944  24.765  57.090  1.00  0.00     0.082 C 
HETATM   15  C   UNL     1       6.140  24.527  55.813  1.00  0.00     0.048 C 
ENDBRANCH   3   6
ENDBRANCH   2   3
BRANCH   2  16
HETATM   16  C   UNL     1       7.246  25.201  51.769  1.00  0.00     0.135 C 
BRANCH  16  17
HETATM   17  C   UNL     1       5.819  25.583  51.442  1.00  0.00     0.224 C 
HETATM   18  N   UNL     1       5.716  26.351  50.305  1.00  0.00    -0.327 N 
HETATM   19  H   UNL     1       6.573  26.673  49.871  1.00  0.00     0.169 HD
HETATM   20  O   UNL     1       4.916  25.237  52.201  1.00  0.00    -0.273 OA
BRANCH  18  21
HETATM   21  C   UNL     1       4.530  26.821  49.701  1.00  0.00     0.034 A 
HETATM   22  C   UNL     1       4.002  28.028  50.177  1.00  0.00     0.032 A 
HETATM   23  C   UNL     1       2.842  28.578  49.616  1.00  0.00     0.039 A 
HETATM   24  C   UNL     1       2.204  27.931  48.561  1.00  0.00     0.068 A 
HETATM   25  C   UNL     1       2.728  26.728  48.087  1.00  0.00     0.039 A 
HETATM   26  C   UNL     1       3.882  26.173  48.652  1.00  0.00     0.032 A 
BRANCH  24  27
HETATM   27  O   UNL     1       1.080  28.361  47.913  1.00  0.00    -0.356 OA
HETATM   28  C   UNL     1       0.465  27.452  47.009  1.00  0.00     0.210 C 
ENDBRANCH  24  27
ENDBRANCH  18  21
ENDBRANCH  16  17
ENDBRANCH   2  16
TORSDOF 6
ENDMDL
MODEL 5
REMARK VINA RESULT:      -7.8      5.069      8.380
REMARK  6 active torsions:
REMARK  status: ('A' for Active; 'I' for Inactive)
REMARK    1  A    between atoms: C_2  and  N_3 
REMARK    2  A    between atoms: C_2  and  C_16 
REMARK    3  A    between atoms: N_3  and  C_6 
REMARK    4  A    between atoms: C_16  and  C_17 
REMARK       I    between atoms: C_17  and  N_18 
REMARK    5  A    between atoms: N_18  and  C_19 
REMARK    6  A    between atoms: C_22  and  O_23 
ROOT
HETATM    1  C   UNL     1       8.371  28.682  54.425  1.00  0.00     0.040 C 
HETATM    2  C   UNL     1       7.307  27.642  54.098  1.00  0.00     0.191 C 
ENDROOT
BRANCH   2   3
HETATM    3  N   UNL     1       7.710  26.292  54.640  1.00  0.00    -0.063 N 
HETATM    4  H   UNL     1       8.581  26.026  54.127  1.00  0.00     0.278 HD
HETATM    5  H   UNL     1       8.035  26.436  55.603  1.00  0.00     0.278 HD
BRANCH   3   6
HETATM    6  C   UNL     1       6.773  25.113  54.603  1.00  0.00     0.221 C 
HETATM    7  C   UNL     1       7.462  23.795  54.365  1.00  0.00    -0.011 A 
HETATM    8  C   UNL     1       8.256  23.230  55.377  1.00  0.00     0.009 A 
HETATM    9  C   UNL     1       7.313  23.110  53.148  1.00  0.00     0.011 A 
HETATM   10  C   UNL     1       8.943  22.037  55.140  1.00  0.00     0.019 A 
HETATM   11  S   UNL     1       8.455  24.035  56.953  1.00  0.00    -0.129 SA
HETATM   12  C   UNL     1       8.810  21.379  53.918  1.00  0.00     0.001 A 
HETATM   13  C   UNL     1       7.989  21.909  52.926  1.00  0.00     0.001 A 
HETATM   14  C   UNL     1       6.828  24.823  57.177  1.00  0.00     0.082 C 
HETATM   15  C   UNL     1       5.990  25.036  55.918  1.00  0.00     0.048 C 
ENDBRANCH   3   6
ENDBRANCH   2   3
BRANCH   2  16
HETATM   16  C   UNL     1       5.906  28.086  54.533  1.00  0.00     0.135 C 
BRANCH  16  17
HETATM   17  C   UNL     1       4.920  27.973  53.391  1.00  0.00     0.224 C 
HETATM   18  N   UNL     1       5.531  27.913  52.159  1.00  0.00    -0.327 N 
HETATM   19  H   UNL     1       6.533  28.057  52.120  1.00  0.00     0.169 HD
HETATM   20  O   UNL     1       3.716  27.990  53.634  1.00  0.00    -0.273 OA
BRANCH  18  21
HETATM   21  C   UNL     1       4.903  27.748  50.907  1.00  0.00     0.034 A 
HETATM   22  C   UNL     1       4.951  26.474  50.327  1.00  0.00     0.032 A 
HETATM   23  C   UNL     1       4.331  26.217  49.097  1.00  0.00     0.039 A 
HETATM   24  C   UNL     1       3.643  27.232  48.438  1.00  0.00     0.068 A 
HETATM   25  C   UNL     1       3.594  28.502  49.014  1.00  0.00     0.039 A 
HETATM   26  C   UNL     1       4.221  28.763  50.239  1.00  0.00     0.032 A 
BRANCH  24  27
HETATM   27  O   UNL     1       2.984  27.118  47.247  1.00  0.00    -0.356 OA
HETATM   28  C   UNL     1       1.950  28.058  46.986  1.00  0.00     0.210 C 
ENDBRANCH  24  27
ENDBRANCH  18  21
ENDBRANCH  16  17
ENDBRANCH   2  16
TORSDOF 6
ENDMDL
MODEL 6
REMARK VINA RESULT:      -7.8      5.702      9.668
REMARK  6 active torsions:
REMARK  status: ('A' for Active; 'I' for Inactive)
REMARK    1  A    between atoms: C_2  and  N_3 
REMARK    2  A    between atoms: C_2  and  C_16 
REMARK    3  A    between atoms: N_3  and  C_6 
REMARK    4  A    between atoms: C_16  and  C_17 
REMARK       I    between atoms: C_17  and  N_18 
REMARK    5  A    between atoms: N_18  and  C_19 
REMARK    6  A    between atoms: C_22  and  O_23 
ROOT
HETATM    1  C   UNL     1       4.387  27.647  53.394  1.00  0.00     0.040 C 
HETATM    2  C   UNL     1       5.845  27.286  53.145  1.00  0.00     0.191 C 
ENDROOT
BRANCH   2   3
HETATM    3  N   UNL     1       6.415  26.556  54.338  1.00  0.00    -0.063 N 
HETATM    4  H   UNL     1       7.449  26.532  54.190  1.00  0.00     0.278 HD
HETATM    5  H   UNL     1       6.304  27.171  55.152  1.00  0.00     0.278 HD
BRANCH   3   6
HETATM    6  C   UNL     1       5.968  25.164  54.702  1.00  0.00     0.221 C 
HETATM    7  C   UNL     1       7.061  24.131  54.619  1.00  0.00    -0.011 A 
HETATM    8  C   UNL     1       8.094  24.131  55.570  1.00  0.00     0.009 A 
HETATM    9  C   UNL     1       7.058  23.156  53.609  1.00  0.00     0.011 A 
HETATM   10  C   UNL     1       9.141  23.213  55.461  1.00  0.00     0.019 A 
HETATM   11  S   UNL     1       8.134  25.323  56.892  1.00  0.00    -0.129 SA
HETATM   12  C   UNL     1       9.143  22.265  54.439  1.00  0.00     0.001 A 
HETATM   13  C   UNL     1       8.098  22.229  53.519  1.00  0.00     0.001 A 
HETATM   14  C   UNL     1       6.359  25.561  57.232  1.00  0.00     0.082 C 
HETATM   15  C   UNL     1       5.389  25.164  56.121  1.00  0.00     0.048 C 
ENDBRANCH   3   6
ENDBRANCH   2   3
BRANCH   2  16
HETATM   16  C   UNL     1       6.043  26.543  51.819  1.00  0.00     0.135 C 
BRANCH  16  17
HETATM   17  C   UNL     1       5.319  27.243  50.689  1.00  0.00     0.224 C 
HETATM   18  N   UNL     1       4.295  26.491  50.161  1.00  0.00    -0.327 N 
HETATM   19  H   UNL     1       4.194  25.535  50.483  1.00  0.00     0.169 HD
HETATM   20  O   UNL     1       5.710  28.348  50.321  1.00  0.00    -0.273 OA
BRANCH  18  21
HETATM   21  C   UNL     1       3.396  26.875  49.144  1.00  0.00     0.034 A 
HETATM   22  C   UNL     1       2.550  27.959  49.411  1.00  0.00     0.032 A 
HETATM   23  C   UNL     1       1.646  28.422  48.446  1.00  0.00     0.039 A 
HETATM   24  C   UNL     1       1.586  27.812  47.196  1.00  0.00     0.068 A 
HETATM   25  C   UNL     1       2.428  26.731  46.929  1.00  0.00     0.039 A 
HETATM   26  C   UNL     1       3.326  26.262  47.895  1.00  0.00     0.032 A 
BRANCH  24  27
HETATM   27  O   UNL     1       0.767  28.168  46.163  1.00  0.00    -0.356 OA
HETATM   28  C   UNL     1      -0.613  27.846  46.289  1.00  0.00     0.210 C 
ENDBRANCH  24  27
ENDBRANCH  18  21
ENDBRANCH  16  17
ENDBRANCH   2  16
TORSDOF 6
ENDMDL
MODEL 7
REMARK VINA RESULT:      -7.7      3.759      8.374
REMARK  6 active torsions:
REMARK  status: ('A' for Active; 'I' for Inactive)
REMARK    1  A    between atoms: C_2  and  N_3 
REMARK    2  A    between atoms: C_2  and  C_16 
REMARK    3  A    between atoms: N_3  and  C_6 
REMARK    4  A    between atoms: C_16  and  C_17 
REMARK       I    between atoms: C_17  and  N_18 
REMARK    5  A    between atoms: N_18  and  C_19 
REMARK    6  A    between atoms: C_22  and  O_23 
ROOT
HETATM    1  C   UNL     1       3.398  30.729  53.140  1.00  0.00     0.040 C 
HETATM    2  C   UNL     1       4.295  29.958  54.099  1.00  0.00     0.191 C 
ENDROOT
BRANCH   2   3
HETATM    3  N   UNL     1       4.316  30.630  55.451  1.00  0.00    -0.063 N 
HETATM    4  H   UNL     1       5.160  31.247  55.450  1.00  0.00     0.278 HD
HETATM    5  H   UNL     1       3.534  31.294  55.473  1.00  0.00     0.278 HD
BRANCH   3   6
HETATM    6  C   UNL     1       4.328  29.834  56.730  1.00  0.00     0.221 C 
HETATM    7  C   UNL     1       5.697  29.674  57.336  1.00  0.00    -0.011 A 
HETATM    8  C   UNL     1       6.332  30.779  57.927  1.00  0.00     0.009 A 
HETATM    9  C   UNL     1       6.349  28.431  57.332  1.00  0.00     0.011 A 
HETATM   10  C   UNL     1       7.625  30.649  58.437  1.00  0.00     0.019 A 
HETATM   11  S   UNL     1       5.541  32.374  57.992  1.00  0.00    -0.129 SA
HETATM   12  C   UNL     1       8.275  29.416  58.404  1.00  0.00     0.001 A 
HETATM   13  C   UNL     1       7.635  28.305  57.861  1.00  0.00     0.001 A 
HETATM   14  C   UNL     1       3.788  31.913  58.180  1.00  0.00     0.082 C 
HETATM   15  C   UNL     1       3.402  30.497  57.757  1.00  0.00     0.048 C 
ENDBRANCH   3   6
ENDBRANCH   2   3
BRANCH   2  16
HETATM   16  C   UNL     1       3.940  28.468  54.159  1.00  0.00     0.135 C 
BRANCH  16  17
HETATM   17  C   UNL     1       5.173  27.607  53.997  1.00  0.00     0.224 C 
HETATM   18  N   UNL     1       4.954  26.289  54.325  1.00  0.00    -0.327 N 
HETATM   19  H   UNL     1       4.060  26.045  54.735  1.00  0.00     0.169 HD
HETATM   20  O   UNL     1       6.229  28.131  53.649  1.00  0.00    -0.273 OA
BRANCH  18  21
HETATM   21  C   UNL     1       5.876  25.225  54.229  1.00  0.00     0.034 A 
HETATM   22  C   UNL     1       6.414  24.732  55.425  1.00  0.00     0.032 A 
HETATM   23  C   UNL     1       7.316  23.660  55.421  1.00  0.00     0.039 A 
HETATM   24  C   UNL     1       7.681  23.060  54.219  1.00  0.00     0.068 A 
HETATM   25  C   UNL     1       7.146  23.550  53.027  1.00  0.00     0.039 A 
HETATM   26  C   UNL     1       6.251  24.626  53.028  1.00  0.00     0.032 A 
BRANCH  24  27
HETATM   27  O   UNL     1       8.534  22.003  54.072  1.00  0.00    -0.356 OA
HETATM   28  C   UNL     1       7.960  20.702  54.068  1.00  0.00     0.210 C 
ENDBRANCH  24  27
ENDBRANCH  18  21
ENDBRANCH  16  17
ENDBRANCH   2  16
TORSDOF 6
ENDMDL
MODEL 8
REMARK VINA RESULT:      -7.7      7.115     10.614
REMARK  6 active torsions:
REMARK  status: ('A' for Active; 'I' for Inactive)
REMARK    1  A    between atoms: C_2  and  N_3 
REMARK    2  A    between atoms: C_2  and  C_16 
REMARK    3  A    between atoms: N_3  and  C_6 
REMARK    4  A    between atoms: C_16  and  C_17 
REMARK       I    between atoms: C_17  and  N_18 
REMARK    5  A    between atoms: N_18  and  C_19 
REMARK    6  A    between atoms: C_22  and  O_23 
ROOT
HETATM    1  C   UNL     1       3.001  34.543  64.322  1.00  0.00     0.040 C 
HETATM    2  C   UNL     1       4.342  33.978  64.774  1.00  0.00     0.191 C 
ENDROOT
BRANCH   2   3
HETATM    3  N   UNL     1       5.039  33.297  63.620  1.00  0.00    -0.063 N 
HETATM    4  H   UNL     1       5.351  32.369  63.983  1.00  0.00     0.278 HD
HETATM    5  H   UNL     1       4.319  33.055  62.930  1.00  0.00     0.278 HD
BRANCH   3   6
HETATM    6  C   UNL     1       6.208  33.934  62.915  1.00  0.00     0.221 C 
HETATM    7  C   UNL     1       7.082  32.955  62.176  1.00  0.00    -0.011 A 
HETATM    8  C   UNL     1       6.607  32.344  61.003  1.00  0.00     0.009 A 
HETATM    9  C   UNL     1       8.373  32.649  62.635  1.00  0.00     0.011 A 
HETATM   10  C   UNL     1       7.391  31.392  60.348  1.00  0.00     0.019 A 
HETATM   11  S   UNL     1       4.991  32.718  60.355  1.00  0.00    -0.129 SA
HETATM   12  C   UNL     1       8.662  31.075  60.827  1.00  0.00     0.001 A 
HETATM   13  C   UNL     1       9.157  31.709  61.963  1.00  0.00     0.001 A 
HETATM   14  C   UNL     1       4.806  34.474  60.804  1.00  0.00     0.082 C 
HETATM   15  C   UNL     1       5.700  34.992  61.929  1.00  0.00     0.048 C 
ENDBRANCH   3   6
ENDBRANCH   2   3
BRANCH   2  16
HETATM   16  C   UNL     1       5.207  35.028  65.481  1.00  0.00     0.135 C 
BRANCH  16  17
HETATM   17  C   UNL     1       6.098  34.386  66.522  1.00  0.00     0.224 C 
HETATM   18  N   UNL     1       5.912  34.907  67.782  1.00  0.00    -0.327 N 
HETATM   19  H   UNL     1       5.306  35.714  67.877  1.00  0.00     0.169 HD
HETATM   20  O   UNL     1       6.907  33.529  66.174  1.00  0.00    -0.273 OA
BRANCH  18  21
HETATM   21  C   UNL     1       6.540  34.491  68.975  1.00  0.00     0.034 A 
HETATM   22  C   UNL     1       7.852  34.930  69.196  1.00  0.00     0.032 A 
HETATM   23  C   UNL     1       8.540  34.584  70.367  1.00  0.00     0.039 A 
HETATM   24  C   UNL     1       7.916  33.805  71.338  1.00  0.00     0.068 A 
HETATM   25  C   UNL     1       6.610  33.367  71.118  1.00  0.00     0.039 A 
HETATM   26  C   UNL     1       5.924  33.704  69.945  1.00  0.00     0.032 A 
BRANCH  24  27
HETATM   27  O   UNL     1       8.461  33.409  72.526  1.00  0.00    -0.356 OA
HETATM   28  C   UNL     1       8.291  32.046  72.895  1.00  0.00     0.210 C 
ENDBRANCH  24  27
ENDBRANCH  18  21
ENDBRANCH  16  17
ENDBRANCH   2  16
TORSDOF 6
ENDMDL
MODEL 9
REMARK VINA RESULT:      -7.6      5.070      9.816
REMARK  6 active torsions:
REMARK  status: ('A' for Active; 'I' for Inactive)
REMARK    1  A    between atoms: C_2  and  N_3 
REMARK    2  A    between atoms: C_2  and  C_16 
REMARK    3  A    between atoms: N_3  and  C_6 
REMARK    4  A    between atoms: C_16  and  C_17 
REMARK       I    between atoms: C_17  and  N_18 
REMARK    5  A    between atoms: N_18  and  C_19 
REMARK    6  A    between atoms: C_22  and  O_23 
ROOT
HETATM    1  C   UNL     1       8.255  24.050  53.923  1.00  0.00     0.040 C 
HETATM    2  C   UNL     1       7.063  24.931  53.573  1.00  0.00     0.191 C 
ENDROOT
BRANCH   2   3
HETATM    3  N   UNL     1       6.957  26.080  54.547  1.00  0.00    -0.063 N 
HETATM    4  H   UNL     1       7.440  26.887  54.090  1.00  0.00     0.278 HD
HETATM    5  H   UNL     1       5.973  26.371  54.569  1.00  0.00     0.278 HD
BRANCH   3   6
HETATM    6  C   UNL     1       7.475  25.972  55.958  1.00  0.00     0.221 C 
HETATM    7  C   UNL     1       7.630  27.298  56.654  1.00  0.00    -0.011 A 
HETATM    8  C   UNL     1       6.490  28.019  57.045  1.00  0.00     0.009 A 
HETATM    9  C   UNL     1       8.902  27.825  56.931  1.00  0.00     0.011 A 
HETATM   10  C   UNL     1       6.629  29.276  57.638  1.00  0.00     0.019 A 
HETATM   11  S   UNL     1       4.851  27.387  56.751  1.00  0.00    -0.129 SA
HETATM   12  C   UNL     1       7.897  29.802  57.884  1.00  0.00     0.001 A 
HETATM   13  C   UNL     1       9.033  29.073  57.541  1.00  0.00     0.001 A 
HETATM   14  C   UNL     1       5.105  25.592  56.935  1.00  0.00     0.082 C 
HETATM   15  C   UNL     1       6.537  25.083  56.783  1.00  0.00     0.048 C 
ENDBRANCH   3   6
ENDBRANCH   2   3
BRANCH   2  16
HETATM   16  C   UNL     1       7.075  25.371  52.104  1.00  0.00     0.135 C 
BRANCH  16  17
HETATM   17  C   UNL     1       5.668  25.570  51.585  1.00  0.00     0.224 C 
HETATM   18  N   UNL     1       5.631  26.210  50.367  1.00  0.00    -0.327 N 
HETATM   19  H   UNL     1       6.501  26.575  49.997  1.00  0.00     0.169 HD
HETATM   20  O   UNL     1       4.717  25.207  52.274  1.00  0.00    -0.273 OA
BRANCH  18  21
HETATM   21  C   UNL     1       4.488  26.494  49.590  1.00  0.00     0.034 A 
HETATM   22  C   UNL     1       3.962  27.789  49.672  1.00  0.00     0.032 A 
HETATM   23  C   UNL     1       2.844  28.162  48.914  1.00  0.00     0.039 A 
HETATM   24  C   UNL     1       2.247  27.245  48.055  1.00  0.00     0.068 A 
HETATM   25  C   UNL     1       2.769  25.954  47.973  1.00  0.00     0.039 A 
HETATM   26  C   UNL     1       3.881  25.576  48.736  1.00  0.00     0.032 A 
BRANCH  24  27
HETATM   27  O   UNL     1       1.167  27.478  47.251  1.00  0.00    -0.356 OA
HETATM   28  C   UNL     1       0.976  28.810  46.791  1.00  0.00     0.210 C 
ENDBRANCH  24  27
ENDBRANCH  18  21
ENDBRANCH  16  17
ENDBRANCH   2  16
TORSDOF 6
ENDMDL
MODEL 10
REMARK VINA RESULT:      -7.3      2.869      9.431
REMARK  6 active torsions:
REMARK  status: ('A' for Active; 'I' for Inactive)
REMARK    1  A    between atoms: C_2  and  N_3 
REMARK    2  A    between atoms: C_2  and  C_16 
REMARK    3  A    between atoms: N_3  and  C_6 
REMARK    4  A    between atoms: C_16  and  C_17 
REMARK       I    between atoms: C_17  and  N_18 
REMARK    5  A    between atoms: N_18  and  C_19 
REMARK    6  A    between atoms: C_22  and  O_23 
ROOT
HETATM    1  C   UNL     1       3.473  32.464  60.766  1.00  0.00     0.040 C 
HETATM    2  C   UNL     1       4.387  32.080  59.610  1.00  0.00     0.191 C 
ENDROOT
BRANCH   2   3
HETATM    3  N   UNL     1       5.772  31.761  60.120  1.00  0.00    -0.063 N 
HETATM    4  H   UNL     1       5.633  31.205  60.994  1.00  0.00     0.278 HD
HETATM    5  H   UNL     1       6.187  31.084  59.470  1.00  0.00     0.278 HD
BRANCH   3   6
HETATM    6  C   UNL     1       6.775  32.845  60.417  1.00  0.00     0.221 C 
HETATM    7  C   UNL     1       6.860  33.214  61.875  1.00  0.00    -0.011 A 
HETATM    8  C   UNL     1       7.441  32.319  62.788  1.00  0.00     0.009 A 
HETATM    9  C   UNL     1       6.377  34.449  62.337  1.00  0.00     0.011 A 
HETATM   10  C   UNL     1       7.468  32.633  64.149  1.00  0.00     0.019 A 
HETATM   11  S   UNL     1       8.100  30.753  62.256  1.00  0.00    -0.129 SA
HETATM   12  C   UNL     1       6.962  33.851  64.602  1.00  0.00     0.001 A 
HETATM   13  C   UNL     1       6.426  34.762  63.697  1.00  0.00     0.001 A 
HETATM   14  C   UNL     1       8.735  31.160  60.598  1.00  0.00     0.082 C 
HETATM   15  C   UNL     1       8.162  32.409  59.932  1.00  0.00     0.048 C 
ENDBRANCH   3   6
ENDBRANCH   2   3
BRANCH   2  16
HETATM   16  C   UNL     1       3.785  30.975  58.734  1.00  0.00     0.135 C 
BRANCH  16  17
HETATM   17  C   UNL     1       4.837  30.356  57.840  1.00  0.00     0.224 C 
HETATM   18  N   UNL     1       4.753  28.983  57.783  1.00  0.00    -0.327 N 
HETATM   19  H   UNL     1       4.098  28.523  58.404  1.00  0.00     0.169 HD
HETATM   20  O   UNL     1       5.668  31.082  57.300  1.00  0.00    -0.273 OA
BRANCH  18  21
HETATM   21  C   UNL     1       5.543  28.115  57.001  1.00  0.00     0.034 A 
HETATM   22  C   UNL     1       4.977  27.624  55.817  1.00  0.00     0.032 A 
HETATM   23  C   UNL     1       5.703  26.777  54.969  1.00  0.00     0.039 A 
HETATM   24  C   UNL     1       7.010  26.422  55.290  1.00  0.00     0.068 A 
HETATM   25  C   UNL     1       7.575  26.910  56.469  1.00  0.00     0.039 A 
HETATM   26  C   UNL     1       6.848  27.749  57.322  1.00  0.00     0.032 A 
BRANCH  24  27
HETATM   27  O   UNL     1       7.833  25.621  54.550  1.00  0.00    -0.356 OA
HETATM   28  C   UNL     1       7.543  24.229  54.539  1.00  0.00     0.210 C 
ENDBRANCH  24  27
ENDBRANCH  18  21
ENDBRANCH  16  17
ENDBRANCH   2  16
TORSDOF 6
ENDMDL
