MODEL 1
REMARK VINA RESULT:     -11.5      0.000      0.000
REMARK  9 active torsions:
REMARK  status: ('A' for Active; 'I' for Inactive)
REMARK    1  A    between atoms: O_2  and  C_3 
REMARK    2  A    between atoms: C_6  and  C_7 
REMARK    3  A    between atoms: C_7  and  C_8 
REMARK    4  A    between atoms: C_8  and  N_9 
REMARK       I    between atoms: N_9  and  C_10 
REMARK    5  A    between atoms: C_10  and  C_11 
REMARK    6  A    between atoms: C_12  and  N_13 
REMARK    7  A    between atoms: N_14  and  C_15 
REMARK    8  A    between atoms: C_18  and  S_19 
REMARK    9  A    between atoms: S_19  and  N_20 
ROOT
HETATM    1  C   UNL     1       6.777  26.060  56.012  1.00  0.00     0.103 C 
HETATM    2  C   UNL     1       5.772  26.473  55.143  1.00  0.00     0.105 C 
HETATM    3  N   UNL     1       6.035  25.864  53.907  1.00  0.00    -0.284 N 
HETATM    4  C   UNL     1       6.674  24.668  54.218  1.00  0.00     0.166 A 
HETATM    5  C   UNL     1       7.224  24.822  55.491  1.00  0.00     0.123 A 
HETATM    6  N   UNL     1       8.033  23.874  56.026  1.00  0.00    -0.242 NA
HETATM    7  C   UNL     1       8.174  22.764  55.289  1.00  0.00     0.086 A 
HETATM    8  C   UNL     1       7.571  22.608  54.017  1.00  0.00     0.088 A 
HETATM    9  N   UNL     1       6.828  23.570  53.441  1.00  0.00    -0.226 NA
HETATM   10  C   UNL     1       8.931  21.720  55.807  1.00  0.00     0.034 A 
HETATM   11  C   UNL     1       9.099  20.522  55.111  1.00  0.00     0.002 A 
HETATM   12  C   UNL     1       8.502  20.366  53.868  1.00  0.00     0.002 A 
HETATM   13  C   UNL     1       7.747  21.412  53.332  1.00  0.00     0.034 A 
ENDROOT
BRANCH   3  14
HETATM   14  C   UNL     1       5.820  26.432  52.599  1.00  0.00     0.042 A 
HETATM   15  C   UNL     1       5.942  27.815  52.380  1.00  0.00     0.031 A 
HETATM   16  C   UNL     1       5.567  28.386  51.156  1.00  0.00     0.027 A 
HETATM   17  C   UNL     1       5.080  27.573  50.133  1.00  0.00     0.074 A 
HETATM   18  C   UNL     1       4.974  26.199  50.317  1.00  0.00     0.027 A 
HETATM   19  C   UNL     1       5.325  25.638  51.547  1.00  0.00     0.031 A 
BRANCH  17  20
HETATM   20  S   UNL     1       4.534  28.293  48.608  1.00  0.00     0.243 S 
HETATM   21  O   UNL     1       5.142  29.600  48.485  1.00  0.00    -0.206 OA
HETATM   22  O   UNL     1       4.702  27.290  47.579  1.00  0.00    -0.206 OA
BRANCH  20  23
HETATM   23  N   UNL     1       2.866  28.527  48.850  1.00  0.00    -0.202 NA
HETATM   24  C   UNL     1       2.275  29.812  48.362  1.00  0.00     0.134 C 
HETATM   25  C   UNL     1       1.927  29.764  46.870  1.00  0.00     0.183 C 
HETATM   26  O   UNL     1       1.083  28.648  46.562  1.00  0.00    -0.389 OA
HETATM   27  C   UNL     1       1.729  27.417  46.916  1.00  0.00     0.183 C 
HETATM   28  C   UNL     1       2.015  27.370  48.420  1.00  0.00     0.134 C 
ENDBRANCH  20  23
ENDBRANCH  17  20
ENDBRANCH   3  14
BRANCH   2  29
HETATM   29  N   UNL     1       4.748  27.346  55.371  1.00  0.00    -0.287 NA
HETATM   30  H   UNL     1       4.118  27.135  56.148  1.00  0.00     0.125 HD
HETATM   31  H   UNL     1       4.199  27.650  54.564  1.00  0.00     0.125 HD
ENDBRANCH   2  29
BRANCH   1  32
HETATM   32  C   UNL     1       7.208  26.743  57.224  1.00  0.00     0.257 C 
HETATM   33  N   UNL     1       7.232  28.120  57.091  1.00  0.00    -0.356 N 
HETATM   34  H   UNL     1       7.040  28.481  56.161  1.00  0.00     0.162 HD
HETATM   35  O   UNL     1       7.610  26.168  58.229  1.00  0.00    -0.267 OA
BRANCH  33  36
HETATM   36  C   UNL     1       8.057  28.954  57.941  1.00  0.00     0.127 C 
BRANCH  36  37
HETATM   37  C   UNL     1       7.496  30.375  58.099  1.00  0.00     0.058 C 
BRANCH  37  38
HETATM   38  C   UNL     1       7.730  30.971  59.471  1.00  0.00    -0.057 A 
HETATM   39  C   UNL     1       6.919  32.005  59.954  1.00  0.00     0.010 A 
HETATM   40  C   UNL     1       7.129  32.541  61.233  1.00  0.00     0.037 A 
HETATM   41  C   UNL     1       8.152  32.047  62.041  1.00  0.00     0.068 A 
HETATM   42  C   UNL     1       8.983  31.039  61.551  1.00  0.00     0.037 A 
HETATM   43  C   UNL     1       8.771  30.498  60.280  1.00  0.00     0.010 A 
BRANCH  41  44
HETATM   44  O   UNL     1       8.449  32.475  63.306  1.00  0.00    -0.356 OA
HETATM   45  C   UNL     1       7.411  33.158  64.000  1.00  0.00     0.210 C 
ENDBRANCH  41  44
ENDBRANCH  37  38
ENDBRANCH  36  37
ENDBRANCH  33  36
ENDBRANCH   1  32
TORSDOF 9
ENDMDL
MODEL 2
REMARK VINA RESULT:     -11.2      4.114      8.105
REMARK  9 active torsions:
REMARK  status: ('A' for Active; 'I' for Inactive)
REMARK    1  A    between atoms: O_2  and  C_3 
REMARK    2  A    between atoms: C_6  and  C_7 
REMARK    3  A    between atoms: C_7  and  C_8 
REMARK    4  A    between atoms: C_8  and  N_9 
REMARK       I    between atoms: N_9  and  C_10 
REMARK    5  A    between atoms: C_10  and  C_11 
REMARK    6  A    between atoms: C_12  and  N_13 
REMARK    7  A    between atoms: N_14  and  C_15 
REMARK    8  A    between atoms: C_18  and  S_19 
REMARK    9  A    between atoms: S_19  and  N_20 
ROOT
HETATM    1  C   UNL     1       7.887  30.631  59.147  1.00  0.00     0.103 C 
HETATM    2  C   UNL     1       8.354  30.064  57.965  1.00  0.00     0.105 C 
HETATM    3  N   UNL     1       7.254  29.975  57.101  1.00  0.00    -0.284 N 
HETATM    4  C   UNL     1       6.423  31.034  57.455  1.00  0.00     0.166 A 
HETATM    5  C   UNL     1       6.747  31.380  58.767  1.00  0.00     0.123 A 
HETATM    6  N   UNL     1       6.018  32.294  59.454  1.00  0.00    -0.242 NA
HETATM    7  C   UNL     1       5.047  32.891  58.750  1.00  0.00     0.086 A 
HETATM    8  C   UNL     1       4.761  32.558  57.403  1.00  0.00     0.088 A 
HETATM    9  N   UNL     1       5.427  31.600  56.734  1.00  0.00    -0.226 NA
HETATM   10  C   UNL     1       4.304  33.891  59.367  1.00  0.00     0.034 A 
HETATM   11  C   UNL     1       3.296  34.578  58.688  1.00  0.00     0.002 A 
HETATM   12  C   UNL     1       3.021  34.256  57.367  1.00  0.00     0.002 A 
HETATM   13  C   UNL     1       3.754  33.247  56.739  1.00  0.00     0.034 A 
ENDROOT
BRANCH   3  14
HETATM   14  C   UNL     1       6.980  28.922  56.154  1.00  0.00     0.042 A 
HETATM   15  C   UNL     1       6.109  27.868  56.473  1.00  0.00     0.031 A 
HETATM   16  C   UNL     1       5.977  26.760  55.625  1.00  0.00     0.027 A 
HETATM   17  C   UNL     1       6.707  26.706  54.438  1.00  0.00     0.074 A 
HETATM   18  C   UNL     1       7.557  27.749  54.087  1.00  0.00     0.027 A 
HETATM   19  C   UNL     1       7.704  28.838  54.949  1.00  0.00     0.031 A 
BRANCH  17  20
HETATM   20  S   UNL     1       6.604  25.277  53.394  1.00  0.00     0.243 S 
HETATM   21  O   UNL     1       5.482  24.477  53.837  1.00  0.00    -0.206 OA
HETATM   22  O   UNL     1       6.699  25.741  52.027  1.00  0.00    -0.206 OA
BRANCH  20  23
HETATM   23  N   UNL     1       8.023  24.412  53.759  1.00  0.00    -0.202 NA
HETATM   24  C   UNL     1       8.246  24.030  55.189  1.00  0.00     0.134 C 
HETATM   25  C   UNL     1       7.508  22.742  55.570  1.00  0.00     0.183 C 
HETATM   26  O   UNL     1       7.835  21.666  54.682  1.00  0.00    -0.389 OA
HETATM   27  C   UNL     1       7.486  22.004  53.333  1.00  0.00     0.183 C 
HETATM   28  C   UNL     1       8.270  23.234  52.864  1.00  0.00     0.134 C 
ENDBRANCH  20  23
ENDBRANCH  17  20
ENDBRANCH   3  14
BRANCH   2  29
HETATM   29  N   UNL     1       9.606  29.607  57.671  1.00  0.00    -0.287 NA
HETATM   30  H   UNL     1      10.389  30.240  57.852  1.00  0.00     0.125 HD
HETATM   31  H   UNL     1       9.741  29.152  56.766  1.00  0.00     0.125 HD
ENDBRANCH   2  29
BRANCH   1  32
HETATM   32  C   UNL     1       8.498  30.514  60.464  1.00  0.00     0.257 C 
HETATM   33  N   UNL     1       7.623  30.805  61.496  1.00  0.00    -0.356 N 
HETATM   34  H   UNL     1       6.706  31.146  61.219  1.00  0.00     0.162 HD
HETATM   35  O   UNL     1       9.687  30.285  60.650  1.00  0.00    -0.267 OA
BRANCH  33  36
HETATM   36  C   UNL     1       8.094  31.225  62.800  1.00  0.00     0.127 C 
BRANCH  36  37
HETATM   37  C   UNL     1       7.997  32.744  63.003  1.00  0.00     0.058 C 
BRANCH  37  38
HETATM   38  C   UNL     1       6.929  33.157  63.994  1.00  0.00    -0.057 A 
HETATM   39  C   UNL     1       5.570  33.028  63.683  1.00  0.00     0.010 A 
HETATM   40  C   UNL     1       4.586  33.396  64.612  1.00  0.00     0.037 A 
HETATM   41  C   UNL     1       4.953  33.897  65.861  1.00  0.00     0.068 A 
HETATM   42  C   UNL     1       6.305  34.058  66.162  1.00  0.00     0.037 A 
HETATM   43  C   UNL     1       7.288  33.684  65.241  1.00  0.00     0.010 A 
BRANCH  41  44
HETATM   44  O   UNL     1       4.092  34.277  66.853  1.00  0.00    -0.356 OA
HETATM   45  C   UNL     1       3.288  35.420  66.588  1.00  0.00     0.210 C 
ENDBRANCH  41  44
ENDBRANCH  37  38
ENDBRANCH  36  37
ENDBRANCH  33  36
ENDBRANCH   1  32
TORSDOF 9
ENDMDL
MODEL 3
REMARK VINA RESULT:     -11.1      1.785      2.857
REMARK  9 active torsions:
REMARK  status: ('A' for Active; 'I' for Inactive)
REMARK    1  A    between atoms: O_2  and  C_3 
REMARK    2  A    between atoms: C_6  and  C_7 
REMARK    3  A    between atoms: C_7  and  C_8 
REMARK    4  A    between atoms: C_8  and  N_9 
REMARK       I    between atoms: N_9  and  C_10 
REMARK    5  A    between atoms: C_10  and  C_11 
REMARK    6  A    between atoms: C_12  and  N_13 
REMARK    7  A    between atoms: N_14  and  C_15 
REMARK    8  A    between atoms: C_18  and  S_19 
REMARK    9  A    between atoms: S_19  and  N_20 
ROOT
HETATM    1  C   UNL     1       7.462  28.538  57.073  1.00  0.00     0.103 C 
HETATM    2  C   UNL     1       6.285  29.007  56.498  1.00  0.00     0.105 C 
HETATM    3  N   UNL     1       6.027  28.188  55.388  1.00  0.00    -0.284 N 
HETATM    4  C   UNL     1       6.569  26.949  55.714  1.00  0.00     0.166 A 
HETATM    5  C   UNL     1       7.535  27.175  56.695  1.00  0.00     0.123 A 
HETATM    6  N   UNL     1       8.345  26.177  57.128  1.00  0.00    -0.242 NA
HETATM    7  C   UNL     1       8.078  24.967  56.619  1.00  0.00     0.086 A 
HETATM    8  C   UNL     1       7.061  24.748  55.657  1.00  0.00     0.088 A 
HETATM    9  N   UNL     1       6.301  25.742  55.163  1.00  0.00    -0.226 NA
HETATM   10  C   UNL     1       8.820  23.882  57.071  1.00  0.00     0.034 A 
HETATM   11  C   UNL     1       8.579  22.587  56.609  1.00  0.00     0.002 A 
HETATM   12  C   UNL     1       7.578  22.372  55.672  1.00  0.00     0.002 A 
HETATM   13  C   UNL     1       6.833  23.455  55.202  1.00  0.00     0.034 A 
ENDROOT
BRANCH   3  14
HETATM   14  C   UNL     1       5.456  28.594  54.127  1.00  0.00     0.042 A 
HETATM   15  C   UNL     1       4.074  28.805  53.991  1.00  0.00     0.031 A 
HETATM   16  C   UNL     1       3.499  29.030  52.732  1.00  0.00     0.027 A 
HETATM   17  C   UNL     1       4.310  29.061  51.598  1.00  0.00     0.074 A 
HETATM   18  C   UNL     1       5.684  28.881  51.710  1.00  0.00     0.027 A 
HETATM   19  C   UNL     1       6.247  28.632  52.963  1.00  0.00     0.031 A 
BRANCH  17  20
HETATM   20  S   UNL     1       3.586  29.271  49.994  1.00  0.00     0.243 S 
HETATM   21  O   UNL     1       2.396  30.082  50.140  1.00  0.00    -0.206 OA
HETATM   22  O   UNL     1       4.650  29.659  49.094  1.00  0.00    -0.206 OA
BRANCH  20  23
HETATM   23  N   UNL     1       3.085  27.701  49.572  1.00  0.00    -0.202 NA
HETATM   24  C   UNL     1       2.012  27.577  48.536  1.00  0.00     0.134 C 
HETATM   25  C   UNL     1       2.569  27.651  47.109  1.00  0.00     0.183 C 
HETATM   26  O   UNL     1       3.612  26.690  46.902  1.00  0.00    -0.389 OA
HETATM   27  C   UNL     1       4.691  26.914  47.820  1.00  0.00     0.183 C 
HETATM   28  C   UNL     1       4.210  26.759  49.266  1.00  0.00     0.134 C 
ENDBRANCH  20  23
ENDBRANCH  17  20
ENDBRANCH   3  14
BRANCH   2  29
HETATM   29  N   UNL     1       5.526  30.083  56.856  1.00  0.00    -0.287 NA
HETATM   30  H   UNL     1       5.224  30.138  57.832  1.00  0.00     0.125 HD
HETATM   31  H   UNL     1       4.744  30.332  56.246  1.00  0.00     0.125 HD
ENDBRANCH   2  29
BRANCH   1  32
HETATM   32  C   UNL     1       8.367  29.292  57.930  1.00  0.00     0.257 C 
HETATM   33  N   UNL     1       7.786  29.678  59.125  1.00  0.00    -0.356 N 
HETATM   34  H   UNL     1       6.796  29.475  59.225  1.00  0.00     0.162 HD
HETATM   35  O   UNL     1       9.491  29.645  57.595  1.00  0.00    -0.267 OA
BRANCH  33  36
HETATM   36  C   UNL     1       8.288  30.803  59.888  1.00  0.00     0.127 C 
BRANCH  36  37
HETATM   37  C   UNL     1       7.263  31.939  60.010  1.00  0.00     0.058 C 
BRANCH  37  38
HETATM   38  C   UNL     1       7.088  32.450  61.425  1.00  0.00    -0.057 A 
HETATM   39  C   UNL     1       8.069  32.224  62.398  1.00  0.00     0.010 A 
HETATM   40  C   UNL     1       7.909  32.715  63.702  1.00  0.00     0.037 A 
HETATM   41  C   UNL     1       6.766  33.437  64.045  1.00  0.00     0.068 A 
HETATM   42  C   UNL     1       5.772  33.636  63.087  1.00  0.00     0.037 A 
HETATM   43  C   UNL     1       5.932  33.155  61.784  1.00  0.00     0.010 A 
BRANCH  41  44
HETATM   44  O   UNL     1       6.501  33.977  65.273  1.00  0.00    -0.356 OA
HETATM   45  C   UNL     1       5.171  33.825  65.755  1.00  0.00     0.210 C 
ENDBRANCH  41  44
ENDBRANCH  37  38
ENDBRANCH  36  37
ENDBRANCH  33  36
ENDBRANCH   1  32
TORSDOF 9
ENDMDL
MODEL 4
REMARK VINA RESULT:     -10.8      1.656      2.418
REMARK  9 active torsions:
REMARK  status: ('A' for Active; 'I' for Inactive)
REMARK    1  A    between atoms: O_2  and  C_3 
REMARK    2  A    between atoms: C_6  and  C_7 
REMARK    3  A    between atoms: C_7  and  C_8 
REMARK    4  A    between atoms: C_8  and  N_9 
REMARK       I    between atoms: N_9  and  C_10 
REMARK    5  A    between atoms: C_10  and  C_11 
REMARK    6  A    between atoms: C_12  and  N_13 
REMARK    7  A    between atoms: N_14  and  C_15 
REMARK    8  A    between atoms: C_18  and  S_19 
REMARK    9  A    between atoms: S_19  and  N_20 
ROOT
HETATM    1  C   UNL     1       6.527  26.697  56.366  1.00  0.00     0.103 C 
HETATM    2  C   UNL     1       5.299  27.009  55.793  1.00  0.00     0.105 C 
HETATM    3  N   UNL     1       5.335  26.524  54.477  1.00  0.00    -0.284 N 
HETATM    4  C   UNL     1       6.180  25.419  54.518  1.00  0.00     0.166 A 
HETATM    5  C   UNL     1       6.994  25.574  55.640  1.00  0.00     0.123 A 
HETATM    6  N   UNL     1       8.024  24.726  55.884  1.00  0.00    -0.242 NA
HETATM    7  C   UNL     1       8.128  23.697  55.032  1.00  0.00     0.086 A 
HETATM    8  C   UNL     1       7.263  23.532  53.922  1.00  0.00     0.088 A 
HETATM    9  N   UNL     1       6.285  24.407  53.625  1.00  0.00    -0.226 NA
HETATM   10  C   UNL     1       9.116  22.747  55.262  1.00  0.00     0.034 A 
HETATM   11  C   UNL     1       9.266  21.634  54.434  1.00  0.00     0.002 A 
HETATM   12  C   UNL     1       8.415  21.468  53.351  1.00  0.00     0.002 A 
HETATM   13  C   UNL     1       7.425  22.422  53.103  1.00  0.00     0.034 A 
ENDROOT
BRANCH   3  14
HETATM   14  C   UNL     1       4.741  27.135  53.313  1.00  0.00     0.042 A 
HETATM   15  C   UNL     1       5.136  26.761  52.017  1.00  0.00     0.031 A 
HETATM   16  C   UNL     1       4.688  27.471  50.895  1.00  0.00     0.027 A 
HETATM   17  C   UNL     1       3.825  28.554  51.060  1.00  0.00     0.074 A 
HETATM   18  C   UNL     1       3.400  28.928  52.330  1.00  0.00     0.027 A 
HETATM   19  C   UNL     1       3.870  28.233  53.447  1.00  0.00     0.031 A 
BRANCH  17  20
HETATM   20  S   UNL     1       3.311  29.504  49.655  1.00  0.00     0.243 S 
HETATM   21  O   UNL     1       2.553  28.637  48.779  1.00  0.00    -0.206 OA
HETATM   22  O   UNL     1       2.746  30.737  50.158  1.00  0.00    -0.206 OA
BRANCH  20  23
HETATM   23  N   UNL     1       4.772  29.875  48.866  1.00  0.00    -0.202 NA
HETATM   24  C   UNL     1       4.681  30.439  47.482  1.00  0.00     0.134 C 
HETATM   25  C   UNL     1       4.440  31.953  47.485  1.00  0.00     0.183 C 
HETATM   26  O   UNL     1       5.423  32.641  48.269  1.00  0.00    -0.389 OA
HETATM   27  C   UNL     1       5.398  32.177  49.626  1.00  0.00     0.183 C 
HETATM   28  C   UNL     1       5.728  30.682  49.692  1.00  0.00     0.134 C 
ENDBRANCH  20  23
ENDBRANCH  17  20
ENDBRANCH   3  14
BRANCH   2  29
HETATM   29  N   UNL     1       4.255  27.704  56.330  1.00  0.00    -0.287 NA
HETATM   30  H   UNL     1       4.473  28.385  57.062  1.00  0.00     0.125 HD
HETATM   31  H   UNL     1       3.424  27.172  56.601  1.00  0.00     0.125 HD
ENDBRANCH   2  29
BRANCH   1  32
HETATM   32  C   UNL     1       7.143  27.359  57.508  1.00  0.00     0.257 C 
HETATM   33  N   UNL     1       6.976  28.733  57.492  1.00  0.00    -0.356 N 
HETATM   34  H   UNL     1       6.533  29.118  56.663  1.00  0.00     0.162 HD
HETATM   35  O   UNL     1       7.829  26.785  58.345  1.00  0.00    -0.267 OA
BRANCH  33  36
HETATM   36  C   UNL     1       7.871  29.618  58.209  1.00  0.00     0.127 C 
BRANCH  36  37
HETATM   37  C   UNL     1       7.214  30.959  58.569  1.00  0.00     0.058 C 
BRANCH  37  38
HETATM   38  C   UNL     1       7.503  31.416  59.983  1.00  0.00    -0.057 A 
HETATM   39  C   UNL     1       8.585  30.892  60.702  1.00  0.00     0.010 A 
HETATM   40  C   UNL     1       8.858  31.334  62.004  1.00  0.00     0.037 A 
HETATM   41  C   UNL     1       8.052  32.303  62.601  1.00  0.00     0.068 A 
HETATM   42  C   UNL     1       6.954  32.803  61.900  1.00  0.00     0.037 A 
HETATM   43  C   UNL     1       6.685  32.371  60.598  1.00  0.00     0.010 A 
BRANCH  41  44
HETATM   44  O   UNL     1       8.221  32.822  63.854  1.00  0.00    -0.356 OA
HETATM   45  C   UNL     1       7.127  33.561  64.385  1.00  0.00     0.210 C 
ENDBRANCH  41  44
ENDBRANCH  37  38
ENDBRANCH  36  37
ENDBRANCH  33  36
ENDBRANCH   1  32
TORSDOF 9
ENDMDL
MODEL 5
REMARK VINA RESULT:     -10.5      4.266      8.595
REMARK  9 active torsions:
REMARK  status: ('A' for Active; 'I' for Inactive)
REMARK    1  A    between atoms: O_2  and  C_3 
REMARK    2  A    between atoms: C_6  and  C_7 
REMARK    3  A    between atoms: C_7  and  C_8 
REMARK    4  A    between atoms: C_8  and  N_9 
REMARK       I    between atoms: N_9  and  C_10 
REMARK    5  A    between atoms: C_10  and  C_11 
REMARK    6  A    between atoms: C_12  and  N_13 
REMARK    7  A    between atoms: N_14  and  C_15 
REMARK    8  A    between atoms: C_18  and  S_19 
REMARK    9  A    between atoms: S_19  and  N_20 
ROOT
HETATM    1  C   UNL     1       7.740  31.374  60.185  1.00  0.00     0.103 C 
HETATM    2  C   UNL     1       8.360  30.762  59.100  1.00  0.00     0.105 C 
HETATM    3  N   UNL     1       7.364  30.544  58.138  1.00  0.00    -0.284 N 
HETATM    4  C   UNL     1       6.441  31.568  58.328  1.00  0.00     0.166 A 
HETATM    5  C   UNL     1       6.604  32.021  59.638  1.00  0.00     0.123 A 
HETATM    6  N   UNL     1       5.755  32.929  60.179  1.00  0.00    -0.242 NA
HETATM    7  C   UNL     1       4.830  33.414  59.340  1.00  0.00     0.086 A 
HETATM    8  C   UNL     1       4.708  32.974  57.999  1.00  0.00     0.088 A 
HETATM    9  N   UNL     1       5.495  32.019  57.471  1.00  0.00    -0.226 NA
HETATM   10  C   UNL     1       3.970  34.402  59.805  1.00  0.00     0.034 A 
HETATM   11  C   UNL     1       3.001  34.975  58.979  1.00  0.00     0.002 A 
HETATM   12  C   UNL     1       2.886  34.549  57.664  1.00  0.00     0.002 A 
HETATM   13  C   UNL     1       3.737  33.550  57.188  1.00  0.00     0.034 A 
ENDROOT
BRANCH   3  14
HETATM   14  C   UNL     1       7.253  29.415  57.247  1.00  0.00     0.042 A 
HETATM   15  C   UNL     1       8.032  29.332  56.080  1.00  0.00     0.031 A 
HETATM   16  C   UNL     1       7.802  28.327  55.131  1.00  0.00     0.027 A 
HETATM   17  C   UNL     1       6.798  27.384  55.351  1.00  0.00     0.074 A 
HETATM   18  C   UNL     1       6.032  27.429  56.509  1.00  0.00     0.027 A 
HETATM   19  C   UNL     1       6.247  28.449  57.439  1.00  0.00     0.031 A 
BRANCH  17  20
HETATM   20  S   UNL     1       6.450  26.153  54.123  1.00  0.00     0.243 S 
HETATM   21  O   UNL     1       5.355  25.338  54.603  1.00  0.00    -0.206 OA
HETATM   22  O   UNL     1       6.375  26.832  52.849  1.00  0.00    -0.206 OA
BRANCH  20  23
HETATM   23  N   UNL     1       7.847  25.182  54.123  1.00  0.00    -0.202 NA
HETATM   24  C   UNL     1       8.100  24.342  55.337  1.00  0.00     0.134 C 
HETATM   25  C   UNL     1       7.327  23.019  55.301  1.00  0.00     0.183 C 
HETATM   26  O   UNL     1       7.588  22.290  54.095  1.00  0.00    -0.389 OA
HETATM   27  C   UNL     1       7.211  23.064  52.948  1.00  0.00     0.183 C 
HETATM   28  C   UNL     1       8.024  24.361  52.881  1.00  0.00     0.134 C 
ENDBRANCH  20  23
ENDBRANCH  17  20
ENDBRANCH   3  14
BRANCH   2  29
HETATM   29  N   UNL     1       9.660  30.369  58.968  1.00  0.00    -0.287 NA
HETATM   30  H   UNL     1       9.833  29.376  58.793  1.00  0.00     0.125 HD
HETATM   31  H   UNL     1      10.330  30.711  59.660  1.00  0.00     0.125 HD
ENDBRANCH   2  29
BRANCH   1  32
HETATM   32  C   UNL     1       8.215  31.385  61.561  1.00  0.00     0.257 C 
HETATM   33  N   UNL     1       7.482  32.226  62.381  1.00  0.00    -0.356 N 
HETATM   34  H   UNL     1       6.775  32.791  61.920  1.00  0.00     0.162 HD
HETATM   35  O   UNL     1       9.220  30.798  61.944  1.00  0.00    -0.267 OA
BRANCH  33  36
HETATM   36  C   UNL     1       8.034  32.765  63.607  1.00  0.00     0.127 C 
BRANCH  36  37
HETATM   37  C   UNL     1       6.949  33.142  64.628  1.00  0.00     0.058 C 
BRANCH  37  38
HETATM   38  C   UNL     1       5.918  34.110  64.088  1.00  0.00    -0.057 A 
HETATM   39  C   UNL     1       6.291  35.382  63.637  1.00  0.00     0.010 A 
HETATM   40  C   UNL     1       5.334  36.267  63.122  1.00  0.00     0.037 A 
HETATM   41  C   UNL     1       3.993  35.889  63.054  1.00  0.00     0.068 A 
HETATM   42  C   UNL     1       3.612  34.636  63.533  1.00  0.00     0.037 A 
HETATM   43  C   UNL     1       4.566  33.748  64.039  1.00  0.00     0.010 A 
BRANCH  41  44
HETATM   44  O   UNL     1       2.971  36.654  62.563  1.00  0.00    -0.356 OA
HETATM   45  C   UNL     1       3.347  37.837  61.866  1.00  0.00     0.210 C 
ENDBRANCH  41  44
ENDBRANCH  37  38
ENDBRANCH  36  37
ENDBRANCH  33  36
ENDBRANCH   1  32
TORSDOF 9
ENDMDL
MODEL 6
REMARK VINA RESULT:     -10.5      4.205      5.809
REMARK  9 active torsions:
REMARK  status: ('A' for Active; 'I' for Inactive)
REMARK    1  A    between atoms: O_2  and  C_3 
REMARK    2  A    between atoms: C_6  and  C_7 
REMARK    3  A    between atoms: C_7  and  C_8 
REMARK    4  A    between atoms: C_8  and  N_9 
REMARK       I    between atoms: N_9  and  C_10 
REMARK    5  A    between atoms: C_10  and  C_11 
REMARK    6  A    between atoms: C_12  and  N_13 
REMARK    7  A    between atoms: N_14  and  C_15 
REMARK    8  A    between atoms: C_18  and  S_19 
REMARK    9  A    between atoms: S_19  and  N_20 
ROOT
HETATM    1  C   UNL     1       4.743  31.236  58.068  1.00  0.00     0.103 C 
HETATM    2  C   UNL     1       3.973  30.385  57.281  1.00  0.00     0.105 C 
HETATM    3  N   UNL     1       4.763  30.034  56.178  1.00  0.00    -0.284 N 
HETATM    4  C   UNL     1       6.075  30.071  56.640  1.00  0.00     0.166 A 
HETATM    5  C   UNL     1       6.085  30.901  57.762  1.00  0.00     0.123 A 
HETATM    6  N   UNL     1       7.247  31.253  58.366  1.00  0.00    -0.242 NA
HETATM    7  C   UNL     1       8.346  30.672  57.868  1.00  0.00     0.086 A 
HETATM    8  C   UNL     1       8.311  29.796  56.755  1.00  0.00     0.088 A 
HETATM    9  N   UNL     1       7.176  29.498  56.099  1.00  0.00    -0.226 NA
HETATM   10  C   UNL     1       9.566  30.929  58.483  1.00  0.00     0.034 A 
HETATM   11  C   UNL     1      10.748  30.337  58.038  1.00  0.00     0.002 A 
HETATM   12  C   UNL     1      10.713  29.474  56.952  1.00  0.00     0.002 A 
HETATM   13  C   UNL     1       9.496  29.215  56.319  1.00  0.00     0.034 A 
ENDROOT
BRANCH   3  14
HETATM   14  C   UNL     1       4.315  29.827  54.822  1.00  0.00     0.042 A 
HETATM   15  C   UNL     1       4.167  28.532  54.297  1.00  0.00     0.031 A 
HETATM   16  C   UNL     1       3.899  28.333  52.935  1.00  0.00     0.027 A 
HETATM   17  C   UNL     1       3.761  29.434  52.090  1.00  0.00     0.074 A 
HETATM   18  C   UNL     1       3.878  30.725  52.590  1.00  0.00     0.027 A 
HETATM   19  C   UNL     1       4.170  30.917  53.943  1.00  0.00     0.031 A 
BRANCH  17  20
HETATM   20  S   UNL     1       3.496  29.193  50.354  1.00  0.00     0.243 S 
HETATM   21  O   UNL     1       2.261  28.457  50.186  1.00  0.00    -0.206 OA
HETATM   22  O   UNL     1       3.696  30.473  49.711  1.00  0.00    -0.206 OA
BRANCH  20  23
HETATM   23  N   UNL     1       4.770  28.164  49.893  1.00  0.00    -0.202 NA
HETATM   24  C   UNL     1       4.432  26.731  49.623  1.00  0.00     0.134 C 
HETATM   25  C   UNL     1       3.904  26.514  48.200  1.00  0.00     0.183 C 
HETATM   26  O   UNL     1       4.810  27.034  47.219  1.00  0.00    -0.389 OA
HETATM   27  C   UNL     1       5.013  28.440  47.416  1.00  0.00     0.183 C 
HETATM   28  C   UNL     1       5.630  28.708  48.793  1.00  0.00     0.134 C 
ENDBRANCH  20  23
ENDBRANCH  17  20
ENDBRANCH   3  14
BRANCH   2  29
HETATM   29  N   UNL     1       2.680  29.989  57.461  1.00  0.00    -0.287 NA
HETATM   30  H   UNL     1       2.033  30.672  57.865  1.00  0.00     0.125 HD
HETATM   31  H   UNL     1       2.522  29.077  57.896  1.00  0.00     0.125 HD
ENDBRANCH   2  29
BRANCH   1  32
HETATM   32  C   UNL     1       4.248  32.204  59.037  1.00  0.00     0.257 C 
HETATM   33  N   UNL     1       5.247  33.011  59.555  1.00  0.00    -0.356 N 
HETATM   34  H   UNL     1       6.195  32.780  59.276  1.00  0.00     0.162 HD
HETATM   35  O   UNL     1       3.092  32.242  59.438  1.00  0.00    -0.267 OA
BRANCH  33  36
HETATM   36  C   UNL     1       5.101  33.678  60.833  1.00  0.00     0.127 C 
BRANCH  36  37
HETATM   37  C   UNL     1       6.327  33.495  61.739  1.00  0.00     0.058 C 
BRANCH  37  38
HETATM   38  C   UNL     1       6.015  33.623  63.215  1.00  0.00    -0.057 A 
HETATM   39  C   UNL     1       7.037  33.579  64.173  1.00  0.00     0.010 A 
HETATM   40  C   UNL     1       6.744  33.716  65.537  1.00  0.00     0.037 A 
HETATM   41  C   UNL     1       5.426  33.899  65.957  1.00  0.00     0.068 A 
HETATM   42  C   UNL     1       4.403  33.910  65.009  1.00  0.00     0.037 A 
HETATM   43  C   UNL     1       4.693  33.783  63.648  1.00  0.00     0.010 A 
BRANCH  41  44
HETATM   44  O   UNL     1       5.016  34.057  67.252  1.00  0.00    -0.356 OA
HETATM   45  C   UNL     1       5.632  35.109  67.985  1.00  0.00     0.210 C 
ENDBRANCH  41  44
ENDBRANCH  37  38
ENDBRANCH  36  37
ENDBRANCH  33  36
ENDBRANCH   1  32
TORSDOF 9
ENDMDL
MODEL 7
REMARK VINA RESULT:     -10.4      1.996      2.842
REMARK  9 active torsions:
REMARK  status: ('A' for Active; 'I' for Inactive)
REMARK    1  A    between atoms: O_2  and  C_3 
REMARK    2  A    between atoms: C_6  and  C_7 
REMARK    3  A    between atoms: C_7  and  C_8 
REMARK    4  A    between atoms: C_8  and  N_9 
REMARK       I    between atoms: N_9  and  C_10 
REMARK    5  A    between atoms: C_10  and  C_11 
REMARK    6  A    between atoms: C_12  and  N_13 
REMARK    7  A    between atoms: N_14  and  C_15 
REMARK    8  A    between atoms: C_18  and  S_19 
REMARK    9  A    between atoms: S_19  and  N_20 
ROOT
HETATM    1  C   UNL     1       7.436  28.329  56.956  1.00  0.00     0.103 C 
HETATM    2  C   UNL     1       6.227  28.775  56.431  1.00  0.00     0.105 C 
HETATM    3  N   UNL     1       5.942  27.957  55.328  1.00  0.00    -0.284 N 
HETATM    4  C   UNL     1       6.523  26.727  55.625  1.00  0.00     0.166 A 
HETATM    5  C   UNL     1       7.523  26.970  56.567  1.00  0.00     0.123 A 
HETATM    6  N   UNL     1       8.371  25.987  56.962  1.00  0.00    -0.242 NA
HETATM    7  C   UNL     1       8.109  24.774  56.457  1.00  0.00     0.086 A 
HETATM    8  C   UNL     1       7.060  24.538  55.535  1.00  0.00     0.088 A 
HETATM    9  N   UNL     1       6.260  25.518  55.077  1.00  0.00    -0.226 NA
HETATM   10  C   UNL     1       8.892  23.704  56.873  1.00  0.00     0.034 A 
HETATM   11  C   UNL     1       8.661  22.406  56.413  1.00  0.00     0.002 A 
HETATM   12  C   UNL     1       7.628  22.174  55.516  1.00  0.00     0.002 A 
HETATM   13  C   UNL     1       6.841  23.243  55.082  1.00  0.00     0.034 A 
ENDROOT
BRANCH   3  14
HETATM   14  C   UNL     1       5.313  28.356  54.093  1.00  0.00     0.042 A 
HETATM   15  C   UNL     1       3.922  28.541  54.015  1.00  0.00     0.031 A 
HETATM   16  C   UNL     1       3.293  28.760  52.782  1.00  0.00     0.027 A 
HETATM   17  C   UNL     1       4.056  28.811  51.615  1.00  0.00     0.074 A 
HETATM   18  C   UNL     1       5.436  28.656  51.670  1.00  0.00     0.027 A 
HETATM   19  C   UNL     1       6.055  28.413  52.898  1.00  0.00     0.031 A 
BRANCH  17  20
HETATM   20  S   UNL     1       3.263  29.013  50.043  1.00  0.00     0.243 S 
HETATM   21  O   UNL     1       3.714  27.948  49.172  1.00  0.00    -0.206 OA
HETATM   22  O   UNL     1       1.855  29.223  50.299  1.00  0.00    -0.206 OA
BRANCH  20  23
HETATM   23  N   UNL     1       3.915  30.468  49.449  1.00  0.00    -0.202 NA
HETATM   24  C   UNL     1       4.945  30.368  48.368  1.00  0.00     0.134 C 
HETATM   25  C   UNL     1       4.318  30.224  46.977  1.00  0.00     0.183 C 
HETATM   26  O   UNL     1       3.379  31.274  46.712  1.00  0.00    -0.389 OA
HETATM   27  C   UNL     1       2.326  31.264  47.686  1.00  0.00     0.183 C 
HETATM   28  C   UNL     1       2.888  31.500  49.092  1.00  0.00     0.134 C 
ENDBRANCH  20  23
ENDBRANCH  17  20
ENDBRANCH   3  14
BRANCH   2  29
HETATM   29  N   UNL     1       5.460  29.832  56.826  1.00  0.00    -0.287 NA
HETATM   30  H   UNL     1       5.197  29.876  57.813  1.00  0.00     0.125 HD
HETATM   31  H   UNL     1       4.650  30.068  56.249  1.00  0.00     0.125 HD
ENDBRANCH   2  29
BRANCH   1  32
HETATM   32  C   UNL     1       8.358  29.098  57.780  1.00  0.00     0.257 C 
HETATM   33  N   UNL     1       7.792  29.532  58.967  1.00  0.00    -0.356 N 
HETATM   34  H   UNL     1       6.801  29.345  59.081  1.00  0.00     0.162 HD
HETATM   35  O   UNL     1       9.484  29.425  57.426  1.00  0.00    -0.267 OA
BRANCH  33  36
HETATM   36  C   UNL     1       8.316  30.673  59.688  1.00  0.00     0.127 C 
BRANCH  36  37
HETATM   37  C   UNL     1       7.299  31.818  59.801  1.00  0.00     0.058 C 
BRANCH  37  38
HETATM   38  C   UNL     1       7.184  32.393  61.198  1.00  0.00    -0.057 A 
HETATM   39  C   UNL     1       8.116  32.065  62.190  1.00  0.00     0.010 A 
HETATM   40  C   UNL     1       8.015  32.614  63.476  1.00  0.00     0.037 A 
HETATM   41  C   UNL     1       6.979  33.497  63.782  1.00  0.00     0.068 A 
HETATM   42  C   UNL     1       6.030  33.801  62.806  1.00  0.00     0.037 A 
HETATM   43  C   UNL     1       6.134  33.261  61.521  1.00  0.00     0.010 A 
BRANCH  41  44
HETATM   44  O   UNL     1       6.780  34.107  64.990  1.00  0.00    -0.356 OA
HETATM   45  C   UNL     1       5.534  33.852  65.627  1.00  0.00     0.210 C 
ENDBRANCH  41  44
ENDBRANCH  37  38
ENDBRANCH  36  37
ENDBRANCH  33  36
ENDBRANCH   1  32
TORSDOF 9
ENDMDL
MODEL 8
REMARK VINA RESULT:     -10.4      3.247     10.240
REMARK  9 active torsions:
REMARK  status: ('A' for Active; 'I' for Inactive)
REMARK    1  A    between atoms: O_2  and  C_3 
REMARK    2  A    between atoms: C_6  and  C_7 
REMARK    3  A    between atoms: C_7  and  C_8 
REMARK    4  A    between atoms: C_8  and  N_9 
REMARK       I    between atoms: N_9  and  C_10 
REMARK    5  A    between atoms: C_10  and  C_11 
REMARK    6  A    between atoms: C_12  and  N_13 
REMARK    7  A    between atoms: N_14  and  C_15 
REMARK    8  A    between atoms: C_18  and  S_19 
REMARK    9  A    between atoms: S_19  and  N_20 
ROOT
HETATM    1  C   UNL     1       5.845  26.931  51.626  1.00  0.00     0.103 C 
HETATM    2  C   UNL     1       5.948  28.148  52.293  1.00  0.00     0.105 C 
HETATM    3  N   UNL     1       6.018  27.851  53.662  1.00  0.00    -0.284 N 
HETATM    4  C   UNL     1       6.631  26.604  53.735  1.00  0.00     0.166 A 
HETATM    5  C   UNL     1       6.438  25.986  52.499  1.00  0.00     0.123 A 
HETATM    6  N   UNL     1       6.801  24.695  52.294  1.00  0.00    -0.242 NA
HETATM    7  C   UNL     1       7.432  24.112  53.321  1.00  0.00     0.086 A 
HETATM    8  C   UNL     1       7.659  24.772  54.554  1.00  0.00     0.088 A 
HETATM    9  N   UNL     1       7.237  26.025  54.798  1.00  0.00    -0.226 NA
HETATM   10  C   UNL     1       7.898  22.813  53.158  1.00  0.00     0.034 A 
HETATM   11  C   UNL     1       8.591  22.151  54.172  1.00  0.00     0.002 A 
HETATM   12  C   UNL     1       8.819  22.799  55.378  1.00  0.00     0.002 A 
HETATM   13  C   UNL     1       8.347  24.101  55.558  1.00  0.00     0.034 A 
ENDROOT
BRANCH   3  14
HETATM   14  C   UNL     1       5.442  28.613  54.743  1.00  0.00     0.042 A 
HETATM   15  C   UNL     1       4.049  28.696  54.910  1.00  0.00     0.031 A 
HETATM   16  C   UNL     1       3.487  29.571  55.850  1.00  0.00     0.027 A 
HETATM   17  C   UNL     1       4.319  30.359  56.645  1.00  0.00     0.074 A 
HETATM   18  C   UNL     1       5.701  30.275  56.518  1.00  0.00     0.027 A 
HETATM   19  C   UNL     1       6.254  29.421  55.561  1.00  0.00     0.031 A 
BRANCH  17  20
HETATM   20  S   UNL     1       3.619  31.521  57.786  1.00  0.00     0.243 S 
HETATM   21  O   UNL     1       2.684  32.355  57.061  1.00  0.00    -0.206 OA
HETATM   22  O   UNL     1       3.205  30.775  58.954  1.00  0.00    -0.206 OA
BRANCH  20  23
HETATM   23  N   UNL     1       4.940  32.498  58.224  1.00  0.00    -0.202 NA
HETATM   24  C   UNL     1       4.887  33.942  57.833  1.00  0.00     0.134 C 
HETATM   25  C   UNL     1       4.087  34.787  58.831  1.00  0.00     0.183 C 
HETATM   26  O   UNL     1       4.576  34.624  60.168  1.00  0.00    -0.389 OA
HETATM   27  C   UNL     1       4.491  33.249  60.570  1.00  0.00     0.183 C 
HETATM   28  C   UNL     1       5.351  32.367  59.660  1.00  0.00     0.134 C 
ENDBRANCH  20  23
ENDBRANCH  17  20
ENDBRANCH   3  14
BRANCH   2  29
HETATM   29  N   UNL     1       5.924  29.411  51.778  1.00  0.00    -0.287 NA
HETATM   30  H   UNL     1       5.372  29.560  50.929  1.00  0.00     0.125 HD
HETATM   31  H   UNL     1       6.817  29.902  51.689  1.00  0.00     0.125 HD
ENDBRANCH   2  29
BRANCH   1  32
HETATM   32  C   UNL     1       5.300  26.718  50.292  1.00  0.00     0.257 C 
HETATM   33  N   UNL     1       5.721  27.668  49.377  1.00  0.00    -0.356 N 
HETATM   34  H   UNL     1       6.273  28.433  49.752  1.00  0.00     0.162 HD
HETATM   35  O   UNL     1       4.473  25.856  50.020  1.00  0.00    -0.267 OA
BRANCH  33  36
HETATM   36  C   UNL     1       4.967  27.952  48.174  1.00  0.00     0.127 C 
BRANCH  36  37
HETATM   37  C   UNL     1       3.896  29.032  48.388  1.00  0.00     0.058 C 
BRANCH  37  38
HETATM   38  C   UNL     1       2.564  28.702  47.748  1.00  0.00    -0.057 A 
HETATM   39  C   UNL     1       2.059  27.395  47.770  1.00  0.00     0.010 A 
HETATM   40  C   UNL     1       0.817  27.100  47.192  1.00  0.00     0.037 A 
HETATM   41  C   UNL     1       0.067  28.108  46.585  1.00  0.00     0.068 A 
HETATM   42  C   UNL     1       0.582  29.403  46.532  1.00  0.00     0.037 A 
HETATM   43  C   UNL     1       1.816  29.702  47.115  1.00  0.00     0.010 A 
BRANCH  41  44
HETATM   44  O   UNL     1      -1.159  27.949  46.000  1.00  0.00    -0.356 OA
HETATM   45  C   UNL     1      -1.713  29.100  45.374  1.00  0.00     0.210 C 
ENDBRANCH  41  44
ENDBRANCH  37  38
ENDBRANCH  36  37
ENDBRANCH  33  36
ENDBRANCH   1  32
TORSDOF 9
ENDMDL
MODEL 9
REMARK VINA RESULT:     -10.0      4.274     11.452
REMARK  9 active torsions:
REMARK  status: ('A' for Active; 'I' for Inactive)
REMARK    1  A    between atoms: O_2  and  C_3 
REMARK    2  A    between atoms: C_6  and  C_7 
REMARK    3  A    between atoms: C_7  and  C_8 
REMARK    4  A    between atoms: C_8  and  N_9 
REMARK       I    between atoms: N_9  and  C_10 
REMARK    5  A    between atoms: C_10  and  C_11 
REMARK    6  A    between atoms: C_12  and  N_13 
REMARK    7  A    between atoms: N_14  and  C_15 
REMARK    8  A    between atoms: C_18  and  S_19 
REMARK    9  A    between atoms: S_19  and  N_20 
ROOT
HETATM    1  C   UNL     1       5.263  29.064  55.082  1.00  0.00     0.103 C 
HETATM    2  C   UNL     1       4.903  29.085  56.426  1.00  0.00     0.105 C 
HETATM    3  N   UNL     1       4.411  30.372  56.689  1.00  0.00    -0.284 N 
HETATM    4  C   UNL     1       3.859  30.805  55.488  1.00  0.00     0.166 A 
HETATM    5  C   UNL     1       4.463  30.060  54.474  1.00  0.00     0.123 A 
HETATM    6  N   UNL     1       4.238  30.342  53.166  1.00  0.00    -0.242 NA
HETATM    7  C   UNL     1       3.336  31.305  52.938  1.00  0.00     0.086 A 
HETATM    8  C   UNL     1       2.699  32.021  53.982  1.00  0.00     0.088 A 
HETATM    9  N   UNL     1       2.969  31.804  55.282  1.00  0.00    -0.226 NA
HETATM   10  C   UNL     1       3.001  31.598  51.621  1.00  0.00     0.034 A 
HETATM   11  C   UNL     1       2.048  32.568  51.307  1.00  0.00     0.002 A 
HETATM   12  C   UNL     1       1.420  33.264  52.330  1.00  0.00     0.002 A 
HETATM   13  C   UNL     1       1.755  32.986  53.657  1.00  0.00     0.034 A 
ENDROOT
BRANCH   3  14
HETATM   14  C   UNL     1       4.579  31.131  57.904  1.00  0.00     0.042 A 
HETATM   15  C   UNL     1       5.846  31.588  58.305  1.00  0.00     0.031 A 
HETATM   16  C   UNL     1       6.035  32.173  59.564  1.00  0.00     0.027 A 
HETATM   17  C   UNL     1       4.951  32.320  60.429  1.00  0.00     0.074 A 
HETATM   18  C   UNL     1       3.683  31.899  60.046  1.00  0.00     0.027 A 
HETATM   19  C   UNL     1       3.505  31.293  58.800  1.00  0.00     0.031 A 
BRANCH  17  20
HETATM   20  S   UNL     1       5.193  32.991  62.052  1.00  0.00     0.243 S 
HETATM   21  O   UNL     1       4.837  31.972  63.017  1.00  0.00    -0.206 OA
HETATM   22  O   UNL     1       6.501  33.609  62.067  1.00  0.00    -0.206 OA
BRANCH  20  23
HETATM   23  N   UNL     1       4.024  34.222  62.155  1.00  0.00    -0.202 NA
HETATM   24  C   UNL     1       2.945  34.061  63.180  1.00  0.00     0.134 C 
HETATM   25  C   UNL     1       3.387  34.532  64.570  1.00  0.00     0.183 C 
HETATM   26  O   UNL     1       3.883  35.877  64.537  1.00  0.00    -0.389 OA
HETATM   27  C   UNL     1       5.005  35.976  63.648  1.00  0.00     0.183 C 
HETATM   28  C   UNL     1       4.596  35.607  62.218  1.00  0.00     0.134 C 
ENDBRANCH  20  23
ENDBRANCH  17  20
ENDBRANCH   3  14
BRANCH   2  29
HETATM   29  N   UNL     1       5.038  28.104  57.364  1.00  0.00    -0.287 NA
HETATM   30  H   UNL     1       4.573  27.211  57.178  1.00  0.00     0.125 HD
HETATM   31  H   UNL     1       4.892  28.363  58.342  1.00  0.00     0.125 HD
ENDBRANCH   2  29
BRANCH   1  32
HETATM   32  C   UNL     1       6.215  28.156  54.456  1.00  0.00     0.257 C 
HETATM   33  N   UNL     1       5.840  27.776  53.178  1.00  0.00    -0.356 N 
HETATM   34  H   UNL     1       4.927  28.094  52.869  1.00  0.00     0.162 HD
HETATM   35  O   UNL     1       7.192  27.687  55.026  1.00  0.00    -0.267 OA
BRANCH  33  36
HETATM   36  C   UNL     1       6.333  26.557  52.571  1.00  0.00     0.127 C 
BRANCH  36  37
HETATM   37  C   UNL     1       5.620  25.303  53.099  1.00  0.00     0.058 C 
BRANCH  37  38
HETATM   38  C   UNL     1       6.558  24.285  53.713  1.00  0.00    -0.057 A 
HETATM   39  C   UNL     1       6.727  24.206  55.101  1.00  0.00     0.010 A 
HETATM   40  C   UNL     1       7.582  23.249  55.664  1.00  0.00     0.037 A 
HETATM   41  C   UNL     1       8.279  22.361  54.844  1.00  0.00     0.068 A 
HETATM   42  C   UNL     1       8.139  22.459  53.459  1.00  0.00     0.037 A 
HETATM   43  C   UNL     1       7.279  23.406  52.896  1.00  0.00     0.010 A 
BRANCH  41  44
HETATM   44  O   UNL     1       9.129  21.379  55.271  1.00  0.00    -0.356 OA
HETATM   45  C   UNL     1       8.814  20.052  54.866  1.00  0.00     0.210 C 
ENDBRANCH  41  44
ENDBRANCH  37  38
ENDBRANCH  36  37
ENDBRANCH  33  36
ENDBRANCH   1  32
TORSDOF 9
ENDMDL
MODEL 10
REMARK VINA RESULT:     -10.0      3.689     11.707
REMARK  9 active torsions:
REMARK  status: ('A' for Active; 'I' for Inactive)
REMARK    1  A    between atoms: O_2  and  C_3 
REMARK    2  A    between atoms: C_6  and  C_7 
REMARK    3  A    between atoms: C_7  and  C_8 
REMARK    4  A    between atoms: C_8  and  N_9 
REMARK       I    between atoms: N_9  and  C_10 
REMARK    5  A    between atoms: C_10  and  C_11 
REMARK    6  A    between atoms: C_12  and  N_13 
REMARK    7  A    between atoms: N_14  and  C_15 
REMARK    8  A    between atoms: C_18  and  S_19 
REMARK    9  A    between atoms: S_19  and  N_20 
ROOT
HETATM    1  C   UNL     1       4.585  29.746  54.529  1.00  0.00     0.103 C 
HETATM    2  C   UNL     1       4.998  30.794  55.346  1.00  0.00     0.105 C 
HETATM    3  N   UNL     1       5.234  30.244  56.615  1.00  0.00    -0.284 N 
HETATM    4  C   UNL     1       5.630  28.931  56.377  1.00  0.00     0.166 A 
HETATM    5  C   UNL     1       5.141  28.584  55.117  1.00  0.00     0.123 A 
HETATM    6  N   UNL     1       5.242  27.315  54.649  1.00  0.00    -0.242 NA
HETATM    7  C   UNL     1       5.922  26.471  55.436  1.00  0.00     0.086 A 
HETATM    8  C   UNL     1       6.451  26.854  56.693  1.00  0.00     0.088 A 
HETATM    9  N   UNL     1       6.292  28.088  57.204  1.00  0.00    -0.226 NA
HETATM   10  C   UNL     1       6.128  25.171  54.988  1.00  0.00     0.034 A 
HETATM   11  C   UNL     1       6.852  24.245  55.740  1.00  0.00     0.002 A 
HETATM   12  C   UNL     1       7.376  24.622  56.968  1.00  0.00     0.002 A 
HETATM   13  C   UNL     1       7.167  25.922  57.434  1.00  0.00     0.034 A 
ENDROOT
BRANCH   3  14
HETATM   14  C   UNL     1       4.976  30.866  57.890  1.00  0.00     0.042 A 
HETATM   15  C   UNL     1       3.674  30.932  58.415  1.00  0.00     0.031 A 
HETATM   16  C   UNL     1       3.398  31.684  59.565  1.00  0.00     0.027 A 
HETATM   17  C   UNL     1       4.429  32.366  60.210  1.00  0.00     0.074 A 
HETATM   18  C   UNL     1       5.730  32.296  59.725  1.00  0.00     0.027 A 
HETATM   19  C   UNL     1       5.995  31.566  58.564  1.00  0.00     0.031 A 
BRANCH  17  20
HETATM   20  S   UNL     1       4.079  33.379  61.622  1.00  0.00     0.243 S 
HETATM   21  O   UNL     1       3.672  34.685  61.148  1.00  0.00    -0.206 OA
HETATM   22  O   UNL     1       3.231  32.605  62.501  1.00  0.00    -0.206 OA
BRANCH  20  23
HETATM   23  N   UNL     1       5.595  33.558  62.372  1.00  0.00    -0.202 NA
HETATM   24  C   UNL     1       6.096  34.953  62.584  1.00  0.00     0.134 C 
HETATM   25  C   UNL     1       5.527  35.590  63.857  1.00  0.00     0.183 C 
HETATM   26  O   UNL     1       5.762  34.767  65.007  1.00  0.00    -0.389 OA
HETATM   27  C   UNL     1       5.156  33.479  64.836  1.00  0.00     0.183 C 
HETATM   28  C   UNL     1       5.758  32.754  63.627  1.00  0.00     0.134 C 
ENDBRANCH  20  23
ENDBRANCH  17  20
ENDBRANCH   3  14
BRANCH   2  29
HETATM   29  N   UNL     1       5.107  32.121  55.049  1.00  0.00    -0.287 NA
HETATM   30  H   UNL     1       5.301  32.367  54.075  1.00  0.00     0.125 HD
HETATM   31  H   UNL     1       5.685  32.697  55.664  1.00  0.00     0.125 HD
ENDBRANCH   2  29
BRANCH   1  32
HETATM   32  C   UNL     1       3.806  29.859  53.304  1.00  0.00     0.257 C 
HETATM   33  N   UNL     1       4.113  28.881  52.374  1.00  0.00    -0.356 N 
HETATM   34  H   UNL     1       4.888  28.269  52.611  1.00  0.00     0.162 HD
HETATM   35  O   UNL     1       3.034  30.780  53.065  1.00  0.00    -0.267 OA
BRANCH  33  36
HETATM   36  C   UNL     1       3.852  29.063  50.961  1.00  0.00     0.127 C 
BRANCH  36  37
HETATM   37  C   UNL     1       4.189  27.816  50.131  1.00  0.00     0.058 C 
BRANCH  37  38
HETATM   38  C   UNL     1       3.191  27.533  49.028  1.00  0.00    -0.057 A 
HETATM   39  C   UNL     1       1.961  28.201  48.981  1.00  0.00     0.010 A 
HETATM   40  C   UNL     1       1.049  27.947  47.946  1.00  0.00     0.037 A 
HETATM   41  C   UNL     1       1.359  27.022  46.949  1.00  0.00     0.068 A 
HETATM   42  C   UNL     1       2.568  26.331  47.011  1.00  0.00     0.037 A 
HETATM   43  C   UNL     1       3.483  26.588  48.036  1.00  0.00     0.010 A 
BRANCH  41  44
HETATM   44  O   UNL     1       0.562  26.698  45.885  1.00  0.00    -0.356 OA
HETATM   45  C   UNL     1      -0.476  27.619  45.571  1.00  0.00     0.210 C 
ENDBRANCH  41  44
ENDBRANCH  37  38
ENDBRANCH  36  37
ENDBRANCH  33  36
ENDBRANCH   1  32
TORSDOF 9
ENDMDL
