MODEL 1
REMARK VINA RESULT:      -9.8      0.000      0.000
REMARK  5 active torsions:
REMARK  status: ('A' for Active; 'I' for Inactive)
REMARK    1  A    between atoms: C_2  and  O_3 
REMARK    2  A    between atoms: O_3  and  C_4 
REMARK    3  A    between atoms: C_5  and  C_6 
REMARK       I    between atoms: C_6  and  N_7 
REMARK    4  A    between atoms: N_10  and  C_11 
REMARK    5  A    between atoms: C_15  and  C_16 
ROOT
HETATM    1  C   UNL     1       6.451  31.609  58.910  1.00  0.00     0.256 C 
HETATM    2  N   UNL     1       6.283  30.408  58.212  1.00  0.00    -0.346 N 
HETATM    3  C   UNL     1       7.327  29.383  58.041  1.00  0.00     0.146 C 
HETATM    4  C   UNL     1       7.780  29.187  56.581  1.00  0.00     0.144 C 
HETATM    5  N   UNL     1       6.741  28.529  55.769  1.00  0.00    -0.365 N 
HETATM    6  C   UNL     1       5.739  29.382  55.118  1.00  0.00     0.126 C 
HETATM    7  C   UNL     1       5.308  30.591  55.947  1.00  0.00     0.040 C 
HETATM    8  C   UNL     1       5.065  30.249  57.416  1.00  0.00     0.127 C 
HETATM    9  O   UNL     1       5.646  32.537  58.868  1.00  0.00    -0.267 OA
ENDROOT
BRANCH   5  10
HETATM   10  C   UNL     1       6.688  27.163  55.696  1.00  0.00     0.122 A 
HETATM   11  N   UNL     1       5.941  26.389  56.545  1.00  0.00    -0.262 N 
HETATM   12  H   UNL     1       5.324  26.702  57.283  1.00  0.00     0.191 HD
HETATM   13  N   UNL     1       6.058  25.067  56.349  1.00  0.00    -0.173 NA
HETATM   14  C   UNL     1       6.886  24.959  55.297  1.00  0.00     0.090 A 
HETATM   15  C   UNL     1       7.282  26.250  54.849  1.00  0.00     0.084 A 
BRANCH  14  16
HETATM   16  C   UNL     1       7.282  23.647  54.769  1.00  0.00    -0.005 A 
HETATM   17  C   UNL     1       7.457  23.440  53.391  1.00  0.00     0.017 A 
HETATM   18  C   UNL     1       7.847  22.189  52.903  1.00  0.00     0.043 A 
HETATM   19  C   UNL     1       8.063  21.141  53.790  1.00  0.00     0.116 A 
HETATM   20  F   UNL     1       8.439  19.945  53.320  1.00  0.00    -0.206 F 
HETATM   21  C   UNL     1       7.894  21.318  55.156  1.00  0.00     0.043 A 
HETATM   22  C   UNL     1       7.503  22.568  55.644  1.00  0.00     0.017 A 
ENDBRANCH  14  16
ENDBRANCH   5  10
BRANCH   1  23
HETATM   23  C   UNL     1       7.619  31.759  59.804  1.00  0.00     0.065 A 
HETATM   24  C   UNL     1       7.465  31.720  61.194  1.00  0.00     0.084 A 
HETATM   25  C   UNL     1       8.588  31.850  62.016  1.00  0.00     0.038 A 
HETATM   26  C   UNL     1       9.860  31.968  61.452  1.00  0.00     0.003 A 
HETATM   27  C   UNL     1      10.017  31.962  60.065  1.00  0.00     0.001 A 
HETATM   28  C   UNL     1       8.899  31.853  59.238  1.00  0.00     0.020 A 
BRANCH  24  29
HETATM   29  O   UNL     1       6.208  31.630  61.733  1.00  0.00    -0.350 OA
BRANCH  29  30
HETATM   30  C   UNL     1       6.004  32.592  62.775  1.00  0.00     0.171 C 
HETATM   31  C   UNL     1       5.545  33.894  62.144  1.00  0.00     0.034 C 
ENDBRANCH  29  30
ENDBRANCH  24  29
ENDBRANCH   1  23
TORSDOF 5
ENDMDL
MODEL 2
REMARK VINA RESULT:      -9.7      1.018      2.453
REMARK  5 active torsions:
REMARK  status: ('A' for Active; 'I' for Inactive)
REMARK    1  A    between atoms: C_2  and  O_3 
REMARK    2  A    between atoms: O_3  and  C_4 
REMARK    3  A    between atoms: C_5  and  C_6 
REMARK       I    between atoms: C_6  and  N_7 
REMARK    4  A    between atoms: N_10  and  C_11 
REMARK    5  A    between atoms: C_15  and  C_16 
ROOT
HETATM    1  C   UNL     1       6.438  31.416  58.862  1.00  0.00     0.256 C 
HETATM    2  N   UNL     1       6.301  30.219  58.149  1.00  0.00    -0.346 N 
HETATM    3  C   UNL     1       7.312  29.148  58.105  1.00  0.00     0.146 C 
HETATM    4  C   UNL     1       7.928  28.924  56.710  1.00  0.00     0.144 C 
HETATM    5  N   UNL     1       6.966  28.308  55.779  1.00  0.00    -0.365 N 
HETATM    6  C   UNL     1       6.088  29.200  55.012  1.00  0.00     0.126 C 
HETATM    7  C   UNL     1       5.614  30.432  55.783  1.00  0.00     0.040 C 
HETATM    8  C   UNL     1       5.183  30.109  57.212  1.00  0.00     0.127 C 
HETATM    9  O   UNL     1       5.685  32.378  58.723  1.00  0.00    -0.267 OA
ENDROOT
BRANCH   5  10
HETATM   10  C   UNL     1       6.862  26.945  55.702  1.00  0.00     0.122 A 
HETATM   11  N   UNL     1       6.032  26.203  56.501  1.00  0.00    -0.262 N 
HETATM   12  H   UNL     1       5.384  26.542  57.200  1.00  0.00     0.191 HD
HETATM   13  N   UNL     1       6.108  24.877  56.311  1.00  0.00    -0.173 NA
HETATM   14  C   UNL     1       6.994  24.734  55.313  1.00  0.00     0.090 A 
HETATM   15  C   UNL     1       7.470  26.008  54.892  1.00  0.00     0.084 A 
BRANCH  14  16
HETATM   16  C   UNL     1       7.369  23.407  54.809  1.00  0.00    -0.005 A 
HETATM   17  C   UNL     1       7.548  22.320  55.680  1.00  0.00     0.017 A 
HETATM   18  C   UNL     1       7.893  21.059  55.184  1.00  0.00     0.043 A 
HETATM   19  C   UNL     1       8.061  20.880  53.816  1.00  0.00     0.116 A 
HETATM   20  F   UNL     1       8.388  19.670  53.344  1.00  0.00    -0.206 F 
HETATM   21  C   UNL     1       7.893  21.938  52.933  1.00  0.00     0.043 A 
HETATM   22  C   UNL     1       7.549  23.198  53.429  1.00  0.00     0.017 A 
ENDBRANCH  14  16
ENDBRANCH   5  10
BRANCH   1  23
HETATM   23  C   UNL     1       7.495  31.520  59.889  1.00  0.00     0.065 A 
HETATM   24  C   UNL     1       8.833  31.697  59.521  1.00  0.00     0.084 A 
HETATM   25  C   UNL     1       9.813  31.808  60.512  1.00  0.00     0.038 A 
HETATM   26  C   UNL     1       9.450  31.791  61.861  1.00  0.00     0.003 A 
HETATM   27  C   UNL     1       8.110  31.659  62.226  1.00  0.00     0.001 A 
HETATM   28  C   UNL     1       7.129  31.529  61.243  1.00  0.00     0.020 A 
BRANCH  24  29
HETATM   29  O   UNL     1       9.177  31.685  58.194  1.00  0.00    -0.350 OA
BRANCH  29  30
HETATM   30  C   UNL     1      10.593  31.553  58.010  1.00  0.00     0.171 C 
HETATM   31  C   UNL     1      10.868  30.213  57.355  1.00  0.00     0.034 C 
ENDBRANCH  29  30
ENDBRANCH  24  29
ENDBRANCH   1  23
TORSDOF 5
ENDMDL
MODEL 3
REMARK VINA RESULT:      -8.9      6.962     10.263
REMARK  5 active torsions:
REMARK  status: ('A' for Active; 'I' for Inactive)
REMARK    1  A    between atoms: C_2  and  O_3 
REMARK    2  A    between atoms: O_3  and  C_4 
REMARK    3  A    between atoms: C_5  and  C_6 
REMARK       I    between atoms: C_6  and  N_7 
REMARK    4  A    between atoms: N_10  and  C_11 
REMARK    5  A    between atoms: C_15  and  C_16 
ROOT
HETATM    1  C   UNL     1       3.727  29.228  47.676  1.00  0.00     0.256 C 
HETATM    2  N   UNL     1       4.289  28.632  48.810  1.00  0.00    -0.346 N 
HETATM    3  C   UNL     1       3.537  27.854  49.811  1.00  0.00     0.146 C 
HETATM    4  C   UNL     1       3.498  28.502  51.209  1.00  0.00     0.144 C 
HETATM    5  N   UNL     1       4.810  28.442  51.877  1.00  0.00    -0.365 N 
HETATM    6  C   UNL     1       5.754  29.539  51.631  1.00  0.00     0.126 C 
HETATM    7  C   UNL     1       5.728  30.083  50.203  1.00  0.00     0.040 C 
HETATM    8  C   UNL     1       5.670  28.980  49.148  1.00  0.00     0.127 C 
HETATM    9  O   UNL     1       4.322  30.039  46.969  1.00  0.00    -0.267 OA
ENDROOT
BRANCH   5  10
HETATM   10  C   UNL     1       5.142  27.355  52.640  1.00  0.00     0.122 A 
HETATM   11  N   UNL     1       4.625  27.120  53.888  1.00  0.00    -0.262 N 
HETATM   12  H   UNL     1       3.932  27.668  54.381  1.00  0.00     0.191 HD
HETATM   13  N   UNL     1       5.111  26.030  54.500  1.00  0.00    -0.173 NA
HETATM   14  C   UNL     1       5.954  25.493  53.604  1.00  0.00     0.090 A 
HETATM   15  C   UNL     1       5.982  26.283  52.420  1.00  0.00     0.084 A 
BRANCH  14  16
HETATM   16  C   UNL     1       6.710  24.271  53.904  1.00  0.00    -0.005 A 
HETATM   17  C   UNL     1       7.266  23.488  52.878  1.00  0.00     0.017 A 
HETATM   18  C   UNL     1       7.994  22.333  53.180  1.00  0.00     0.043 A 
HETATM   19  C   UNL     1       8.169  21.956  54.506  1.00  0.00     0.116 A 
HETATM   20  F   UNL     1       8.870  20.851  54.791  1.00  0.00    -0.206 F 
HETATM   21  C   UNL     1       7.628  22.710  55.538  1.00  0.00     0.043 A 
HETATM   22  C   UNL     1       6.899  23.863  55.238  1.00  0.00     0.017 A 
ENDBRANCH  14  16
ENDBRANCH   5  10
BRANCH   1  23
HETATM   23  C   UNL     1       2.371  28.819  47.251  1.00  0.00     0.065 A 
HETATM   24  C   UNL     1       2.112  27.502  46.859  1.00  0.00     0.084 A 
HETATM   25  C   UNL     1       0.817  27.138  46.476  1.00  0.00     0.038 A 
HETATM   26  C   UNL     1      -0.219  28.072  46.533  1.00  0.00     0.003 A 
HETATM   27  C   UNL     1       0.032  29.374  46.966  1.00  0.00     0.001 A 
HETATM   28  C   UNL     1       1.325  29.750  47.331  1.00  0.00     0.020 A 
BRANCH  24  29
HETATM   29  O   UNL     1       3.144  26.603  46.784  1.00  0.00    -0.350 OA
BRANCH  29  30
HETATM   30  C   UNL     1       2.673  25.249  46.769  1.00  0.00     0.171 C 
HETATM   31  C   UNL     1       3.050  24.595  48.086  1.00  0.00     0.034 C 
ENDBRANCH  29  30
ENDBRANCH  24  29
ENDBRANCH   1  23
TORSDOF 5
ENDMDL
MODEL 4
REMARK VINA RESULT:      -8.7      2.447      3.458
REMARK  5 active torsions:
REMARK  status: ('A' for Active; 'I' for Inactive)
REMARK    1  A    between atoms: C_2  and  O_3 
REMARK    2  A    between atoms: O_3  and  C_4 
REMARK    3  A    between atoms: C_5  and  C_6 
REMARK       I    between atoms: C_6  and  N_7 
REMARK    4  A    between atoms: N_10  and  C_11 
REMARK    5  A    between atoms: C_15  and  C_16 
ROOT
HETATM    1  C   UNL     1       3.448  31.098  57.065  1.00  0.00     0.256 C 
HETATM    2  N   UNL     1       4.108  29.949  56.617  1.00  0.00    -0.346 N 
HETATM    3  C   UNL     1       5.396  29.461  57.139  1.00  0.00     0.146 C 
HETATM    4  C   UNL     1       6.544  29.496  56.111  1.00  0.00     0.144 C 
HETATM    5  N   UNL     1       6.372  28.474  55.064  1.00  0.00    -0.365 N 
HETATM    6  C   UNL     1       5.586  28.835  53.878  1.00  0.00     0.126 C 
HETATM    7  C   UNL     1       4.387  29.738  54.169  1.00  0.00     0.040 C 
HETATM    8  C   UNL     1       3.601  29.304  55.404  1.00  0.00     0.127 C 
HETATM    9  O   UNL     1       2.489  31.602  56.483  1.00  0.00    -0.267 OA
ENDROOT
BRANCH   5  10
HETATM   10  C   UNL     1       6.876  27.214  55.244  1.00  0.00     0.122 A 
HETATM   11  N   UNL     1       7.423  26.780  56.424  1.00  0.00    -0.262 N 
HETATM   12  H   UNL     1       7.494  27.290  57.295  1.00  0.00     0.191 HD
HETATM   13  N   UNL     1       7.910  25.531  56.390  1.00  0.00    -0.173 NA
HETATM   14  C   UNL     1       7.636  25.100  55.149  1.00  0.00     0.090 A 
HETATM   15  C   UNL     1       6.970  26.118  54.411  1.00  0.00     0.084 A 
BRANCH  14  16
HETATM   16  C   UNL     1       8.026  23.756  54.703  1.00  0.00    -0.005 A 
HETATM   17  C   UNL     1       8.870  22.947  55.482  1.00  0.00     0.017 A 
HETATM   18  C   UNL     1       9.223  21.665  55.050  1.00  0.00     0.043 A 
HETATM   19  C   UNL     1       8.736  21.188  53.839  1.00  0.00     0.116 A 
HETATM   20  F   UNL     1       9.074  19.958  53.430  1.00  0.00    -0.206 F 
HETATM   21  C   UNL     1       7.903  21.968  53.049  1.00  0.00     0.043 A 
HETATM   22  C   UNL     1       7.551  23.250  53.480  1.00  0.00     0.017 A 
ENDBRANCH  14  16
ENDBRANCH   5  10
BRANCH   1  23
HETATM   23  C   UNL     1       3.871  31.713  58.341  1.00  0.00     0.065 A 
HETATM   24  C   UNL     1       4.800  32.759  58.357  1.00  0.00     0.084 A 
HETATM   25  C   UNL     1       5.173  33.333  59.576  1.00  0.00     0.038 A 
HETATM   26  C   UNL     1       4.582  32.898  60.765  1.00  0.00     0.003 A 
HETATM   27  C   UNL     1       3.623  31.885  60.743  1.00  0.00     0.001 A 
HETATM   28  C   UNL     1       3.261  31.294  59.532  1.00  0.00     0.020 A 
BRANCH  24  29
HETATM   29  O   UNL     1       5.390  33.157  57.185  1.00  0.00    -0.350 OA
BRANCH  29  30
HETATM   30  C   UNL     1       4.816  34.372  56.685  1.00  0.00     0.171 C 
HETATM   31  C   UNL     1       4.995  34.402  55.178  1.00  0.00     0.034 C 
ENDBRANCH  29  30
ENDBRANCH  24  29
ENDBRANCH   1  23
TORSDOF 5
ENDMDL
MODEL 5
REMARK VINA RESULT:      -8.6      6.073      8.249
REMARK  5 active torsions:
REMARK  status: ('A' for Active; 'I' for Inactive)
REMARK    1  A    between atoms: C_2  and  O_3 
REMARK    2  A    between atoms: O_3  and  C_4 
REMARK    3  A    between atoms: C_5  and  C_6 
REMARK       I    between atoms: C_6  and  N_7 
REMARK    4  A    between atoms: N_10  and  C_11 
REMARK    5  A    between atoms: C_15  and  C_16 
ROOT
HETATM    1  C   UNL     1       4.499  31.261  51.170  1.00  0.00     0.256 C 
HETATM    2  N   UNL     1       4.970  30.033  51.647  1.00  0.00    -0.346 N 
HETATM    3  C   UNL     1       5.472  28.938  50.798  1.00  0.00     0.146 C 
HETATM    4  C   UNL     1       4.606  27.664  50.841  1.00  0.00     0.144 C 
HETATM    5  N   UNL     1       4.724  26.964  52.132  1.00  0.00    -0.365 N 
HETATM    6  C   UNL     1       3.812  27.361  53.212  1.00  0.00     0.126 C 
HETATM    7  C   UNL     1       3.508  28.858  53.260  1.00  0.00     0.040 C 
HETATM    8  C   UNL     1       4.751  29.724  53.061  1.00  0.00     0.127 C 
HETATM    9  O   UNL     1       3.896  32.075  51.868  1.00  0.00    -0.267 OA
ENDROOT
BRANCH   5  10
HETATM   10  C   UNL     1       5.706  26.029  52.318  1.00  0.00     0.122 A 
HETATM   11  N   UNL     1       6.702  25.786  51.408  1.00  0.00    -0.262 N 
HETATM   12  H   UNL     1       6.866  26.264  50.532  1.00  0.00     0.191 HD
HETATM   13  N   UNL     1       7.541  24.796  51.746  1.00  0.00    -0.173 NA
HETATM   14  C   UNL     1       7.112  24.392  52.953  1.00  0.00     0.090 A 
HETATM   15  C   UNL     1       5.979  25.156  53.352  1.00  0.00     0.084 A 
BRANCH  14  16
HETATM   16  C   UNL     1       7.773  23.296  53.672  1.00  0.00    -0.005 A 
HETATM   17  C   UNL     1       7.958  22.039  53.072  1.00  0.00     0.017 A 
HETATM   18  C   UNL     1       8.600  21.008  53.765  1.00  0.00     0.043 A 
HETATM   19  C   UNL     1       9.059  21.229  55.058  1.00  0.00     0.116 A 
HETATM   20  F   UNL     1       9.676  20.240  55.717  1.00  0.00    -0.206 F 
HETATM   21  C   UNL     1       8.887  22.460  55.674  1.00  0.00     0.043 A 
HETATM   22  C   UNL     1       8.244  23.491  54.983  1.00  0.00     0.017 A 
ENDBRANCH  14  16
ENDBRANCH   5  10
BRANCH   1  23
HETATM   23  C   UNL     1       4.794  31.646  49.774  1.00  0.00     0.065 A 
HETATM   24  C   UNL     1       3.875  31.386  48.752  1.00  0.00     0.084 A 
HETATM   25  C   UNL     1       4.172  31.773  47.442  1.00  0.00     0.038 A 
HETATM   26  C   UNL     1       5.356  32.460  47.165  1.00  0.00     0.003 A 
HETATM   27  C   UNL     1       6.251  32.759  48.193  1.00  0.00     0.001 A 
HETATM   28  C   UNL     1       5.971  32.358  49.499  1.00  0.00     0.020 A 
BRANCH  24  29
HETATM   29  O   UNL     1       2.730  30.687  49.034  1.00  0.00    -0.350 OA
BRANCH  29  30
HETATM   30  C   UNL     1       2.614  29.505  48.232  1.00  0.00     0.171 C 
HETATM   31  C   UNL     1       1.619  28.571  48.895  1.00  0.00     0.034 C 
ENDBRANCH  29  30
ENDBRANCH  24  29
ENDBRANCH   1  23
TORSDOF 5
ENDMDL
MODEL 6
REMARK VINA RESULT:      -8.6      4.937     10.738
REMARK  5 active torsions:
REMARK  status: ('A' for Active; 'I' for Inactive)
REMARK    1  A    between atoms: C_2  and  O_3 
REMARK    2  A    between atoms: O_3  and  C_4 
REMARK    3  A    between atoms: C_5  and  C_6 
REMARK       I    between atoms: C_6  and  N_7 
REMARK    4  A    between atoms: N_10  and  C_11 
REMARK    5  A    between atoms: C_15  and  C_16 
ROOT
HETATM    1  C   UNL     1       7.487  29.670  57.117  1.00  0.00     0.256 C 
HETATM    2  N   UNL     1       7.366  30.191  58.410  1.00  0.00    -0.346 N 
HETATM    3  C   UNL     1       6.174  30.886  58.927  1.00  0.00     0.146 C 
HETATM    4  C   UNL     1       6.411  32.372  59.263  1.00  0.00     0.144 C 
HETATM    5  N   UNL     1       7.254  32.535  60.460  1.00  0.00    -0.365 N 
HETATM    6  C   UNL     1       8.710  32.567  60.274  1.00  0.00     0.126 C 
HETATM    7  C   UNL     1       9.226  31.624  59.187  1.00  0.00     0.040 C 
HETATM    8  C   UNL     1       8.572  30.245  59.237  1.00  0.00     0.127 C 
HETATM    9  O   UNL     1       8.551  29.282  56.638  1.00  0.00    -0.267 OA
ENDROOT
BRANCH   5  10
HETATM   10  C   UNL     1       6.680  32.582  61.702  1.00  0.00     0.122 A 
HETATM   11  N   UNL     1       5.630  31.786  62.081  1.00  0.00    -0.262 N 
HETATM   12  H   UNL     1       5.178  31.062  61.537  1.00  0.00     0.191 HD
HETATM   13  N   UNL     1       5.173  32.014  63.321  1.00  0.00    -0.173 NA
HETATM   14  C   UNL     1       5.980  32.971  63.804  1.00  0.00     0.090 A 
HETATM   15  C   UNL     1       6.950  33.335  62.826  1.00  0.00     0.084 A 
BRANCH  14  16
HETATM   16  C   UNL     1       5.797  33.515  65.155  1.00  0.00    -0.005 A 
HETATM   17  C   UNL     1       4.515  33.769  65.670  1.00  0.00     0.017 A 
HETATM   18  C   UNL     1       4.357  34.277  66.964  1.00  0.00     0.043 A 
HETATM   19  C   UNL     1       5.477  34.531  67.746  1.00  0.00     0.116 A 
HETATM   20  F   UNL     1       5.320  35.014  68.985  1.00  0.00    -0.206 F 
HETATM   21  C   UNL     1       6.754  34.292  67.260  1.00  0.00     0.043 A 
HETATM   22  C   UNL     1       6.914  33.787  65.967  1.00  0.00     0.017 A 
ENDBRANCH  14  16
ENDBRANCH   5  10
BRANCH   1  23
HETATM   23  C   UNL     1       6.270  29.508  56.294  1.00  0.00     0.065 A 
HETATM   24  C   UNL     1       5.668  28.254  56.148  1.00  0.00     0.084 A 
HETATM   25  C   UNL     1       4.509  28.131  55.376  1.00  0.00     0.038 A 
HETATM   26  C   UNL     1       3.929  29.261  54.797  1.00  0.00     0.003 A 
HETATM   27  C   UNL     1       4.505  30.519  54.981  1.00  0.00     0.001 A 
HETATM   28  C   UNL     1       5.673  30.647  55.733  1.00  0.00     0.020 A 
BRANCH  24  29
HETATM   29  O   UNL     1       6.263  27.150  56.701  1.00  0.00    -0.350 OA
BRANCH  29  30
HETATM   30  C   UNL     1       6.014  25.967  55.930  1.00  0.00     0.171 C 
HETATM   31  C   UNL     1       7.321  25.521  55.301  1.00  0.00     0.034 C 
ENDBRANCH  29  30
ENDBRANCH  24  29
ENDBRANCH   1  23
TORSDOF 5
ENDMDL
MODEL 7
REMARK VINA RESULT:      -8.6      5.532      6.874
REMARK  5 active torsions:
REMARK  status: ('A' for Active; 'I' for Inactive)
REMARK    1  A    between atoms: C_2  and  O_3 
REMARK    2  A    between atoms: O_3  and  C_4 
REMARK    3  A    between atoms: C_5  and  C_6 
REMARK       I    between atoms: C_6  and  N_7 
REMARK    4  A    between atoms: N_10  and  C_11 
REMARK    5  A    between atoms: C_15  and  C_16 
ROOT
HETATM    1  C   UNL     1       3.302  31.135  50.506  1.00  0.00     0.256 C 
HETATM    2  N   UNL     1       3.617  29.820  50.866  1.00  0.00    -0.346 N 
HETATM    3  C   UNL     1       4.839  29.413  51.581  1.00  0.00     0.146 C 
HETATM    4  C   UNL     1       5.781  28.517  50.754  1.00  0.00     0.144 C 
HETATM    5  N   UNL     1       5.223  27.166  50.562  1.00  0.00    -0.365 N 
HETATM    6  C   UNL     1       4.347  26.945  49.405  1.00  0.00     0.126 C 
HETATM    7  C   UNL     1       3.435  28.126  49.073  1.00  0.00     0.040 C 
HETATM    8  C   UNL     1       2.790  28.747  50.311  1.00  0.00     0.127 C 
HETATM    9  O   UNL     1       2.390  31.428  49.736  1.00  0.00    -0.267 OA
ENDROOT
BRANCH   5  10
HETATM   10  C   UNL     1       5.469  26.185  51.484  1.00  0.00     0.122 A 
HETATM   11  N   UNL     1       4.527  25.721  52.365  1.00  0.00    -0.262 N 
HETATM   12  H   UNL     1       3.556  25.997  52.431  1.00  0.00     0.191 HD
HETATM   13  N   UNL     1       4.972  24.793  53.225  1.00  0.00    -0.173 NA
HETATM   14  C   UNL     1       6.253  24.600  52.874  1.00  0.00     0.090 A 
HETATM   15  C   UNL     1       6.592  25.437  51.774  1.00  0.00     0.084 A 
BRANCH  14  16
HETATM   16  C   UNL     1       7.108  23.649  53.596  1.00  0.00    -0.005 A 
HETATM   17  C   UNL     1       7.903  22.717  52.908  1.00  0.00     0.017 A 
HETATM   18  C   UNL     1       8.722  21.826  53.609  1.00  0.00     0.043 A 
HETATM   19  C   UNL     1       8.750  21.864  54.998  1.00  0.00     0.116 A 
HETATM   20  F   UNL     1       9.538  21.012  55.666  1.00  0.00    -0.206 F 
HETATM   21  C   UNL     1       7.973  22.774  55.702  1.00  0.00     0.043 A 
HETATM   22  C   UNL     1       7.153  23.663  55.002  1.00  0.00     0.017 A 
ENDBRANCH  14  16
ENDBRANCH   5  10
BRANCH   1  23
HETATM   23  C   UNL     1       4.052  32.245  51.129  1.00  0.00     0.065 A 
HETATM   24  C   UNL     1       3.723  32.699  52.411  1.00  0.00     0.084 A 
HETATM   25  C   UNL     1       4.458  33.742  52.984  1.00  0.00     0.038 A 
HETATM   26  C   UNL     1       5.545  34.291  52.300  1.00  0.00     0.003 A 
HETATM   27  C   UNL     1       5.900  33.807  51.041  1.00  0.00     0.001 A 
HETATM   28  C   UNL     1       5.159  32.781  50.455  1.00  0.00     0.020 A 
BRANCH  24  29
HETATM   29  O   UNL     1       2.638  32.168  53.058  1.00  0.00    -0.350 OA
BRANCH  29  30
HETATM   30  C   UNL     1       2.854  32.071  54.472  1.00  0.00     0.171 C 
HETATM   31  C   UNL     1       3.341  30.669  54.787  1.00  0.00     0.034 C 
ENDBRANCH  29  30
ENDBRANCH  24  29
ENDBRANCH   1  23
TORSDOF 5
ENDMDL
MODEL 8
REMARK VINA RESULT:      -8.5      7.146     10.136
REMARK  5 active torsions:
REMARK  status: ('A' for Active; 'I' for Inactive)
REMARK    1  A    between atoms: C_2  and  O_3 
REMARK    2  A    between atoms: O_3  and  C_4 
REMARK    3  A    between atoms: C_5  and  C_6 
REMARK       I    between atoms: C_6  and  N_7 
REMARK    4  A    between atoms: N_10  and  C_11 
REMARK    5  A    between atoms: C_15  and  C_16 
ROOT
HETATM    1  C   UNL     1       3.379  29.283  47.421  1.00  0.00     0.256 C 
HETATM    2  N   UNL     1       3.991  28.598  48.476  1.00  0.00    -0.346 N 
HETATM    3  C   UNL     1       3.276  27.793  49.482  1.00  0.00     0.146 C 
HETATM    4  C   UNL     1       3.363  28.356  50.914  1.00  0.00     0.144 C 
HETATM    5  N   UNL     1       4.714  28.202  51.482  1.00  0.00    -0.365 N 
HETATM    6  C   UNL     1       5.688  29.272  51.232  1.00  0.00     0.126 C 
HETATM    7  C   UNL     1       5.588  29.902  49.842  1.00  0.00     0.040 C 
HETATM    8  C   UNL     1       5.407  28.868  48.733  1.00  0.00     0.127 C 
HETATM    9  O   UNL     1       3.961  30.110  46.721  1.00  0.00    -0.267 OA
ENDROOT
BRANCH   5  10
HETATM   10  C   UNL     1       5.049  27.059  52.156  1.00  0.00     0.122 A 
HETATM   11  N   UNL     1       4.139  26.278  52.820  1.00  0.00    -0.262 N 
HETATM   12  H   UNL     1       3.137  26.408  52.872  1.00  0.00     0.191 HD
HETATM   13  N   UNL     1       4.667  25.226  53.463  1.00  0.00    -0.173 NA
HETATM   14  C   UNL     1       5.977  25.284  53.179  1.00  0.00     0.090 A 
HETATM   15  C   UNL     1       6.250  26.406  52.345  1.00  0.00     0.084 A 
BRANCH  14  16
HETATM   16  C   UNL     1       6.921  24.296  53.716  1.00  0.00    -0.005 A 
HETATM   17  C   UNL     1       7.184  24.214  55.093  1.00  0.00     0.017 A 
HETATM   18  C   UNL     1       8.076  23.259  55.591  1.00  0.00     0.043 A 
HETATM   19  C   UNL     1       8.707  22.384  54.716  1.00  0.00     0.116 A 
HETATM   20  F   UNL     1       9.558  21.468  55.197  1.00  0.00    -0.206 F 
HETATM   21  C   UNL     1       8.466  22.444  53.351  1.00  0.00     0.043 A 
HETATM   22  C   UNL     1       7.576  23.400  52.852  1.00  0.00     0.017 A 
ENDBRANCH  14  16
ENDBRANCH   5  10
BRANCH   1  23
HETATM   23  C   UNL     1       1.981  28.957  47.072  1.00  0.00     0.065 A 
HETATM   24  C   UNL     1       0.989  29.943  47.098  1.00  0.00     0.084 A 
HETATM   25  C   UNL     1      -0.324  29.612  46.750  1.00  0.00     0.038 A 
HETATM   26  C   UNL     1      -0.631  28.315  46.330  1.00  0.00     0.003 A 
HETATM   27  C   UNL     1       0.368  27.344  46.261  1.00  0.00     0.001 A 
HETATM   28  C   UNL     1       1.676  27.662  46.627  1.00  0.00     0.020 A 
BRANCH  24  29
HETATM   29  O   UNL     1       1.301  31.204  47.537  1.00  0.00    -0.350 OA
BRANCH  29  30
HETATM   30  C   UNL     1       0.441  31.625  48.604  1.00  0.00     0.171 C 
HETATM   31  C   UNL     1       0.993  31.079  49.908  1.00  0.00     0.034 C 
ENDBRANCH  29  30
ENDBRANCH  24  29
ENDBRANCH   1  23
TORSDOF 5
ENDMDL
MODEL 9
REMARK VINA RESULT:      -8.5      5.370      8.455
REMARK  5 active torsions:
REMARK  status: ('A' for Active; 'I' for Inactive)
REMARK    1  A    between atoms: C_2  and  O_3 
REMARK    2  A    between atoms: O_3  and  C_4 
REMARK    3  A    between atoms: C_5  and  C_6 
REMARK       I    between atoms: C_6  and  N_7 
REMARK    4  A    between atoms: N_10  and  C_11 
REMARK    5  A    between atoms: C_15  and  C_16 
ROOT
HETATM    1  C   UNL     1       5.022  36.833  64.104  1.00  0.00     0.256 C 
HETATM    2  N   UNL     1       5.663  35.668  63.667  1.00  0.00    -0.346 N 
HETATM    3  C   UNL     1       5.817  35.273  62.256  1.00  0.00     0.146 C 
HETATM    4  C   UNL     1       5.059  33.985  61.878  1.00  0.00     0.144 C 
HETATM    5  N   UNL     1       5.681  32.789  62.473  1.00  0.00    -0.365 N 
HETATM    6  C   UNL     1       5.251  32.392  63.820  1.00  0.00     0.126 C 
HETATM    7  C   UNL     1       4.963  33.563  64.759  1.00  0.00     0.040 C 
HETATM    8  C   UNL     1       6.015  34.667  64.674  1.00  0.00     0.127 C 
HETATM    9  O   UNL     1       4.722  37.043  65.277  1.00  0.00    -0.267 OA
ENDROOT
BRANCH   5  10
HETATM   10  C   UNL     1       6.675  32.128  61.804  1.00  0.00     0.122 A 
HETATM   11  N   UNL     1       7.755  31.557  62.426  1.00  0.00    -0.262 N 
HETATM   12  H   UNL     1       7.942  31.512  63.420  1.00  0.00     0.191 HD
HETATM   13  N   UNL     1       8.649  30.998  61.597  1.00  0.00    -0.173 NA
HETATM   14  C   UNL     1       8.121  31.166  60.375  1.00  0.00     0.090 A 
HETATM   15  C   UNL     1       6.875  31.850  60.468  1.00  0.00     0.084 A 
BRANCH  14  16
HETATM   16  C   UNL     1       8.815  30.693  59.170  1.00  0.00    -0.005 A 
HETATM   17  C   UNL     1       8.347  29.582  58.450  1.00  0.00     0.017 A 
HETATM   18  C   UNL     1       9.012  29.151  57.297  1.00  0.00     0.043 A 
HETATM   19  C   UNL     1      10.145  29.828  56.862  1.00  0.00     0.116 A 
HETATM   20  F   UNL     1      10.777  29.414  55.756  1.00  0.00    -0.206 F 
HETATM   21  C   UNL     1      10.629  30.927  57.557  1.00  0.00     0.043 A 
HETATM   22  C   UNL     1       9.966  31.357  58.710  1.00  0.00     0.017 A 
ENDBRANCH  14  16
ENDBRANCH   5  10
BRANCH   1  23
HETATM   23  C   UNL     1       4.746  37.907  63.126  1.00  0.00     0.065 A 
HETATM   24  C   UNL     1       5.652  38.957  62.944  1.00  0.00     0.084 A 
HETATM   25  C   UNL     1       5.374  39.953  62.003  1.00  0.00     0.038 A 
HETATM   26  C   UNL     1       4.223  39.871  61.215  1.00  0.00     0.003 A 
HETATM   27  C   UNL     1       3.343  38.799  61.367  1.00  0.00     0.001 A 
HETATM   28  C   UNL     1       3.604  37.812  62.318  1.00  0.00     0.020 A 
BRANCH  24  29
HETATM   29  O   UNL     1       6.763  39.038  63.742  1.00  0.00    -0.350 OA
BRANCH  29  30
HETATM   30  C   UNL     1       6.878  40.322  64.369  1.00  0.00     0.171 C 
HETATM   31  C   UNL     1       6.116  40.285  65.681  1.00  0.00     0.034 C 
ENDBRANCH  29  30
ENDBRANCH  24  29
ENDBRANCH   1  23
TORSDOF 5
ENDMDL
MODEL 10
REMARK VINA RESULT:      -8.5      6.514      7.678
REMARK  5 active torsions:
REMARK  status: ('A' for Active; 'I' for Inactive)
REMARK    1  A    between atoms: C_2  and  O_3 
REMARK    2  A    between atoms: O_3  and  C_4 
REMARK    3  A    between atoms: C_5  and  C_6 
REMARK       I    between atoms: C_6  and  N_7 
REMARK    4  A    between atoms: N_10  and  C_11 
REMARK    5  A    between atoms: C_15  and  C_16 
ROOT
HETATM    1  C   UNL     1       3.361  31.193  50.471  1.00  0.00     0.256 C 
HETATM    2  N   UNL     1       3.667  29.872  50.814  1.00  0.00    -0.346 N 
HETATM    3  C   UNL     1       4.854  29.455  51.580  1.00  0.00     0.146 C 
HETATM    4  C   UNL     1       5.844  28.585  50.780  1.00  0.00     0.144 C 
HETATM    5  N   UNL     1       5.306  27.237  50.528  1.00  0.00    -0.365 N 
HETATM    6  C   UNL     1       4.491  27.039  49.323  1.00  0.00     0.126 C 
HETATM    7  C   UNL     1       3.588  28.222  48.973  1.00  0.00     0.040 C 
HETATM    8  C   UNL     1       2.877  28.808  50.191  1.00  0.00     0.127 C 
HETATM    9  O   UNL     1       2.487  31.500  49.662  1.00  0.00    -0.267 OA
ENDROOT
BRANCH   5  10
HETATM   10  C   UNL     1       5.512  26.234  51.437  1.00  0.00     0.122 A 
HETATM   11  N   UNL     1       4.527  25.736  52.250  1.00  0.00    -0.262 N 
HETATM   12  H   UNL     1       3.550  25.998  52.267  1.00  0.00     0.191 HD
HETATM   13  N   UNL     1       4.935  24.791  53.110  1.00  0.00    -0.173 NA
HETATM   14  C   UNL     1       6.236  24.622  52.828  1.00  0.00     0.090 A 
HETATM   15  C   UNL     1       6.627  25.493  51.771  1.00  0.00     0.084 A 
BRANCH  14  16
HETATM   16  C   UNL     1       7.062  23.663  53.573  1.00  0.00    -0.005 A 
HETATM   17  C   UNL     1       7.903  22.755  52.908  1.00  0.00     0.017 A 
HETATM   18  C   UNL     1       8.692  21.856  53.632  1.00  0.00     0.043 A 
HETATM   19  C   UNL     1       8.645  21.862  55.020  1.00  0.00     0.116 A 
HETATM   20  F   UNL     1       9.405  21.001  55.710  1.00  0.00    -0.206 F 
HETATM   21  C   UNL     1       7.821  22.746  55.702  1.00  0.00     0.043 A 
HETATM   22  C   UNL     1       7.030  23.644  54.979  1.00  0.00     0.017 A 
ENDBRANCH  14  16
ENDBRANCH   5  10
BRANCH   1  23
HETATM   23  C   UNL     1       4.071  32.293  51.158  1.00  0.00     0.065 A 
HETATM   24  C   UNL     1       5.257  32.816  50.633  1.00  0.00     0.084 A 
HETATM   25  C   UNL     1       5.901  33.866  51.296  1.00  0.00     0.038 A 
HETATM   26  C   UNL     1       5.335  34.420  52.446  1.00  0.00     0.003 A 
HETATM   27  C   UNL     1       4.129  33.927  52.943  1.00  0.00     0.001 A 
HETATM   28  C   UNL     1       3.491  32.866  52.299  1.00  0.00     0.020 A 
BRANCH  24  29
HETATM   29  O   UNL     1       5.813  32.244  49.519  1.00  0.00    -0.350 OA
BRANCH  29  30
HETATM   30  C   UNL     1       5.741  33.113  48.381  1.00  0.00     0.171 C 
HETATM   31  C   UNL     1       7.155  33.457  47.950  1.00  0.00     0.034 C 
ENDBRANCH  29  30
ENDBRANCH  24  29
ENDBRANCH   1  23
TORSDOF 5
ENDMDL
