MODEL 1
REMARK VINA RESULT:      -9.4      0.000      0.000
REMARK  6 active torsions:
REMARK  status: ('A' for Active; 'I' for Inactive)
REMARK    1  A    between atoms: C_2  and  C_3 
REMARK    2  A    between atoms: C_3  and  C_4 
REMARK    3  A    between atoms: C_4  and  C_5 
REMARK    4  A    between atoms: C_4  and  C_21 
REMARK       I    between atoms: C_5  and  N_6 
REMARK    5  A    between atoms: N_6  and  C_7 
REMARK    6  A    between atoms: C_14  and  C_15 
REMARK       I    between atoms: C_15  and  N_16 
ROOT
HETATM    1  C   UNL     1       6.960  27.613  56.112  1.00  0.00     0.035 A 
HETATM    2  C   UNL     1       7.722  28.408  56.979  1.00  0.00     0.046 A 
HETATM    3  C   UNL     1       7.099  29.467  57.675  1.00  0.00     0.030 A 
HETATM    4  C   UNL     1       5.753  29.722  57.441  1.00  0.00     0.063 A 
HETATM    5  N   UNL     1       5.452  30.807  58.216  1.00  0.00    -0.277 N 
HETATM    6  H   UNL     1       4.559  31.284  58.282  1.00  0.00     0.189 HD
HETATM    7  N   UNL     1       6.465  31.246  58.979  1.00  0.00    -0.168 NA
HETATM    8  C   UNL     1       7.489  30.421  58.663  1.00  0.00     0.156 A 
HETATM    9  C   UNL     1       4.968  28.954  56.578  1.00  0.00     0.034 A 
HETATM   10  C   UNL     1       5.596  27.877  55.940  1.00  0.00     0.032 A 
ENDROOT
BRANCH   1  11
HETATM   11  N   UNL     1       7.493  26.502  55.427  1.00  0.00    -0.327 N 
HETATM   12  C   UNL     1       7.091  25.181  55.566  1.00  0.00     0.231 C 
HETATM   13  O   UNL     1       6.259  24.802  56.388  1.00  0.00    -0.272 OA
HETATM   14  H   UNL     1       8.343  26.672  54.906  1.00  0.00     0.169 HD
BRANCH  12  15
HETATM   15  C   UNL     1       7.700  24.206  54.529  1.00  0.00     0.115 C 
BRANCH  15  16
HETATM   16  C   UNL     1       7.010  24.212  53.124  1.00  0.00    -0.001 C 
HETATM   17  C   UNL     1       7.816  25.041  52.113  1.00  0.00     0.011 C 
BRANCH  16  18
HETATM   18  C   UNL     1       5.524  24.640  53.160  1.00  0.00     0.001 C 
HETATM   19  C   UNL     1       5.197  25.814  52.245  1.00  0.00     0.005 C 
ENDBRANCH  16  18
ENDBRANCH  15  16
BRANCH  15  20
HETATM   20  C   UNL     1       7.940  22.777  55.026  1.00  0.00    -0.045 A 
HETATM   21  C   UNL     1       7.804  21.707  54.125  1.00  0.00     0.008 A 
HETATM   22  C   UNL     1       8.030  20.393  54.536  1.00  0.00     0.001 A 
HETATM   23  C   UNL     1       8.390  20.128  55.855  1.00  0.00     0.000 A 
HETATM   24  C   UNL     1       8.519  21.175  56.763  1.00  0.00     0.001 A 
HETATM   25  C   UNL     1       8.294  22.492  56.354  1.00  0.00     0.008 A 
ENDBRANCH  15  20
ENDBRANCH  12  15
ENDBRANCH   1  11
BRANCH   8  26
HETATM   26  C   UNL     1       8.794  30.537  59.330  1.00  0.00     0.270 C 
HETATM   27  N   UNL     1       9.760  31.133  58.565  1.00  0.00    -0.365 N 
HETATM   28  H   UNL     1       9.506  31.470  57.643  1.00  0.00     0.159 HD
HETATM   29  H   UNL     1      10.670  31.308  58.961  1.00  0.00     0.159 HD
HETATM   30  O   UNL     1       9.030  30.171  60.476  1.00  0.00    -0.266 OA
ENDBRANCH   8  26
TORSDOF 6
ENDMDL
MODEL 2
REMARK VINA RESULT:      -9.2      4.228      6.755
REMARK  6 active torsions:
REMARK  status: ('A' for Active; 'I' for Inactive)
REMARK    1  A    between atoms: C_2  and  C_3 
REMARK    2  A    between atoms: C_3  and  C_4 
REMARK    3  A    between atoms: C_4  and  C_5 
REMARK    4  A    between atoms: C_4  and  C_21 
REMARK       I    between atoms: C_5  and  N_6 
REMARK    5  A    between atoms: N_6  and  C_7 
REMARK    6  A    between atoms: C_14  and  C_15 
REMARK       I    between atoms: C_15  and  N_16 
ROOT
HETATM    1  C   UNL     1       4.964  26.527  52.422  1.00  0.00     0.035 A 
HETATM    2  C   UNL     1       4.973  26.438  51.023  1.00  0.00     0.046 A 
HETATM    3  C   UNL     1       4.726  27.597  50.255  1.00  0.00     0.030 A 
HETATM    4  C   UNL     1       4.432  28.786  50.911  1.00  0.00     0.063 A 
HETATM    5  N   UNL     1       4.209  29.700  49.919  1.00  0.00    -0.277 N 
HETATM    6  H   UNL     1       3.949  30.673  50.030  1.00  0.00     0.189 HD
HETATM    7  N   UNL     1       4.389  29.228  48.675  1.00  0.00    -0.168 NA
HETATM    8  C   UNL     1       4.719  27.930  48.866  1.00  0.00     0.156 A 
HETATM    9  C   UNL     1       4.408  28.905  52.302  1.00  0.00     0.034 A 
HETATM   10  C   UNL     1       4.708  27.755  53.043  1.00  0.00     0.032 A 
ENDROOT
BRANCH   1  11
HETATM   11  N   UNL     1       5.260  25.431  53.259  1.00  0.00    -0.327 N 
HETATM   12  C   UNL     1       6.507  25.100  53.769  1.00  0.00     0.231 C 
HETATM   13  O   UNL     1       7.545  25.689  53.475  1.00  0.00    -0.272 OA
HETATM   14  H   UNL     1       4.522  24.747  53.366  1.00  0.00     0.169 HD
BRANCH  12  15
HETATM   15  C   UNL     1       6.494  23.976  54.835  1.00  0.00     0.115 C 
BRANCH  15  16
HETATM   16  C   UNL     1       6.791  24.443  56.298  1.00  0.00    -0.001 C 
HETATM   17  C   UNL     1       5.610  25.236  56.879  1.00  0.00     0.011 C 
BRANCH  16  18
HETATM   18  C   UNL     1       8.125  25.210  56.451  1.00  0.00     0.001 C 
HETATM   19  C   UNL     1       9.092  24.574  57.443  1.00  0.00     0.005 C 
ENDBRANCH  16  18
ENDBRANCH  15  16
BRANCH  15  20
HETATM   20  C   UNL     1       7.291  22.717  54.478  1.00  0.00    -0.045 A 
HETATM   21  C   UNL     1       7.590  21.788  55.489  1.00  0.00     0.008 A 
HETATM   22  C   UNL     1       8.300  20.622  55.200  1.00  0.00     0.001 A 
HETATM   23  C   UNL     1       8.727  20.370  53.899  1.00  0.00     0.000 A 
HETATM   24  C   UNL     1       8.448  21.286  52.888  1.00  0.00     0.001 A 
HETATM   25  C   UNL     1       7.736  22.454  53.173  1.00  0.00     0.008 A 
ENDBRANCH  15  20
ENDBRANCH  12  15
ENDBRANCH   1  11
BRANCH   8  26
HETATM   26  C   UNL     1       5.052  27.054  47.734  1.00  0.00     0.270 C 
HETATM   27  N   UNL     1       6.206  27.398  47.083  1.00  0.00    -0.365 N 
HETATM   28  H   UNL     1       6.745  28.180  47.437  1.00  0.00     0.159 HD
HETATM   29  H   UNL     1       6.543  26.820  46.330  1.00  0.00     0.159 HD
HETATM   30  O   UNL     1       4.396  26.078  47.387  1.00  0.00    -0.266 OA
ENDBRANCH   8  26
TORSDOF 6
ENDMDL
MODEL 3
REMARK VINA RESULT:      -9.1      1.898      3.368
REMARK  6 active torsions:
REMARK  status: ('A' for Active; 'I' for Inactive)
REMARK    1  A    between atoms: C_2  and  C_3 
REMARK    2  A    between atoms: C_3  and  C_4 
REMARK    3  A    between atoms: C_4  and  C_5 
REMARK    4  A    between atoms: C_4  and  C_21 
REMARK       I    between atoms: C_5  and  N_6 
REMARK    5  A    between atoms: N_6  and  C_7 
REMARK    6  A    between atoms: C_14  and  C_15 
REMARK       I    between atoms: C_15  and  N_16 
ROOT
HETATM    1  C   UNL     1       8.670  29.174  56.537  1.00  0.00     0.035 A 
HETATM    2  C   UNL     1       7.932  29.909  57.474  1.00  0.00     0.046 A 
HETATM    3  C   UNL     1       8.592  30.856  58.287  1.00  0.00     0.030 A 
HETATM    4  C   UNL     1       9.969  30.996  58.168  1.00  0.00     0.063 A 
HETATM    5  N   UNL     1      10.316  31.942  59.092  1.00  0.00    -0.277 N 
HETATM    6  H   UNL     1      11.248  32.284  59.300  1.00  0.00     0.189 HD
HETATM    7  N   UNL     1       9.281  32.473  59.763  1.00  0.00    -0.168 NA
HETATM    8  C   UNL     1       8.206  31.818  59.269  1.00  0.00     0.156 A 
HETATM    9  C   UNL     1      10.734  30.274  57.251  1.00  0.00     0.034 A 
HETATM   10  C   UNL     1      10.050  29.380  56.419  1.00  0.00     0.032 A 
ENDROOT
BRANCH   1  11
HETATM   11  N   UNL     1       8.077  28.254  55.648  1.00  0.00    -0.327 N 
HETATM   12  C   UNL     1       7.909  26.894  55.864  1.00  0.00     0.231 C 
HETATM   13  O   UNL     1       8.347  26.298  56.846  1.00  0.00    -0.272 OA
HETATM   14  H   UNL     1       7.900  28.597  54.713  1.00  0.00     0.169 HD
BRANCH  12  15
HETATM   15  C   UNL     1       7.030  26.174  54.811  1.00  0.00     0.115 C 
BRANCH  15  16
HETATM   16  C   UNL     1       5.486  26.332  55.015  1.00  0.00    -0.001 C 
HETATM   17  C   UNL     1       4.891  27.326  54.007  1.00  0.00     0.011 C 
BRANCH  16  18
HETATM   18  C   UNL     1       5.079  26.675  56.467  1.00  0.00     0.001 C 
HETATM   19  C   UNL     1       4.804  25.454  57.337  1.00  0.00     0.005 C 
ENDBRANCH  16  18
ENDBRANCH  15  16
BRANCH  15  20
HETATM   20  C   UNL     1       7.408  24.719  54.517  1.00  0.00    -0.045 A 
HETATM   21  C   UNL     1       7.873  24.380  53.235  1.00  0.00     0.008 A 
HETATM   22  C   UNL     1       8.244  23.069  52.933  1.00  0.00     0.001 A 
HETATM   23  C   UNL     1       8.149  22.077  53.905  1.00  0.00     0.000 A 
HETATM   24  C   UNL     1       7.681  22.394  55.177  1.00  0.00     0.001 A 
HETATM   25  C   UNL     1       7.310  23.706  55.483  1.00  0.00     0.008 A 
ENDBRANCH  15  20
ENDBRANCH  12  15
ENDBRANCH   1  11
BRANCH   8  26
HETATM   26  C   UNL     1       6.844  32.147  59.714  1.00  0.00     0.270 C 
HETATM   27  N   UNL     1       6.558  31.731  60.987  1.00  0.00    -0.365 N 
HETATM   28  H   UNL     1       7.289  31.276  61.521  1.00  0.00     0.159 HD
HETATM   29  H   UNL     1       5.668  31.965  61.397  1.00  0.00     0.159 HD
HETATM   30  O   UNL     1       6.018  32.761  59.047  1.00  0.00    -0.266 OA
ENDBRANCH   8  26
TORSDOF 6
ENDMDL
MODEL 4
REMARK VINA RESULT:      -8.9      4.314      7.608
REMARK  6 active torsions:
REMARK  status: ('A' for Active; 'I' for Inactive)
REMARK    1  A    between atoms: C_2  and  C_3 
REMARK    2  A    between atoms: C_3  and  C_4 
REMARK    3  A    between atoms: C_4  and  C_5 
REMARK    4  A    between atoms: C_4  and  C_21 
REMARK       I    between atoms: C_5  and  N_6 
REMARK    5  A    between atoms: N_6  and  C_7 
REMARK    6  A    between atoms: C_14  and  C_15 
REMARK       I    between atoms: C_15  and  N_16 
ROOT
HETATM    1  C   UNL     1       5.167  26.033  51.445  1.00  0.00     0.035 A 
HETATM    2  C   UNL     1       4.432  25.604  50.332  1.00  0.00     0.046 A 
HETATM    3  C   UNL     1       4.230  26.490  49.252  1.00  0.00     0.030 A 
HETATM    4  C   UNL     1       4.726  27.785  49.346  1.00  0.00     0.063 A 
HETATM    5  N   UNL     1       4.348  28.401  48.186  1.00  0.00    -0.277 N 
HETATM    6  H   UNL     1       4.521  29.364  47.918  1.00  0.00     0.189 HD
HETATM    7  N   UNL     1       3.700  27.608  47.318  1.00  0.00    -0.168 NA
HETATM    8  C   UNL     1       3.628  26.418  47.959  1.00  0.00     0.156 A 
HETATM    9  C   UNL     1       5.455  28.246  50.444  1.00  0.00     0.034 A 
HETATM   10  C   UNL     1       5.688  27.332  51.479  1.00  0.00     0.032 A 
ENDROOT
BRANCH   1  11
HETATM   11  N   UNL     1       5.463  25.191  52.537  1.00  0.00    -0.327 N 
HETATM   12  C   UNL     1       6.692  24.610  52.816  1.00  0.00     0.231 C 
HETATM   13  O   UNL     1       7.672  24.693  52.078  1.00  0.00    -0.272 OA
HETATM   14  H   UNL     1       4.668  24.865  53.070  1.00  0.00     0.169 HD
BRANCH  12  15
HETATM   15  C   UNL     1       6.781  23.915  54.197  1.00  0.00     0.115 C 
BRANCH  15  16
HETATM   16  C   UNL     1       7.187  24.848  55.386  1.00  0.00    -0.001 C 
HETATM   17  C   UNL     1       6.084  24.897  56.455  1.00  0.00     0.011 C 
BRANCH  16  18
HETATM   18  C   UNL     1       7.624  26.265  54.949  1.00  0.00     0.001 C 
HETATM   19  C   UNL     1       6.659  27.367  55.370  1.00  0.00     0.005 C 
ENDBRANCH  16  18
ENDBRANCH  15  16
BRANCH  15  20
HETATM   20  C   UNL     1       7.567  22.600  54.226  1.00  0.00    -0.045 A 
HETATM   21  C   UNL     1       7.579  21.786  53.080  1.00  0.00     0.008 A 
HETATM   22  C   UNL     1       8.297  20.589  53.062  1.00  0.00     0.001 A 
HETATM   23  C   UNL     1       9.007  20.186  54.189  1.00  0.00     0.000 A 
HETATM   24  C   UNL     1       8.998  20.976  55.335  1.00  0.00     0.001 A 
HETATM   25  C   UNL     1       8.281  22.175  55.357  1.00  0.00     0.008 A 
ENDBRANCH  15  20
ENDBRANCH  12  15
ENDBRANCH   1  11
BRANCH   8  26
HETATM   26  C   UNL     1       3.024  25.243  47.316  1.00  0.00     0.270 C 
HETATM   27  N   UNL     1       2.837  24.181  48.160  1.00  0.00    -0.365 N 
HETATM   28  H   UNL     1       3.086  24.290  49.136  1.00  0.00     0.159 HD
HETATM   29  H   UNL     1       2.374  23.353  47.820  1.00  0.00     0.159 HD
HETATM   30  O   UNL     1       2.678  25.187  46.141  1.00  0.00    -0.266 OA
ENDBRANCH   8  26
TORSDOF 6
ENDMDL
MODEL 5
REMARK VINA RESULT:      -8.7      2.641      7.854
REMARK  6 active torsions:
REMARK  status: ('A' for Active; 'I' for Inactive)
REMARK    1  A    between atoms: C_2  and  C_3 
REMARK    2  A    between atoms: C_3  and  C_4 
REMARK    3  A    between atoms: C_4  and  C_5 
REMARK    4  A    between atoms: C_4  and  C_21 
REMARK       I    between atoms: C_5  and  N_6 
REMARK    5  A    between atoms: N_6  and  C_7 
REMARK    6  A    between atoms: C_14  and  C_15 
REMARK       I    between atoms: C_15  and  N_16 
ROOT
HETATM    1  C   UNL     1       7.211  25.113  55.048  1.00  0.00     0.035 A 
HETATM    2  C   UNL     1       7.574  23.895  55.638  1.00  0.00     0.046 A 
HETATM    3  C   UNL     1       7.868  22.787  54.813  1.00  0.00     0.030 A 
HETATM    4  C   UNL     1       7.740  22.924  53.436  1.00  0.00     0.063 A 
HETATM    5  N   UNL     1       8.051  21.697  52.921  1.00  0.00    -0.277 N 
HETATM    6  H   UNL     1       8.044  21.422  51.945  1.00  0.00     0.189 HD
HETATM    7  N   UNL     1       8.427  20.788  53.835  1.00  0.00    -0.168 NA
HETATM    8  C   UNL     1       8.328  21.450  55.010  1.00  0.00     0.156 A 
HETATM    9  C   UNL     1       7.374  24.122  52.819  1.00  0.00     0.034 A 
HETATM   10  C   UNL     1       7.139  25.221  53.654  1.00  0.00     0.032 A 
ENDROOT
BRANCH   1  11
HETATM   11  N   UNL     1       6.961  26.281  55.798  1.00  0.00    -0.327 N 
HETATM   12  C   UNL     1       7.566  26.634  56.996  1.00  0.00     0.231 C 
HETATM   13  O   UNL     1       8.350  25.910  57.605  1.00  0.00    -0.272 OA
HETATM   14  H   UNL     1       6.159  26.827  55.508  1.00  0.00     0.169 HD
BRANCH  12  15
HETATM   15  C   UNL     1       7.258  28.073  57.478  1.00  0.00     0.115 C 
BRANCH  15  16
HETATM   16  C   UNL     1       6.022  28.751  56.799  1.00  0.00    -0.001 C 
HETATM   17  C   UNL     1       6.454  29.655  55.635  1.00  0.00     0.011 C 
BRANCH  16  18
HETATM   18  C   UNL     1       5.094  29.495  57.787  1.00  0.00     0.001 C 
HETATM   19  C   UNL     1       5.068  31.007  57.592  1.00  0.00     0.005 C 
ENDBRANCH  16  18
ENDBRANCH  15  16
BRANCH  15  20
HETATM   20  C   UNL     1       8.457  29.024  57.531  1.00  0.00    -0.045 A 
HETATM   21  C   UNL     1       8.556  29.942  58.590  1.00  0.00     0.008 A 
HETATM   22  C   UNL     1       9.643  30.813  58.682  1.00  0.00     0.001 A 
HETATM   23  C   UNL     1      10.642  30.784  57.713  1.00  0.00     0.000 A 
HETATM   24  C   UNL     1      10.554  29.888  56.651  1.00  0.00     0.001 A 
HETATM   25  C   UNL     1       9.468  29.014  56.557  1.00  0.00     0.008 A 
ENDBRANCH  15  20
ENDBRANCH  12  15
ENDBRANCH   1  11
BRANCH   8  26
HETATM   26  C   UNL     1       8.706  20.810  56.278  1.00  0.00     0.270 C 
HETATM   27  N   UNL     1       9.747  19.928  56.169  1.00  0.00    -0.365 N 
HETATM   28  H   UNL     1      10.188  19.811  55.265  1.00  0.00     0.159 HD
HETATM   29  H   UNL     1      10.113  19.487  56.998  1.00  0.00     0.159 HD
HETATM   30  O   UNL     1       8.179  21.038  57.362  1.00  0.00    -0.266 OA
ENDBRANCH   8  26
TORSDOF 6
ENDMDL
MODEL 6
REMARK VINA RESULT:      -8.5      4.148      6.518
REMARK  6 active torsions:
REMARK  status: ('A' for Active; 'I' for Inactive)
REMARK    1  A    between atoms: C_2  and  C_3 
REMARK    2  A    between atoms: C_3  and  C_4 
REMARK    3  A    between atoms: C_4  and  C_5 
REMARK    4  A    between atoms: C_4  and  C_21 
REMARK       I    between atoms: C_5  and  N_6 
REMARK    5  A    between atoms: N_6  and  C_7 
REMARK    6  A    between atoms: C_14  and  C_15 
REMARK       I    between atoms: C_15  and  N_16 
ROOT
HETATM    1  C   UNL     1       5.067  26.219  50.931  1.00  0.00     0.035 A 
HETATM    2  C   UNL     1       5.373  27.586  50.898  1.00  0.00     0.046 A 
HETATM    3  C   UNL     1       5.018  28.348  49.764  1.00  0.00     0.030 A 
HETATM    4  C   UNL     1       4.417  27.707  48.687  1.00  0.00     0.063 A 
HETATM    5  N   UNL     1       4.231  28.680  47.746  1.00  0.00    -0.277 N 
HETATM    6  H   UNL     1       3.834  28.569  46.820  1.00  0.00     0.189 HD
HETATM    7  N   UNL     1       4.603  29.910  48.134  1.00  0.00    -0.168 NA
HETATM    8  C   UNL     1       5.083  29.723  49.385  1.00  0.00     0.156 A 
HETATM    9  C   UNL     1       4.107  26.345  48.686  1.00  0.00     0.034 A 
HETATM   10  C   UNL     1       4.420  25.622  49.843  1.00  0.00     0.032 A 
ENDROOT
BRANCH   1  11
HETATM   11  N   UNL     1       5.334  25.403  52.050  1.00  0.00    -0.327 N 
HETATM   12  C   UNL     1       6.572  24.903  52.426  1.00  0.00     0.231 C 
HETATM   13  O   UNL     1       7.597  25.045  51.762  1.00  0.00    -0.272 OA
HETATM   14  H   UNL     1       4.522  25.030  52.526  1.00  0.00     0.169 HD
BRANCH  12  15
HETATM   15  C   UNL     1       6.601  24.221  53.816  1.00  0.00     0.115 C 
BRANCH  15  16
HETATM   16  C   UNL     1       6.830  25.188  55.026  1.00  0.00    -0.001 C 
HETATM   17  C   UNL     1       5.616  25.197  55.967  1.00  0.00     0.011 C 
BRANCH  16  18
HETATM   18  C   UNL     1       7.245  26.619  54.613  1.00  0.00     0.001 C 
HETATM   19  C   UNL     1       7.594  27.524  55.788  1.00  0.00     0.005 C 
ENDBRANCH  16  18
ENDBRANCH  15  16
BRANCH  15  20
HETATM   20  C   UNL     1       7.484  22.974  53.923  1.00  0.00    -0.045 A 
HETATM   21  C   UNL     1       8.264  22.786  55.077  1.00  0.00     0.008 A 
HETATM   22  C   UNL     1       9.068  21.654  55.219  1.00  0.00     0.001 A 
HETATM   23  C   UNL     1       9.111  20.699  54.208  1.00  0.00     0.000 A 
HETATM   24  C   UNL     1       8.352  20.875  53.054  1.00  0.00     0.001 A 
HETATM   25  C   UNL     1       7.545  22.006  52.909  1.00  0.00     0.008 A 
ENDBRANCH  15  20
ENDBRANCH  12  15
ENDBRANCH   1  11
BRANCH   8  26
HETATM   26  C   UNL     1       5.555  30.854  50.196  1.00  0.00     0.270 C 
HETATM   27  N   UNL     1       4.870  31.025  51.369  1.00  0.00    -0.365 N 
HETATM   28  H   UNL     1       4.138  30.363  51.600  1.00  0.00     0.159 HD
HETATM   29  H   UNL     1       5.163  31.739  52.016  1.00  0.00     0.159 HD
HETATM   30  O   UNL     1       6.493  31.586  49.898  1.00  0.00    -0.266 OA
ENDBRANCH   8  26
TORSDOF 6
ENDMDL
MODEL 7
REMARK VINA RESULT:      -8.4      4.242      7.141
REMARK  6 active torsions:
REMARK  status: ('A' for Active; 'I' for Inactive)
REMARK    1  A    between atoms: C_2  and  C_3 
REMARK    2  A    between atoms: C_3  and  C_4 
REMARK    3  A    between atoms: C_4  and  C_5 
REMARK    4  A    between atoms: C_4  and  C_21 
REMARK       I    between atoms: C_5  and  N_6 
REMARK    5  A    between atoms: N_6  and  C_7 
REMARK    6  A    between atoms: C_14  and  C_15 
REMARK       I    between atoms: C_15  and  N_16 
ROOT
HETATM    1  C   UNL     1       5.792  26.590  52.221  1.00  0.00     0.035 A 
HETATM    2  C   UNL     1       5.091  26.327  51.036  1.00  0.00     0.046 A 
HETATM    3  C   UNL     1       4.639  27.406  50.246  1.00  0.00     0.030 A 
HETATM    4  C   UNL     1       4.861  28.703  50.693  1.00  0.00     0.063 A 
HETATM    5  N   UNL     1       4.289  29.512  49.752  1.00  0.00    -0.277 N 
HETATM    6  H   UNL     1       4.241  30.525  49.760  1.00  0.00     0.189 HD
HETATM    7  N   UNL     1       3.764  28.861  48.701  1.00  0.00    -0.168 NA
HETATM    8  C   UNL     1       3.982  27.557  48.987  1.00  0.00     0.156 A 
HETATM    9  C   UNL     1       5.549  28.998  51.872  1.00  0.00     0.034 A 
HETATM   10  C   UNL     1       6.034  27.912  52.612  1.00  0.00     0.032 A 
ENDROOT
BRANCH   1  11
HETATM   11  N   UNL     1       6.327  25.569  53.034  1.00  0.00    -0.327 N 
HETATM   12  C   UNL     1       7.582  24.992  52.908  1.00  0.00     0.231 C 
HETATM   13  O   UNL     1       8.364  25.247  51.995  1.00  0.00    -0.272 OA
HETATM   14  H   UNL     1       5.675  25.121  53.665  1.00  0.00     0.169 HD
BRANCH  12  15
HETATM   15  C   UNL     1       7.984  24.054  54.073  1.00  0.00     0.115 C 
BRANCH  15  16
HETATM   16  C   UNL     1       7.465  22.583  53.952  1.00  0.00    -0.001 C 
HETATM   17  C   UNL     1       7.737  21.789  55.239  1.00  0.00     0.011 C 
BRANCH  16  18
HETATM   18  C   UNL     1       7.982  21.838  52.699  1.00  0.00     0.001 C 
HETATM   19  C   UNL     1       8.312  20.370  52.946  1.00  0.00     0.005 C 
ENDBRANCH  16  18
ENDBRANCH  15  16
BRANCH  15  20
HETATM   20  C   UNL     1       7.754  24.613  55.481  1.00  0.00    -0.045 A 
HETATM   21  C   UNL     1       6.452  24.971  55.870  1.00  0.00     0.008 A 
HETATM   22  C   UNL     1       6.200  25.468  57.150  1.00  0.00     0.001 A 
HETATM   23  C   UNL     1       7.245  25.620  58.056  1.00  0.00     0.000 A 
HETATM   24  C   UNL     1       8.542  25.279  57.684  1.00  0.00     0.001 A 
HETATM   25  C   UNL     1       8.798  24.780  56.404  1.00  0.00     0.008 A 
ENDBRANCH  15  20
ENDBRANCH  12  15
ENDBRANCH   1  11
BRANCH   8  26
HETATM   26  C   UNL     1       3.595  26.496  48.047  1.00  0.00     0.270 C 
HETATM   27  N   UNL     1       2.506  25.768  48.445  1.00  0.00    -0.365 N 
HETATM   28  H   UNL     1       2.043  26.025  49.309  1.00  0.00     0.159 HD
HETATM   29  H   UNL     1       2.133  25.058  47.835  1.00  0.00     0.159 HD
HETATM   30  O   UNL     1       4.152  26.269  46.978  1.00  0.00    -0.266 OA
ENDBRANCH   8  26
TORSDOF 6
ENDMDL
MODEL 8
REMARK VINA RESULT:      -8.3      1.803      4.102
REMARK  6 active torsions:
REMARK  status: ('A' for Active; 'I' for Inactive)
REMARK    1  A    between atoms: C_2  and  C_3 
REMARK    2  A    between atoms: C_3  and  C_4 
REMARK    3  A    between atoms: C_4  and  C_5 
REMARK    4  A    between atoms: C_4  and  C_21 
REMARK       I    between atoms: C_5  and  N_6 
REMARK    5  A    between atoms: N_6  and  C_7 
REMARK    6  A    between atoms: C_14  and  C_15 
REMARK       I    between atoms: C_15  and  N_16 
ROOT
HETATM    1  C   UNL     1       8.701  28.480  57.147  1.00  0.00     0.035 A 
HETATM    2  C   UNL     1       7.949  29.336  57.963  1.00  0.00     0.046 A 
HETATM    3  C   UNL     1       8.539  30.520  58.455  1.00  0.00     0.030 A 
HETATM    4  C   UNL     1       9.871  30.780  58.153  1.00  0.00     0.063 A 
HETATM    5  N   UNL     1      10.161  31.956  58.787  1.00  0.00    -0.277 N 
HETATM    6  H   UNL     1      11.051  32.440  58.804  1.00  0.00     0.189 HD
HETATM    7  N   UNL     1       9.121  32.516  59.427  1.00  0.00    -0.168 NA
HETATM    8  C   UNL     1       8.108  31.644  59.222  1.00  0.00     0.156 A 
HETATM    9  C   UNL     1      10.649  29.945  57.350  1.00  0.00     0.034 A 
HETATM   10  C   UNL     1      10.026  28.803  56.830  1.00  0.00     0.032 A 
ENDROOT
BRANCH   1  11
HETATM   11  N   UNL     1       8.167  27.310  56.568  1.00  0.00    -0.327 N 
HETATM   12  C   UNL     1       7.798  26.155  57.242  1.00  0.00     0.231 C 
HETATM   13  O   UNL     1       7.977  25.978  58.445  1.00  0.00    -0.272 OA
HETATM   14  H   UNL     1       8.204  27.263  55.558  1.00  0.00     0.169 HD
BRANCH  12  15
HETATM   15  C   UNL     1       7.038  25.117  56.379  1.00  0.00     0.115 C 
BRANCH  15  16
HETATM   16  C   UNL     1       7.689  23.694  56.326  1.00  0.00    -0.001 C 
HETATM   17  C   UNL     1       9.222  23.783  56.357  1.00  0.00     0.011 C 
BRANCH  16  18
HETATM   18  C   UNL     1       7.189  22.821  55.152  1.00  0.00     0.001 C 
HETATM   19  C   UNL     1       8.293  22.038  54.451  1.00  0.00     0.005 C 
ENDBRANCH  16  18
ENDBRANCH  15  16
BRANCH  15  20
HETATM   20  C   UNL     1       6.624  25.593  54.984  1.00  0.00    -0.045 A 
HETATM   21  C   UNL     1       7.595  25.668  53.971  1.00  0.00     0.008 A 
HETATM   22  C   UNL     1       7.252  26.081  52.682  1.00  0.00     0.001 A 
HETATM   23  C   UNL     1       5.938  26.432  52.389  1.00  0.00     0.000 A 
HETATM   24  C   UNL     1       4.966  26.373  53.384  1.00  0.00     0.001 A 
HETATM   25  C   UNL     1       5.304  25.959  54.675  1.00  0.00     0.008 A 
ENDBRANCH  15  20
ENDBRANCH  12  15
ENDBRANCH   1  11
BRANCH   8  26
HETATM   26  C   UNL     1       6.755  31.918  59.727  1.00  0.00     0.270 C 
HETATM   27  N   UNL     1       5.822  32.115  58.745  1.00  0.00    -0.365 N 
HETATM   28  H   UNL     1       6.112  32.026  57.778  1.00  0.00     0.159 HD
HETATM   29  H   UNL     1       4.856  32.250  58.997  1.00  0.00     0.159 HD
HETATM   30  O   UNL     1       6.443  31.949  60.913  1.00  0.00    -0.266 OA
ENDBRANCH   8  26
TORSDOF 6
ENDMDL
MODEL 9
REMARK VINA RESULT:      -8.1      4.053      7.845
REMARK  6 active torsions:
REMARK  status: ('A' for Active; 'I' for Inactive)
REMARK    1  A    between atoms: C_2  and  C_3 
REMARK    2  A    between atoms: C_3  and  C_4 
REMARK    3  A    between atoms: C_4  and  C_5 
REMARK    4  A    between atoms: C_4  and  C_21 
REMARK       I    between atoms: C_5  and  N_6 
REMARK    5  A    between atoms: N_6  and  C_7 
REMARK    6  A    between atoms: C_14  and  C_15 
REMARK       I    between atoms: C_15  and  N_16 
ROOT
HETATM    1  C   UNL     1       7.394  25.099  54.203  1.00  0.00     0.035 A 
HETATM    2  C   UNL     1       7.727  23.792  53.823  1.00  0.00     0.046 A 
HETATM    3  C   UNL     1       8.014  22.833  54.819  1.00  0.00     0.030 A 
HETATM    4  C   UNL     1       8.006  23.228  56.151  1.00  0.00     0.063 A 
HETATM    5  N   UNL     1       8.351  22.112  56.860  1.00  0.00    -0.277 N 
HETATM    6  H   UNL     1       8.464  22.034  57.865  1.00  0.00     0.189 HD
HETATM    7  N   UNL     1       8.525  21.009  56.115  1.00  0.00    -0.168 NA
HETATM    8  C   UNL     1       8.310  21.437  54.849  1.00  0.00     0.156 A 
HETATM    9  C   UNL     1       7.686  24.524  56.562  1.00  0.00     0.034 A 
HETATM   10  C   UNL     1       7.353  25.444  55.559  1.00  0.00     0.032 A 
ENDROOT
BRANCH   1  11
HETATM   11  N   UNL     1       7.036  26.098  53.274  1.00  0.00    -0.327 N 
HETATM   12  C   UNL     1       5.755  26.377  52.821  1.00  0.00     0.231 C 
HETATM   13  O   UNL     1       4.764  25.714  53.118  1.00  0.00    -0.272 OA
HETATM   14  H   UNL     1       7.804  26.542  52.787  1.00  0.00     0.169 HD
BRANCH  12  15
HETATM   15  C   UNL     1       5.635  27.669  51.973  1.00  0.00     0.115 C 
BRANCH  15  16
HETATM   16  C   UNL     1       4.759  28.800  52.607  1.00  0.00    -0.001 C 
HETATM   17  C   UNL     1       5.129  29.031  54.080  1.00  0.00     0.011 C 
BRANCH  16  18
HETATM   18  C   UNL     1       3.238  28.590  52.425  1.00  0.00     0.001 C 
HETATM   19  C   UNL     1       2.602  29.526  51.404  1.00  0.00     0.005 C 
ENDBRANCH  16  18
ENDBRANCH  15  16
BRANCH  15  20
HETATM   20  C   UNL     1       5.292  27.460  50.495  1.00  0.00    -0.045 A 
HETATM   21  C   UNL     1       5.590  28.479  49.574  1.00  0.00     0.008 A 
HETATM   22  C   UNL     1       5.308  28.318  48.216  1.00  0.00     0.001 A 
HETATM   23  C   UNL     1       4.721  27.142  47.760  1.00  0.00     0.000 A 
HETATM   24  C   UNL     1       4.410  26.127  48.661  1.00  0.00     0.001 A 
HETATM   25  C   UNL     1       4.692  26.283  50.021  1.00  0.00     0.008 A 
ENDBRANCH  15  20
ENDBRANCH  12  15
ENDBRANCH   1  11
BRANCH   8  26
HETATM   26  C   UNL     1       8.358  20.506  53.713  1.00  0.00     0.270 C 
HETATM   27  N   UNL     1       7.318  20.646  52.834  1.00  0.00    -0.365 N 
HETATM   28  H   UNL     1       6.636  21.377  53.004  1.00  0.00     0.159 HD
HETATM   29  H   UNL     1       7.299  20.091  51.994  1.00  0.00     0.159 HD
HETATM   30  O   UNL     1       9.245  19.683  53.519  1.00  0.00    -0.266 OA
ENDBRANCH   8  26
TORSDOF 6
ENDMDL
MODEL 10
REMARK VINA RESULT:      -8.1      6.791     12.243
REMARK  6 active torsions:
REMARK  status: ('A' for Active; 'I' for Inactive)
REMARK    1  A    between atoms: C_2  and  C_3 
REMARK    2  A    between atoms: C_3  and  C_4 
REMARK    3  A    between atoms: C_4  and  C_5 
REMARK    4  A    between atoms: C_4  and  C_21 
REMARK       I    between atoms: C_5  and  N_6 
REMARK    5  A    between atoms: N_6  and  C_7 
REMARK    6  A    between atoms: C_14  and  C_15 
REMARK       I    between atoms: C_15  and  N_16 
ROOT
HETATM    1  C   UNL     1       7.034  32.888  62.329  1.00  0.00     0.035 A 
HETATM    2  C   UNL     1       6.629  32.575  61.024  1.00  0.00     0.046 A 
HETATM    3  C   UNL     1       7.427  31.715  60.239  1.00  0.00     0.030 A 
HETATM    4  C   UNL     1       8.622  31.241  60.768  1.00  0.00     0.063 A 
HETATM    5  N   UNL     1       9.177  30.479  59.778  1.00  0.00    -0.277 N 
HETATM    6  H   UNL     1      10.065  29.991  59.805  1.00  0.00     0.189 HD
HETATM    7  N   UNL     1       8.424  30.366  58.672  1.00  0.00    -0.168 NA
HETATM    8  C   UNL     1       7.333  31.117  58.946  1.00  0.00     0.156 A 
HETATM    9  C   UNL     1       9.057  31.540  62.060  1.00  0.00     0.034 A 
HETATM   10  C   UNL     1       8.223  32.352  62.839  1.00  0.00     0.032 A 
ENDROOT
BRANCH   1  11
HETATM   11  N   UNL     1       6.264  33.690  63.197  1.00  0.00    -0.327 N 
HETATM   12  C   UNL     1       5.223  33.259  64.006  1.00  0.00     0.231 C 
HETATM   13  O   UNL     1       4.780  32.113  63.998  1.00  0.00    -0.272 OA
HETATM   14  H   UNL     1       6.389  34.689  63.099  1.00  0.00     0.169 HD
BRANCH  12  15
HETATM   15  C   UNL     1       4.707  34.315  65.014  1.00  0.00     0.115 C 
BRANCH  15  16
HETATM   16  C   UNL     1       4.698  35.789  64.487  1.00  0.00    -0.001 C 
HETATM   17  C   UNL     1       4.638  36.794  65.647  1.00  0.00     0.011 C 
BRANCH  16  18
HETATM   18  C   UNL     1       3.604  36.069  63.431  1.00  0.00     0.001 C 
HETATM   19  C   UNL     1       4.151  36.462  62.064  1.00  0.00     0.005 C 
ENDBRANCH  16  18
ENDBRANCH  15  16
BRANCH  15  20
HETATM   20  C   UNL     1       5.302  34.231  66.423  1.00  0.00    -0.045 A 
HETATM   21  C   UNL     1       6.695  34.325  66.584  1.00  0.00     0.008 A 
HETATM   22  C   UNL     1       7.273  34.269  67.853  1.00  0.00     0.001 A 
HETATM   23  C   UNL     1       6.470  34.112  68.978  1.00  0.00     0.000 A 
HETATM   24  C   UNL     1       5.089  34.006  68.836  1.00  0.00     0.001 A 
HETATM   25  C   UNL     1       4.506  34.063  67.567  1.00  0.00     0.008 A 
ENDBRANCH  15  20
ENDBRANCH  12  15
ENDBRANCH   1  11
BRANCH   8  26
HETATM   26  C   UNL     1       6.220  31.219  57.991  1.00  0.00     0.270 C 
HETATM   27  N   UNL     1       5.489  30.068  57.863  1.00  0.00    -0.365 N 
HETATM   28  H   UNL     1       5.736  29.272  58.439  1.00  0.00     0.159 HD
HETATM   29  H   UNL     1       4.670  30.063  57.275  1.00  0.00     0.159 HD
HETATM   30  O   UNL     1       5.922  32.231  57.367  1.00  0.00    -0.266 OA
ENDBRANCH   8  26
TORSDOF 6
ENDMDL
