MODEL 1
REMARK VINA RESULT:     -10.8      0.000      0.000
REMARK  7 active torsions:
REMARK  status: ('A' for Active; 'I' for Inactive)
REMARK    1  A    between atoms: C_4  and  N_5 
REMARK       I    between atoms: N_5  and  C_6 
REMARK       I    between atoms: C_6  and  N_7 
REMARK    2  A    between atoms: N_7  and  N_8 
REMARK       I    between atoms: N_8  and  C_9 
REMARK    3  A    between atoms: C_9  and  C_10 
REMARK    4  A    between atoms: C_10  and  N_11 
REMARK    5  A    between atoms: C_10  and  C_19 
REMARK       I    between atoms: N_11  and  C_12 
REMARK    6  A    between atoms: C_12  and  C_13 
REMARK    7  A    between atoms: C_19  and  C_20 
ROOT
HETATM    1  C   UNL     1       5.996  26.063  54.861  1.00  0.00     0.183 C 
ENDROOT
BRANCH   1   2
HETATM    2  C   UNL     1       5.773  27.242  55.827  1.00  0.00     0.259 C 
HETATM    3  N   UNL     1       6.872  28.031  56.082  1.00  0.00    -0.264 N 
HETATM    4  H   UNL     1       7.755  27.935  55.563  1.00  0.00     0.190 HD
HETATM    5  O   UNL     1       4.699  27.413  56.410  1.00  0.00    -0.269 OA
BRANCH   3   6
HETATM    6  N   UNL     1       6.698  29.211  56.819  1.00  0.00    -0.249 N 
HETATM    7  C   UNL     1       7.449  29.361  57.977  1.00  0.00     0.339 C 
HETATM    8  N   UNL     1       7.139  30.538  58.625  1.00  0.00    -0.308 N 
HETATM    9  O   UNL     1       8.297  28.538  58.308  1.00  0.00    -0.245 OA
HETATM   10  H   UNL     1       6.535  31.167  58.119  1.00  0.00     0.170 HD
HETATM   11  H   UNL     1       5.772  29.622  56.751  1.00  0.00     0.192 HD
BRANCH   8  12
HETATM   12  C   UNL     1       7.686  31.023  59.830  1.00  0.00     0.036 A 
HETATM   13  C   UNL     1       8.887  30.570  60.379  1.00  0.00     0.029 A 
HETATM   14  C   UNL     1       9.366  31.107  61.579  1.00  0.00     0.002 A 
HETATM   15  C   UNL     1       8.647  32.098  62.241  1.00  0.00     0.000 A 
HETATM   16  C   UNL     1       7.445  32.553  61.706  1.00  0.00     0.002 A 
HETATM   17  C   UNL     1       6.966  32.016  60.508  1.00  0.00     0.029 A 
ENDBRANCH   8  12
ENDBRANCH   3   6
ENDBRANCH   1   2
BRANCH   1  18
HETATM   18  N   UNL     1       5.383  26.283  53.546  1.00  0.00    -0.343 N 
HETATM   19  C   UNL     1       5.720  27.296  52.680  1.00  0.00     0.259 C 
HETATM   20  O   UNL     1       6.488  28.190  53.028  1.00  0.00    -0.267 OA
HETATM   21  H   UNL     1       4.838  25.520  53.160  1.00  0.00     0.163 HD
BRANCH  19  22
HETATM   22  C   UNL     1       5.090  27.261  51.368  1.00  0.00     0.072 A 
HETATM   23  S   UNL     1       4.274  28.615  50.702  1.00  0.00    -0.097 SA
HETATM   24  C   UNL     1       3.907  27.773  49.259  1.00  0.00     0.050 A 
HETATM   25  C   UNL     1       4.385  26.483  49.279  1.00  0.00     0.009 A 
HETATM   26  C   UNL     1       5.062  26.187  50.497  1.00  0.00     0.025 A 
ENDBRANCH  19  22
ENDBRANCH   1  18
BRANCH   1  27
HETATM   27  C   UNL     1       7.484  25.675  54.833  1.00  0.00     0.076 C 
BRANCH  27  28
HETATM   28  C   UNL     1       7.766  24.338  55.450  1.00  0.00    -0.028 A 
HETATM   29  C   UNL     1       7.875  23.076  54.782  1.00  0.00    -0.002 A 
HETATM   30  C   UNL     1       8.153  22.112  55.752  1.00  0.00     0.042 A 
HETATM   31  C   UNL     1       7.764  22.660  53.439  1.00  0.00     0.014 A 
HETATM   32  C   UNL     1       8.332  20.757  55.449  1.00  0.00     0.030 A 
HETATM   33  N   UNL     1       8.197  22.758  56.965  1.00  0.00    -0.365 N 
HETATM   34  C   UNL     1       8.225  20.374  54.109  1.00  0.00     0.002 A 
HETATM   35  C   UNL     1       7.943  21.309  53.117  1.00  0.00     0.001 A 
HETATM   36  H   UNL     1       8.372  22.305  57.851  1.00  0.00     0.165 HD
HETATM   37  C   UNL     1       7.969  24.096  56.795  1.00  0.00     0.096 A 
ENDBRANCH  27  28
ENDBRANCH   1  27
TORSDOF 7
ENDMDL
MODEL 2
REMARK VINA RESULT:     -10.5      2.072      8.206
REMARK  7 active torsions:
REMARK  status: ('A' for Active; 'I' for Inactive)
REMARK    1  A    between atoms: C_4  and  N_5 
REMARK       I    between atoms: N_5  and  C_6 
REMARK       I    between atoms: C_6  and  N_7 
REMARK    2  A    between atoms: N_7  and  N_8 
REMARK       I    between atoms: N_8  and  C_9 
REMARK    3  A    between atoms: C_9  and  C_10 
REMARK    4  A    between atoms: C_10  and  N_11 
REMARK    5  A    between atoms: C_10  and  C_19 
REMARK       I    between atoms: N_11  and  C_12 
REMARK    6  A    between atoms: C_12  and  C_13 
REMARK    7  A    between atoms: C_19  and  C_20 
ROOT
HETATM    1  C   UNL     1       7.287  26.650  55.108  1.00  0.00     0.183 C 
ENDROOT
BRANCH   1   2
HETATM    2  C   UNL     1       7.177  27.061  53.627  1.00  0.00     0.259 C 
HETATM    3  N   UNL     1       6.965  26.038  52.731  1.00  0.00    -0.264 N 
HETATM    4  H   UNL     1       6.754  25.076  53.028  1.00  0.00     0.190 HD
HETATM    5  O   UNL     1       7.363  28.224  53.258  1.00  0.00    -0.269 OA
BRANCH   3   6
HETATM    6  N   UNL     1       6.694  26.360  51.393  1.00  0.00    -0.249 N 
HETATM    7  C   UNL     1       5.364  26.379  50.994  1.00  0.00     0.339 C 
HETATM    8  N   UNL     1       5.251  26.659  49.649  1.00  0.00    -0.308 N 
HETATM    9  O   UNL     1       4.449  26.206  51.791  1.00  0.00    -0.245 OA
HETATM   10  H   UNL     1       6.104  26.935  49.188  1.00  0.00     0.170 HD
HETATM   11  H   UNL     1       7.424  26.098  50.736  1.00  0.00     0.192 HD
BRANCH   8  12
HETATM   12  C   UNL     1       4.067  26.751  48.889  1.00  0.00     0.036 A 
HETATM   13  C   UNL     1       3.133  27.781  49.023  1.00  0.00     0.029 A 
HETATM   14  C   UNL     1       1.982  27.803  48.227  1.00  0.00     0.002 A 
HETATM   15  C   UNL     1       1.755  26.797  47.294  1.00  0.00     0.000 A 
HETATM   16  C   UNL     1       2.676  25.762  47.157  1.00  0.00     0.002 A 
HETATM   17  C   UNL     1       3.824  25.738  47.952  1.00  0.00     0.029 A 
ENDBRANCH   8  12
ENDBRANCH   3   6
ENDBRANCH   1   2
BRANCH   1  18
HETATM   18  N   UNL     1       7.048  27.770  56.027  1.00  0.00    -0.343 N 
HETATM   19  C   UNL     1       7.870  28.120  57.071  1.00  0.00     0.259 C 
HETATM   20  O   UNL     1       8.818  27.406  57.391  1.00  0.00    -0.267 OA
HETATM   21  H   UNL     1       6.358  28.456  55.745  1.00  0.00     0.163 HD
BRANCH  19  22
HETATM   22  C   UNL     1       7.528  29.344  57.781  1.00  0.00     0.072 A 
HETATM   23  S   UNL     1       6.193  30.324  57.337  1.00  0.00    -0.097 SA
HETATM   24  C   UNL     1       6.492  31.430  58.607  1.00  0.00     0.050 A 
HETATM   25  C   UNL     1       7.591  31.072  59.354  1.00  0.00     0.009 A 
HETATM   26  C   UNL     1       8.191  29.873  58.875  1.00  0.00     0.025 A 
ENDBRANCH  19  22
ENDBRANCH   1  18
BRANCH   1  27
HETATM   27  C   UNL     1       6.441  25.393  55.373  1.00  0.00     0.076 C 
BRANCH  27  28
HETATM   28  C   UNL     1       7.240  24.233  55.890  1.00  0.00    -0.028 A 
HETATM   29  C   UNL     1       7.636  23.059  55.172  1.00  0.00    -0.002 A 
HETATM   30  C   UNL     1       8.370  22.261  56.049  1.00  0.00     0.042 A 
HETATM   31  C   UNL     1       7.440  22.599  53.853  1.00  0.00     0.014 A 
HETATM   32  C   UNL     1       8.924  21.031  55.676  1.00  0.00     0.030 A 
HETATM   33  N   UNL     1       8.408  22.915  57.258  1.00  0.00    -0.365 N 
HETATM   34  C   UNL     1       8.721  20.602  54.361  1.00  0.00     0.002 A 
HETATM   35  C   UNL     1       7.990  21.372  53.461  1.00  0.00     0.001 A 
HETATM   36  H   UNL     1       8.867  22.563  58.087  1.00  0.00     0.165 HD
HETATM   37  C   UNL     1       7.734  24.102  57.174  1.00  0.00     0.096 A 
ENDBRANCH  27  28
ENDBRANCH   1  27
TORSDOF 7
ENDMDL
MODEL 3
REMARK VINA RESULT:     -10.0      2.680      2.859
REMARK  7 active torsions:
REMARK  status: ('A' for Active; 'I' for Inactive)
REMARK    1  A    between atoms: C_4  and  N_5 
REMARK       I    between atoms: N_5  and  C_6 
REMARK       I    between atoms: C_6  and  N_7 
REMARK    2  A    between atoms: N_7  and  N_8 
REMARK       I    between atoms: N_8  and  C_9 
REMARK    3  A    between atoms: C_9  and  C_10 
REMARK    4  A    between atoms: C_10  and  N_11 
REMARK    5  A    between atoms: C_10  and  C_19 
REMARK       I    between atoms: N_11  and  C_12 
REMARK    6  A    between atoms: C_12  and  C_13 
REMARK    7  A    between atoms: C_19  and  C_20 
ROOT
HETATM    1  C   UNL     1       6.160  25.746  54.701  1.00  0.00     0.183 C 
ENDROOT
BRANCH   1   2
HETATM    2  C   UNL     1       5.428  26.563  55.782  1.00  0.00     0.259 C 
HETATM    3  N   UNL     1       4.686  27.632  55.332  1.00  0.00    -0.264 N 
HETATM    4  H   UNL     1       4.510  27.803  54.333  1.00  0.00     0.190 HD
HETATM    5  O   UNL     1       5.574  26.332  56.986  1.00  0.00    -0.269 OA
BRANCH   3   6
HETATM    6  N   UNL     1       3.868  28.316  56.243  1.00  0.00    -0.249 N 
HETATM    7  C   UNL     1       4.276  29.578  56.651  1.00  0.00     0.339 C 
HETATM    8  N   UNL     1       3.407  30.107  57.582  1.00  0.00    -0.308 N 
HETATM    9  O   UNL     1       5.268  30.120  56.177  1.00  0.00    -0.245 OA
HETATM   10  H   UNL     1       2.557  29.585  57.730  1.00  0.00     0.170 HD
HETATM   11  H   UNL     1       3.341  27.717  56.873  1.00  0.00     0.192 HD
BRANCH   8  12
HETATM   12  C   UNL     1       3.500  31.356  58.228  1.00  0.00     0.036 A 
HETATM   13  C   UNL     1       3.469  31.521  59.615  1.00  0.00     0.029 A 
HETATM   14  C   UNL     1       3.572  32.797  60.180  1.00  0.00     0.002 A 
HETATM   15  C   UNL     1       3.703  33.917  59.365  1.00  0.00     0.000 A 
HETATM   16  C   UNL     1       3.728  33.766  57.981  1.00  0.00     0.002 A 
HETATM   17  C   UNL     1       3.625  32.492  57.416  1.00  0.00     0.029 A 
ENDBRANCH   8  12
ENDBRANCH   3   6
ENDBRANCH   1   2
BRANCH   1  18
HETATM   18  N   UNL     1       5.994  26.307  53.355  1.00  0.00    -0.343 N 
HETATM   19  C   UNL     1       5.202  25.767  52.370  1.00  0.00     0.259 C 
HETATM   20  O   UNL     1       4.675  24.667  52.520  1.00  0.00    -0.267 OA
HETATM   21  H   UNL     1       6.303  27.262  53.214  1.00  0.00     0.163 HD
BRANCH  19  22
HETATM   22  C   UNL     1       5.066  26.548  51.149  1.00  0.00     0.072 A 
HETATM   23  S   UNL     1       5.301  28.246  51.110  1.00  0.00    -0.097 SA
HETATM   24  C   UNL     1       5.000  28.321  49.429  1.00  0.00     0.050 A 
HETATM   25  C   UNL     1       4.715  27.082  48.900  1.00  0.00     0.009 A 
HETATM   26  C   UNL     1       4.748  26.062  49.893  1.00  0.00     0.025 A 
ENDBRANCH  19  22
ENDBRANCH   1  18
BRANCH   1  27
HETATM   27  C   UNL     1       7.615  25.486  55.128  1.00  0.00     0.076 C 
BRANCH  27  28
HETATM   28  C   UNL     1       7.873  24.068  55.543  1.00  0.00    -0.028 A 
HETATM   29  C   UNL     1       7.930  22.911  54.701  1.00  0.00    -0.002 A 
HETATM   30  C   UNL     1       8.204  21.814  55.518  1.00  0.00     0.042 A 
HETATM   31  C   UNL     1       7.775  22.692  53.316  1.00  0.00     0.014 A 
HETATM   32  C   UNL     1       8.337  20.511  55.023  1.00  0.00     0.030 A 
HETATM   33  N   UNL     1       8.296  22.281  56.808  1.00  0.00    -0.365 N 
HETATM   34  C   UNL     1       8.186  20.324  53.646  1.00  0.00     0.002 A 
HETATM   35  C   UNL     1       7.908  21.396  52.803  1.00  0.00     0.001 A 
HETATM   36  H   UNL     1       8.479  21.703  57.616  1.00  0.00     0.165 HD
HETATM   37  C   UNL     1       8.102  23.635  56.834  1.00  0.00     0.096 A 
ENDBRANCH  27  28
ENDBRANCH   1  27
TORSDOF 7
ENDMDL
MODEL 4
REMARK VINA RESULT:     -10.0      2.710      9.052
REMARK  7 active torsions:
REMARK  status: ('A' for Active; 'I' for Inactive)
REMARK    1  A    between atoms: C_4  and  N_5 
REMARK       I    between atoms: N_5  and  C_6 
REMARK       I    between atoms: C_6  and  N_7 
REMARK    2  A    between atoms: N_7  and  N_8 
REMARK       I    between atoms: N_8  and  C_9 
REMARK    3  A    between atoms: C_9  and  C_10 
REMARK    4  A    between atoms: C_10  and  N_11 
REMARK    5  A    between atoms: C_10  and  C_19 
REMARK       I    between atoms: N_11  and  C_12 
REMARK    6  A    between atoms: C_12  and  C_13 
REMARK    7  A    between atoms: C_19  and  C_20 
ROOT
HETATM    1  C   UNL     1       6.844  26.522  55.036  1.00  0.00     0.183 C 
ENDROOT
BRANCH   1   2
HETATM    2  C   UNL     1       5.792  27.213  54.148  1.00  0.00     0.259 C 
HETATM    3  N   UNL     1       6.219  27.602  52.898  1.00  0.00    -0.264 N 
HETATM    4  H   UNL     1       7.135  27.334  52.517  1.00  0.00     0.190 HD
HETATM    5  O   UNL     1       4.663  27.485  54.566  1.00  0.00    -0.269 OA
BRANCH   3   6
HETATM    6  N   UNL     1       5.272  28.086  51.984  1.00  0.00    -0.249 N 
HETATM    7  C   UNL     1       4.814  27.210  51.010  1.00  0.00     0.339 C 
HETATM    8  N   UNL     1       3.930  27.833  50.153  1.00  0.00    -0.308 N 
HETATM    9  O   UNL     1       5.153  26.032  50.990  1.00  0.00    -0.245 OA
HETATM   10  H   UNL     1       3.645  28.762  50.422  1.00  0.00     0.170 HD
HETATM   11  H   UNL     1       5.338  29.081  51.789  1.00  0.00     0.192 HD
BRANCH   8  12
HETATM   12  C   UNL     1       3.272  27.269  49.042  1.00  0.00     0.036 A 
HETATM   13  C   UNL     1       3.808  26.250  48.252  1.00  0.00     0.029 A 
HETATM   14  C   UNL     1       3.088  25.739  47.167  1.00  0.00     0.002 A 
HETATM   15  C   UNL     1       1.828  26.244  46.860  1.00  0.00     0.000 A 
HETATM   16  C   UNL     1       1.286  27.265  47.637  1.00  0.00     0.002 A 
HETATM   17  C   UNL     1       2.005  27.776  48.720  1.00  0.00     0.029 A 
ENDBRANCH   8  12
ENDBRANCH   3   6
ENDBRANCH   1   2
BRANCH   1  18
HETATM   18  N   UNL     1       7.194  25.178  54.561  1.00  0.00    -0.343 N 
HETATM   19  C   UNL     1       7.553  24.126  55.370  1.00  0.00     0.259 C 
HETATM   20  O   UNL     1       7.739  24.294  56.573  1.00  0.00    -0.267 OA
HETATM   21  H   UNL     1       6.947  24.949  53.605  1.00  0.00     0.163 HD
BRANCH  19  22
HETATM   22  C   UNL     1       7.731  22.838  54.715  1.00  0.00     0.072 A 
HETATM   23  S   UNL     1       7.850  21.369  55.591  1.00  0.00    -0.097 SA
HETATM   24  C   UNL     1       7.999  20.445  54.159  1.00  0.00     0.050 A 
HETATM   25  C   UNL     1       7.969  21.234  53.031  1.00  0.00     0.009 A 
HETATM   26  C   UNL     1       7.821  22.613  53.353  1.00  0.00     0.025 A 
ENDBRANCH  19  22
ENDBRANCH   1  18
BRANCH   1  27
HETATM   27  C   UNL     1       8.037  27.464  55.275  1.00  0.00     0.076 C 
BRANCH  27  28
HETATM   28  C   UNL     1       7.943  28.234  56.558  1.00  0.00    -0.028 A 
HETATM   29  C   UNL     1       8.870  29.203  57.062  1.00  0.00    -0.002 A 
HETATM   30  C   UNL     1       8.371  29.663  58.281  1.00  0.00     0.042 A 
HETATM   31  C   UNL     1      10.089  29.736  56.594  1.00  0.00     0.014 A 
HETATM   32  C   UNL     1       9.023  30.632  59.053  1.00  0.00     0.030 A 
HETATM   33  N   UNL     1       7.195  28.991  58.518  1.00  0.00    -0.365 N 
HETATM   34  C   UNL     1      10.226  31.148  58.562  1.00  0.00     0.002 A 
HETATM   35  C   UNL     1      10.754  30.708  57.351  1.00  0.00     0.001 A 
HETATM   36  H   UNL     1       6.618  29.116  59.338  1.00  0.00     0.165 HD
HETATM   37  C   UNL     1       6.927  28.131  57.489  1.00  0.00     0.096 A 
ENDBRANCH  27  28
ENDBRANCH   1  27
TORSDOF 7
ENDMDL
MODEL 5
REMARK VINA RESULT:     -10.0      2.304      5.298
REMARK  7 active torsions:
REMARK  status: ('A' for Active; 'I' for Inactive)
REMARK    1  A    between atoms: C_4  and  N_5 
REMARK       I    between atoms: N_5  and  C_6 
REMARK       I    between atoms: C_6  and  N_7 
REMARK    2  A    between atoms: N_7  and  N_8 
REMARK       I    between atoms: N_8  and  C_9 
REMARK    3  A    between atoms: C_9  and  C_10 
REMARK    4  A    between atoms: C_10  and  N_11 
REMARK    5  A    between atoms: C_10  and  C_19 
REMARK       I    between atoms: N_11  and  C_12 
REMARK    6  A    between atoms: C_12  and  C_13 
REMARK    7  A    between atoms: C_19  and  C_20 
ROOT
HETATM    1  C   UNL     1       7.227  26.180  55.433  1.00  0.00     0.183 C 
ENDROOT
BRANCH   1   2
HETATM    2  C   UNL     1       7.984  26.780  56.632  1.00  0.00     0.259 C 
HETATM    3  N   UNL     1       8.369  28.097  56.508  1.00  0.00    -0.264 N 
HETATM    4  H   UNL     1       8.057  28.693  55.730  1.00  0.00     0.190 HD
HETATM    5  O   UNL     1       8.310  26.096  57.606  1.00  0.00    -0.269 OA
BRANCH   3   6
HETATM    6  N   UNL     1       8.915  28.747  57.623  1.00  0.00    -0.249 N 
HETATM    7  C   UNL     1       8.067  29.545  58.379  1.00  0.00     0.339 C 
HETATM    8  N   UNL     1       8.748  30.161  59.409  1.00  0.00    -0.308 N 
HETATM    9  O   UNL     1       6.866  29.620  58.141  1.00  0.00    -0.245 OA
HETATM   10  H   UNL     1       9.697  29.853  59.548  1.00  0.00     0.170 HD
HETATM   11  H   UNL     1       9.900  28.980  57.539  1.00  0.00     0.192 HD
BRANCH   8  12
HETATM   12  C   UNL     1       8.225  31.048  60.372  1.00  0.00     0.036 A 
HETATM   13  C   UNL     1       7.252  32.011  60.098  1.00  0.00     0.029 A 
HETATM   14  C   UNL     1       6.781  32.852  61.112  1.00  0.00     0.002 A 
HETATM   15  C   UNL     1       7.280  32.740  62.406  1.00  0.00     0.000 A 
HETATM   16  C   UNL     1       8.256  31.787  62.689  1.00  0.00     0.002 A 
HETATM   17  C   UNL     1       8.727  30.948  61.676  1.00  0.00     0.029 A 
ENDBRANCH   8  12
ENDBRANCH   3   6
ENDBRANCH   1   2
BRANCH   1  18
HETATM   18  N   UNL     1       7.402  24.727  55.320  1.00  0.00    -0.343 N 
HETATM   19  C   UNL     1       7.932  24.080  54.229  1.00  0.00     0.259 C 
HETATM   20  O   UNL     1       8.174  24.694  53.192  1.00  0.00    -0.267 OA
HETATM   21  H   UNL     1       7.334  24.188  56.176  1.00  0.00     0.163 HD
BRANCH  19  22
HETATM   22  C   UNL     1       8.147  22.647  54.368  1.00  0.00     0.072 A 
HETATM   23  S   UNL     1       8.317  21.885  55.894  1.00  0.00    -0.097 SA
HETATM   24  C   UNL     1       8.485  20.339  55.182  1.00  0.00     0.050 A 
HETATM   25  C   UNL     1       8.423  20.395  53.808  1.00  0.00     0.009 A 
HETATM   26  C   UNL     1       8.234  21.726  53.340  1.00  0.00     0.025 A 
ENDBRANCH  19  22
ENDBRANCH   1  18
BRANCH   1  27
HETATM   27  C   UNL     1       5.768  26.667  55.430  1.00  0.00     0.076 C 
BRANCH  27  28
HETATM   28  C   UNL     1       5.444  27.581  54.286  1.00  0.00    -0.028 A 
HETATM   29  C   UNL     1       5.241  27.222  52.915  1.00  0.00    -0.002 A 
HETATM   30  C   UNL     1       4.955  28.394  52.214  1.00  0.00     0.042 A 
HETATM   31  C   UNL     1       5.273  26.006  52.201  1.00  0.00     0.014 A 
HETATM   32  C   UNL     1       4.692  28.413  50.839  1.00  0.00     0.030 A 
HETATM   33  N   UNL     1       4.995  29.427  53.119  1.00  0.00    -0.365 N 
HETATM   34  C   UNL     1       4.723  27.193  50.157  1.00  0.00     0.002 A 
HETATM   35  C   UNL     1       5.010  26.006  50.825  1.00  0.00     0.001 A 
HETATM   36  H   UNL     1       4.836  30.399  52.889  1.00  0.00     0.165 HD
HETATM   37  C   UNL     1       5.286  28.951  54.368  1.00  0.00     0.096 A 
ENDBRANCH  27  28
ENDBRANCH   1  27
TORSDOF 7
ENDMDL
MODEL 6
REMARK VINA RESULT:      -9.9      3.196      9.502
REMARK  7 active torsions:
REMARK  status: ('A' for Active; 'I' for Inactive)
REMARK    1  A    between atoms: C_4  and  N_5 
REMARK       I    between atoms: N_5  and  C_6 
REMARK       I    between atoms: C_6  and  N_7 
REMARK    2  A    between atoms: N_7  and  N_8 
REMARK       I    between atoms: N_8  and  C_9 
REMARK    3  A    between atoms: C_9  and  C_10 
REMARK    4  A    between atoms: C_10  and  N_11 
REMARK    5  A    between atoms: C_10  and  C_19 
REMARK       I    between atoms: N_11  and  C_12 
REMARK    6  A    between atoms: C_12  and  C_13 
REMARK    7  A    between atoms: C_19  and  C_20 
ROOT
HETATM    1  C   UNL     1       6.424  25.449  53.403  1.00  0.00     0.183 C 
ENDROOT
BRANCH   1   2
HETATM    2  C   UNL     1       5.612  25.418  52.094  1.00  0.00     0.259 C 
HETATM    3  N   UNL     1       5.969  26.344  51.140  1.00  0.00    -0.264 N 
HETATM    4  H   UNL     1       6.809  26.931  51.225  1.00  0.00     0.190 HD
HETATM    5  O   UNL     1       4.639  24.673  51.948  1.00  0.00    -0.269 OA
BRANCH   3   6
HETATM    6  N   UNL     1       5.382  26.262  49.869  1.00  0.00    -0.249 N 
HETATM    7  C   UNL     1       4.335  27.130  49.589  1.00  0.00     0.339 C 
HETATM    8  N   UNL     1       3.823  26.903  48.328  1.00  0.00    -0.308 N 
HETATM    9  O   UNL     1       3.984  27.996  50.382  1.00  0.00    -0.245 OA
HETATM   10  H   UNL     1       4.345  26.259  47.756  1.00  0.00     0.170 HD
HETATM   11  H   UNL     1       5.411  25.339  49.446  1.00  0.00     0.192 HD
BRANCH   8  12
HETATM   12  C   UNL     1       2.754  27.577  47.704  1.00  0.00     0.036 A 
HETATM   13  C   UNL     1       2.828  28.890  47.233  1.00  0.00     0.029 A 
HETATM   14  C   UNL     1       1.722  29.487  46.619  1.00  0.00     0.002 A 
HETATM   15  C   UNL     1       0.533  28.780  46.474  1.00  0.00     0.000 A 
HETATM   16  C   UNL     1       0.445  27.473  46.945  1.00  0.00     0.002 A 
HETATM   17  C   UNL     1       1.549  26.876  47.559  1.00  0.00     0.029 A 
ENDBRANCH   8  12
ENDBRANCH   3   6
ENDBRANCH   1   2
BRANCH   1  18
HETATM   18  N   UNL     1       7.098  24.176  53.683  1.00  0.00    -0.343 N 
HETATM   19  C   UNL     1       7.193  23.591  54.923  1.00  0.00     0.259 C 
HETATM   20  O   UNL     1       6.823  24.192  55.930  1.00  0.00    -0.267 OA
HETATM   21  H   UNL     1       7.314  23.585  52.888  1.00  0.00     0.163 HD
BRANCH  19  22
HETATM   22  C   UNL     1       7.784  22.262  54.969  1.00  0.00     0.072 A 
HETATM   23  S   UNL     1       8.404  21.579  56.415  1.00  0.00    -0.097 SA
HETATM   24  C   UNL     1       8.833  20.123  55.626  1.00  0.00     0.050 A 
HETATM   25  C   UNL     1       8.522  20.152  54.286  1.00  0.00     0.009 A 
HETATM   26  C   UNL     1       7.923  21.386  53.906  1.00  0.00     0.025 A 
ENDBRANCH  19  22
ENDBRANCH   1  18
BRANCH   1  27
HETATM   27  C   UNL     1       7.330  26.691  53.435  1.00  0.00     0.076 C 
BRANCH  27  28
HETATM   28  C   UNL     1       6.769  27.820  54.247  1.00  0.00    -0.028 A 
HETATM   29  C   UNL     1       7.152  28.217  55.569  1.00  0.00    -0.002 A 
HETATM   30  C   UNL     1       6.370  29.318  55.917  1.00  0.00     0.042 A 
HETATM   31  C   UNL     1       8.094  27.741  56.506  1.00  0.00     0.014 A 
HETATM   32  C   UNL     1       6.485  29.974  57.149  1.00  0.00     0.030 A 
HETATM   33  N   UNL     1       5.535  29.575  54.856  1.00  0.00    -0.365 N 
HETATM   34  C   UNL     1       7.431  29.487  58.056  1.00  0.00     0.002 A 
HETATM   35  C   UNL     1       8.224  28.386  57.742  1.00  0.00     0.001 A 
HETATM   36  H   UNL     1       4.847  30.316  54.832  1.00  0.00     0.165 HD
HETATM   37  C   UNL     1       5.767  28.683  53.846  1.00  0.00     0.096 A 
ENDBRANCH  27  28
ENDBRANCH   1  27
TORSDOF 7
ENDMDL
MODEL 7
REMARK VINA RESULT:      -9.9      2.591      5.806
REMARK  7 active torsions:
REMARK  status: ('A' for Active; 'I' for Inactive)
REMARK    1  A    between atoms: C_4  and  N_5 
REMARK       I    between atoms: N_5  and  C_6 
REMARK       I    between atoms: C_6  and  N_7 
REMARK    2  A    between atoms: N_7  and  N_8 
REMARK       I    between atoms: N_8  and  C_9 
REMARK    3  A    between atoms: C_9  and  C_10 
REMARK    4  A    between atoms: C_10  and  N_11 
REMARK    5  A    between atoms: C_10  and  C_19 
REMARK       I    between atoms: N_11  and  C_12 
REMARK    6  A    between atoms: C_12  and  C_13 
REMARK    7  A    between atoms: C_19  and  C_20 
ROOT
HETATM    1  C   UNL     1       7.084  26.085  55.509  1.00  0.00     0.183 C 
ENDROOT
BRANCH   1   2
HETATM    2  C   UNL     1       7.932  26.712  56.632  1.00  0.00     0.259 C 
HETATM    3  N   UNL     1       8.238  28.047  56.485  1.00  0.00    -0.264 N 
HETATM    4  H   UNL     1       7.820  28.633  55.750  1.00  0.00     0.190 HD
HETATM    5  O   UNL     1       8.389  26.037  57.559  1.00  0.00    -0.269 OA
BRANCH   3   6
HETATM    6  N   UNL     1       8.864  28.715  57.546  1.00  0.00    -0.249 N 
HETATM    7  C   UNL     1       8.070  29.503  58.367  1.00  0.00     0.339 C 
HETATM    8  N   UNL     1       8.823  30.138  59.332  1.00  0.00    -0.308 N 
HETATM    9  O   UNL     1       6.852  29.554  58.231  1.00  0.00    -0.245 OA
HETATM   10  H   UNL     1       9.787  29.848  59.392  1.00  0.00     0.170 HD
HETATM   11  H   UNL     1       9.835  28.964  57.378  1.00  0.00     0.192 HD
BRANCH   8  12
HETATM   12  C   UNL     1       8.368  31.022  60.331  1.00  0.00     0.036 A 
HETATM   13  C   UNL     1       7.498  32.088  60.091  1.00  0.00     0.029 A 
HETATM   14  C   UNL     1       7.089  32.920  61.140  1.00  0.00     0.002 A 
HETATM   15  C   UNL     1       7.547  32.694  62.434  1.00  0.00     0.000 A 
HETATM   16  C   UNL     1       8.419  31.638  62.684  1.00  0.00     0.002 A 
HETATM   17  C   UNL     1       8.829  30.808  61.637  1.00  0.00     0.029 A 
ENDBRANCH   8  12
ENDBRANCH   3   6
ENDBRANCH   1   2
BRANCH   1  18
HETATM   18  N   UNL     1       7.356  24.655  55.325  1.00  0.00    -0.343 N 
HETATM   19  C   UNL     1       7.790  24.080  54.154  1.00  0.00     0.259 C 
HETATM   20  O   UNL     1       7.847  24.737  53.116  1.00  0.00    -0.267 OA
HETATM   21  H   UNL     1       7.441  24.091  56.163  1.00  0.00     0.163 HD
BRANCH  19  22
HETATM   22  C   UNL     1       8.131  22.666  54.214  1.00  0.00     0.072 A 
HETATM   23  S   UNL     1       8.601  21.893  55.671  1.00  0.00    -0.097 SA
HETATM   24  C   UNL     1       8.769  20.378  54.896  1.00  0.00     0.050 A 
HETATM   25  C   UNL     1       8.483  20.452  53.551  1.00  0.00     0.009 A 
HETATM   26  C   UNL     1       8.121  21.772  53.158  1.00  0.00     0.025 A 
ENDBRANCH  19  22
ENDBRANCH   1  18
BRANCH   1  27
HETATM   27  C   UNL     1       5.602  26.452  55.696  1.00  0.00     0.076 C 
BRANCH  27  28
HETATM   28  C   UNL     1       4.986  27.087  54.485  1.00  0.00    -0.028 A 
HETATM   29  C   UNL     1       4.446  28.409  54.374  1.00  0.00    -0.002 A 
HETATM   30  C   UNL     1       3.993  28.566  53.064  1.00  0.00     0.042 A 
HETATM   31  C   UNL     1       4.300  29.490  55.267  1.00  0.00     0.014 A 
HETATM   32  C   UNL     1       3.408  29.750  52.598  1.00  0.00     0.030 A 
HETATM   33  N   UNL     1       4.235  27.383  52.406  1.00  0.00    -0.365 N 
HETATM   34  C   UNL     1       3.282  30.808  53.502  1.00  0.00     0.002 A 
HETATM   35  C   UNL     1       3.719  30.683  54.818  1.00  0.00     0.001 A 
HETATM   36  H   UNL     1       3.999  27.206  51.439  1.00  0.00     0.165 HD
HETATM   37  C   UNL     1       4.833  26.488  53.249  1.00  0.00     0.096 A 
ENDBRANCH  27  28
ENDBRANCH   1  27
TORSDOF 7
ENDMDL
MODEL 8
REMARK VINA RESULT:      -9.8      2.721      7.765
REMARK  7 active torsions:
REMARK  status: ('A' for Active; 'I' for Inactive)
REMARK    1  A    between atoms: C_4  and  N_5 
REMARK       I    between atoms: N_5  and  C_6 
REMARK       I    between atoms: C_6  and  N_7 
REMARK    2  A    between atoms: N_7  and  N_8 
REMARK       I    between atoms: N_8  and  C_9 
REMARK    3  A    between atoms: C_9  and  C_10 
REMARK    4  A    between atoms: C_10  and  N_11 
REMARK    5  A    between atoms: C_10  and  C_19 
REMARK       I    between atoms: N_11  and  C_12 
REMARK    6  A    between atoms: C_12  and  C_13 
REMARK    7  A    between atoms: C_19  and  C_20 
ROOT
HETATM    1  C   UNL     1       6.201  26.853  55.487  1.00  0.00     0.183 C 
ENDROOT
BRANCH   1   2
HETATM    2  C   UNL     1       4.930  27.551  54.968  1.00  0.00     0.259 C 
HETATM    3  N   UNL     1       4.600  27.307  53.653  1.00  0.00    -0.264 N 
HETATM    4  H   UNL     1       5.083  26.599  53.084  1.00  0.00     0.190 HD
HETATM    5  O   UNL     1       4.299  28.355  55.659  1.00  0.00    -0.269 OA
BRANCH   3   6
HETATM    6  N   UNL     1       3.372  27.779  53.168  1.00  0.00    -0.249 N 
HETATM    7  C   UNL     1       3.332  28.235  51.858  1.00  0.00     0.339 C 
HETATM    8  N   UNL     1       2.080  28.715  51.534  1.00  0.00    -0.308 N 
HETATM    9  O   UNL     1       4.306  28.156  51.116  1.00  0.00    -0.245 OA
HETATM   10  H   UNL     1       1.360  28.548  52.220  1.00  0.00     0.170 HD
HETATM   11  H   UNL     1       2.765  28.187  53.873  1.00  0.00     0.192 HD
BRANCH   8  12
HETATM   12  C   UNL     1       1.665  29.266  50.305  1.00  0.00     0.036 A 
HETATM   13  C   UNL     1       1.529  28.529  49.126  1.00  0.00     0.029 A 
HETATM   14  C   UNL     1       1.106  29.150  47.946  1.00  0.00     0.002 A 
HETATM   15  C   UNL     1       0.819  30.511  47.933  1.00  0.00     0.000 A 
HETATM   16  C   UNL     1       0.957  31.257  49.101  1.00  0.00     0.002 A 
HETATM   17  C   UNL     1       1.380  30.638  50.280  1.00  0.00     0.029 A 
ENDBRANCH   8  12
ENDBRANCH   3   6
ENDBRANCH   1   2
BRANCH   1  18
HETATM   18  N   UNL     1       7.047  27.741  56.294  1.00  0.00    -0.343 N 
HETATM   19  C   UNL     1       8.008  28.585  55.789  1.00  0.00     0.259 C 
HETATM   20  O   UNL     1       8.320  28.542  54.601  1.00  0.00    -0.267 OA
HETATM   21  H   UNL     1       6.758  27.906  57.251  1.00  0.00     0.163 HD
BRANCH  19  22
HETATM   22  C   UNL     1       8.645  29.483  56.742  1.00  0.00     0.072 A 
HETATM   23  S   UNL     1      10.310  29.883  56.658  1.00  0.00    -0.097 SA
HETATM   24  C   UNL     1      10.202  30.918  58.015  1.00  0.00     0.050 A 
HETATM   25  C   UNL     1       8.928  30.956  58.534  1.00  0.00     0.009 A 
HETATM   26  C   UNL     1       8.033  30.125  57.803  1.00  0.00     0.025 A 
ENDBRANCH  19  22
ENDBRANCH   1  18
BRANCH   1  27
HETATM   27  C   UNL     1       5.837  25.514  56.151  1.00  0.00     0.076 C 
BRANCH  27  28
HETATM   28  C   UNL     1       6.967  24.528  56.168  1.00  0.00    -0.028 A 
HETATM   29  C   UNL     1       7.427  23.712  55.085  1.00  0.00    -0.002 A 
HETATM   30  C   UNL     1       8.503  22.960  55.557  1.00  0.00     0.042 A 
HETATM   31  C   UNL     1       7.029  23.542  53.742  1.00  0.00     0.014 A 
HETATM   32  C   UNL     1       9.206  22.052  54.755  1.00  0.00     0.030 A 
HETATM   33  N   UNL     1       8.683  23.294  56.878  1.00  0.00    -0.365 N 
HETATM   34  C   UNL     1       8.795  21.909  53.427  1.00  0.00     0.002 A 
HETATM   35  C   UNL     1       7.722  22.641  52.926  1.00  0.00     0.001 A 
HETATM   36  H   UNL     1       9.390  22.894  57.480  1.00  0.00     0.165 HD
HETATM   37  C   UNL     1       7.767  24.237  57.255  1.00  0.00     0.096 A 
ENDBRANCH  27  28
ENDBRANCH   1  27
TORSDOF 7
ENDMDL
MODEL 9
REMARK VINA RESULT:      -9.6      3.127      8.275
REMARK  7 active torsions:
REMARK  status: ('A' for Active; 'I' for Inactive)
REMARK    1  A    between atoms: C_4  and  N_5 
REMARK       I    between atoms: N_5  and  C_6 
REMARK       I    between atoms: C_6  and  N_7 
REMARK    2  A    between atoms: N_7  and  N_8 
REMARK       I    between atoms: N_8  and  C_9 
REMARK    3  A    between atoms: C_9  and  C_10 
REMARK    4  A    between atoms: C_10  and  N_11 
REMARK    5  A    between atoms: C_10  and  C_19 
REMARK       I    between atoms: N_11  and  C_12 
REMARK    6  A    between atoms: C_12  and  C_13 
REMARK    7  A    between atoms: C_19  and  C_20 
ROOT
HETATM    1  C   UNL     1       6.364  26.035  54.557  1.00  0.00     0.183 C 
ENDROOT
BRANCH   1   2
HETATM    2  C   UNL     1       5.154  26.289  53.638  1.00  0.00     0.259 C 
HETATM    3  N   UNL     1       4.252  27.233  54.075  1.00  0.00    -0.264 N 
HETATM    4  H   UNL     1       4.431  27.836  54.889  1.00  0.00     0.190 HD
HETATM    5  O   UNL     1       4.956  25.620  52.620  1.00  0.00    -0.269 OA
BRANCH   3   6
HETATM    6  N   UNL     1       3.219  27.627  53.212  1.00  0.00    -0.249 N 
HETATM    7  C   UNL     1       3.467  28.694  52.359  1.00  0.00     0.339 C 
HETATM    8  N   UNL     1       2.352  29.004  51.609  1.00  0.00    -0.308 N 
HETATM    9  O   UNL     1       4.571  29.225  52.294  1.00  0.00    -0.245 OA
HETATM   10  H   UNL     1       1.585  28.353  51.680  1.00  0.00     0.170 HD
HETATM   11  H   UNL     1       2.282  27.461  53.567  1.00  0.00     0.192 HD
BRANCH   8  12
HETATM   12  C   UNL     1       2.222  30.028  50.649  1.00  0.00     0.036 A 
HETATM   13  C   UNL     1       2.213  31.390  50.958  1.00  0.00     0.029 A 
HETATM   14  C   UNL     1       2.084  32.346  49.945  1.00  0.00     0.002 A 
HETATM   15  C   UNL     1       1.961  31.950  48.617  1.00  0.00     0.000 A 
HETATM   16  C   UNL     1       1.964  30.595  48.298  1.00  0.00     0.002 A 
HETATM   17  C   UNL     1       2.091  29.639  49.309  1.00  0.00     0.029 A 
ENDBRANCH   8  12
ENDBRANCH   3   6
ENDBRANCH   1   2
BRANCH   1  18
HETATM   18  N   UNL     1       7.021  24.750  54.288  1.00  0.00    -0.343 N 
HETATM   19  C   UNL     1       7.170  23.736  55.204  1.00  0.00     0.259 C 
HETATM   20  O   UNL     1       6.871  23.907  56.384  1.00  0.00    -0.267 OA
HETATM   21  H   UNL     1       7.177  24.508  53.317  1.00  0.00     0.163 HD
BRANCH  19  22
HETATM   22  C   UNL     1       7.729  22.489  54.703  1.00  0.00     0.072 A 
HETATM   23  S   UNL     1       8.270  21.238  55.745  1.00  0.00    -0.097 SA
HETATM   24  C   UNL     1       8.700  20.233  54.430  1.00  0.00     0.050 A 
HETATM   25  C   UNL     1       8.449  20.834  53.217  1.00  0.00     0.009 A 
HETATM   26  C   UNL     1       7.894  22.136  53.376  1.00  0.00     0.025 A 
ENDBRANCH  19  22
ENDBRANCH   1  18
BRANCH   1  27
HETATM   27  C   UNL     1       7.296  27.259  54.557  1.00  0.00     0.076 C 
BRANCH  27  28
HETATM   28  C   UNL     1       7.390  27.940  55.890  1.00  0.00    -0.028 A 
HETATM   29  C   UNL     1       8.448  28.778  56.368  1.00  0.00    -0.002 A 
HETATM   30  C   UNL     1       8.103  29.194  57.654  1.00  0.00     0.042 A 
HETATM   31  C   UNL     1       9.671  29.226  55.825  1.00  0.00     0.014 A 
HETATM   32  C   UNL     1       8.913  30.038  58.423  1.00  0.00     0.030 A 
HETATM   33  N   UNL     1       6.890  28.620  57.954  1.00  0.00    -0.365 N 
HETATM   34  C   UNL     1      10.115  30.473  57.858  1.00  0.00     0.002 A 
HETATM   35  C   UNL     1      10.492  30.073  56.579  1.00  0.00     0.001 A 
HETATM   36  H   UNL     1       6.400  28.740  58.830  1.00  0.00     0.165 HD
HETATM   37  C   UNL     1       6.451  27.867  56.901  1.00  0.00     0.096 A 
ENDBRANCH  27  28
ENDBRANCH   1  27
TORSDOF 7
ENDMDL
MODEL 10
REMARK VINA RESULT:      -9.6      2.161      5.682
REMARK  7 active torsions:
REMARK  status: ('A' for Active; 'I' for Inactive)
REMARK    1  A    between atoms: C_4  and  N_5 
REMARK       I    between atoms: N_5  and  C_6 
REMARK       I    between atoms: C_6  and  N_7 
REMARK    2  A    between atoms: N_7  and  N_8 
REMARK       I    between atoms: N_8  and  C_9 
REMARK    3  A    between atoms: C_9  and  C_10 
REMARK    4  A    between atoms: C_10  and  N_11 
REMARK    5  A    between atoms: C_10  and  C_19 
REMARK       I    between atoms: N_11  and  C_12 
REMARK    6  A    between atoms: C_12  and  C_13 
REMARK    7  A    between atoms: C_19  and  C_20 
ROOT
HETATM    1  C   UNL     1       6.571  27.217  53.860  1.00  0.00     0.183 C 
ENDROOT
BRANCH   1   2
HETATM    2  C   UNL     1       6.729  28.391  54.845  1.00  0.00     0.259 C 
HETATM    3  N   UNL     1       7.942  28.479  55.491  1.00  0.00    -0.264 N 
HETATM    4  H   UNL     1       8.747  27.890  55.240  1.00  0.00     0.190 HD
HETATM    5  O   UNL     1       5.792  29.150  55.110  1.00  0.00    -0.269 OA
BRANCH   3   6
HETATM    6  N   UNL     1       8.207  29.612  56.273  1.00  0.00    -0.249 N 
HETATM    7  C   UNL     1       8.056  29.493  57.648  1.00  0.00     0.339 C 
HETATM    8  N   UNL     1       8.298  30.693  58.283  1.00  0.00    -0.308 N 
HETATM    9  O   UNL     1       7.783  28.421  58.177  1.00  0.00    -0.245 OA
HETATM   10  H   UNL     1       8.670  31.426  57.700  1.00  0.00     0.170 HD
HETATM   11  H   UNL     1       8.027  30.499  55.811  1.00  0.00     0.192 HD
BRANCH   8  12
HETATM   12  C   UNL     1       8.232  30.960  59.665  1.00  0.00     0.036 A 
HETATM   13  C   UNL     1       7.160  31.607  60.284  1.00  0.00     0.029 A 
HETATM   14  C   UNL     1       7.168  31.831  61.665  1.00  0.00     0.002 A 
HETATM   15  C   UNL     1       8.246  31.413  62.438  1.00  0.00     0.000 A 
HETATM   16  C   UNL     1       9.323  30.772  61.831  1.00  0.00     0.002 A 
HETATM   17  C   UNL     1       9.317  30.549  60.452  1.00  0.00     0.029 A 
ENDBRANCH   8  12
ENDBRANCH   3   6
ENDBRANCH   1   2
BRANCH   1  18
HETATM   18  N   UNL     1       6.839  25.915  54.482  1.00  0.00    -0.343 N 
HETATM   19  C   UNL     1       7.624  24.928  53.935  1.00  0.00     0.259 C 
HETATM   20  O   UNL     1       8.052  25.030  52.788  1.00  0.00    -0.267 OA
HETATM   21  H   UNL     1       6.615  25.820  55.466  1.00  0.00     0.163 HD
BRANCH  19  22
HETATM   22  C   UNL     1       7.874  23.763  54.771  1.00  0.00     0.072 A 
HETATM   23  S   UNL     1       8.372  23.892  56.407  1.00  0.00    -0.097 SA
HETATM   24  C   UNL     1       8.397  22.194  56.608  1.00  0.00     0.050 A 
HETATM   25  C   UNL     1       8.044  21.533  55.454  1.00  0.00     0.009 A 
HETATM   26  C   UNL     1       7.748  22.437  54.394  1.00  0.00     0.025 A 
ENDBRANCH  19  22
ENDBRANCH   1  18
BRANCH   1  27
HETATM   27  C   UNL     1       5.229  27.325  53.117  1.00  0.00     0.076 C 
BRANCH  27  28
HETATM   28  C   UNL     1       5.326  28.048  51.807  1.00  0.00    -0.028 A 
HETATM   29  C   UNL     1       5.092  27.515  50.498  1.00  0.00    -0.002 A 
HETATM   30  C   UNL     1       5.291  28.550  49.585  1.00  0.00     0.042 A 
HETATM   31  C   UNL     1       4.728  26.246  50.003  1.00  0.00     0.014 A 
HETATM   32  C   UNL     1       5.137  28.385  48.203  1.00  0.00     0.030 A 
HETATM   33  N   UNL     1       5.645  29.666  50.306  1.00  0.00    -0.365 N 
HETATM   34  C   UNL     1       4.768  27.119  47.740  1.00  0.00     0.002 A 
HETATM   35  C   UNL     1       4.567  26.063  48.624  1.00  0.00     0.001 A 
HETATM   36  H   UNL     1       5.860  30.567  49.901  1.00  0.00     0.165 HD
HETATM   37  C   UNL     1       5.667  29.377  51.642  1.00  0.00     0.096 A 
ENDBRANCH  27  28
ENDBRANCH   1  27
TORSDOF 7
ENDMDL
