MODEL 1
REMARK VINA RESULT:      -8.7      0.000      0.000
REMARK  6 active torsions:
REMARK  status: ('A' for Active; 'I' for Inactive)
REMARK    1  A    between atoms: C_2  and  N_3 
REMARK    2  A    between atoms: C_5  and  C_6 
REMARK    3  A    between atoms: C_6  and  N_7 
REMARK       I    between atoms: N_7  and  C_8 
REMARK    4  A    between atoms: C_8  and  C_9 
REMARK    5  A    between atoms: C_9  and  C_10 
REMARK    6  A    between atoms: C_11  and  C_12 
ROOT
HETATM    1  C   UNL     1       6.666  26.239  52.980  1.00  0.00     0.005 A 
HETATM    2  C   UNL     1       6.421  24.868  53.090  1.00  0.00     0.069 A 
HETATM    3  N   UNL     1       5.281  24.662  52.345  1.00  0.00    -0.277 N 
HETATM    4  H   UNL     1       4.789  23.789  52.194  1.00  0.00     0.189 HD
HETATM    5  N   UNL     1       4.782  25.763  51.777  1.00  0.00    -0.179 NA
HETATM    6  C   UNL     1       5.661  26.716  52.082  1.00  0.00     0.059 A 
HETATM    7  C   UNL     1       5.482  28.071  51.498  1.00  0.00     0.073 C 
ENDROOT
BRANCH   1   8
HETATM    8  C   UNL     1       7.747  27.072  53.596  1.00  0.00     0.146 C 
BRANCH   8   9
HETATM    9  C   UNL     1       7.292  27.643  54.934  1.00  0.00     0.222 C 
HETATM   10  N   UNL     1       7.724  28.914  55.240  1.00  0.00    -0.359 N 
HETATM   11  H   UNL     1       8.471  29.308  54.678  1.00  0.00     0.162 HD
HETATM   12  O   UNL     1       6.509  27.066  55.689  1.00  0.00    -0.273 OA
BRANCH  10  13
HETATM   13  C   UNL     1       7.406  29.571  56.504  1.00  0.00     0.155 C 
BRANCH  13  14
HETATM   14  C   UNL     1       8.480  29.471  57.624  1.00  0.00     0.206 C 
HETATM   15  N   UNL     1       8.629  30.785  58.394  1.00  0.00    -0.066 N 
HETATM   16  H   UNL     1       8.110  31.506  57.848  1.00  0.00     0.280 HD
HETATM   17  C   UNL     1      10.082  31.184  58.349  1.00  0.00     0.235 C 
HETATM   18  C   UNL     1      10.611  30.495  57.111  1.00  0.00     0.030 C 
HETATM   19  C   UNL     1       9.889  29.163  57.116  1.00  0.00     0.036 C 
BRANCH  15  20
HETATM   20  C   UNL     1       8.001  30.787  59.757  1.00  0.00     0.231 C 
HETATM   21  C   UNL     1       9.057  30.604  60.832  1.00  0.00     0.034 C 
ENDBRANCH  15  20
ENDBRANCH  13  14
ENDBRANCH  10  13
ENDBRANCH   8   9
ENDBRANCH   1   8
BRANCH   2  22
HETATM   22  C   UNL     1       7.094  23.750  53.768  1.00  0.00    -0.007 A 
HETATM   23  C   UNL     1       7.084  23.612  55.161  1.00  0.00     0.015 A 
HETATM   24  C   UNL     1       7.707  22.528  55.791  1.00  0.00     0.024 A 
HETATM   25  C   UNL     1       8.348  21.558  55.029  1.00  0.00     0.034 A 
HETATM   26 CL   UNL     1       9.098  20.219  55.801  1.00  0.00    -0.084 Cl
HETATM   27  C   UNL     1       8.380  21.672  53.644  1.00  0.00     0.024 A 
HETATM   28  C   UNL     1       7.763  22.763  53.020  1.00  0.00     0.015 A 
ENDBRANCH   2  22
TORSDOF 6
ENDMDL
MODEL 2
REMARK VINA RESULT:      -8.6      2.517      6.644
REMARK  6 active torsions:
REMARK  status: ('A' for Active; 'I' for Inactive)
REMARK    1  A    between atoms: C_2  and  N_3 
REMARK    2  A    between atoms: C_5  and  C_6 
REMARK    3  A    between atoms: C_6  and  N_7 
REMARK       I    between atoms: N_7  and  C_8 
REMARK    4  A    between atoms: C_8  and  C_9 
REMARK    5  A    between atoms: C_9  and  C_10 
REMARK    6  A    between atoms: C_11  and  C_12 
ROOT
HETATM    1  C   UNL     1       6.661  26.513  55.944  1.00  0.00     0.005 A 
HETATM    2  C   UNL     1       7.573  25.456  55.989  1.00  0.00     0.069 A 
HETATM    3  N   UNL     1       8.442  25.794  57.003  1.00  0.00    -0.277 N 
HETATM    4  H   UNL     1       9.249  25.273  57.326  1.00  0.00     0.189 HD
HETATM    5  N   UNL     1       8.173  26.956  57.601  1.00  0.00    -0.179 NA
HETATM    6  C   UNL     1       7.041  27.365  57.028  1.00  0.00     0.059 A 
HETATM    7  C   UNL     1       6.375  28.588  57.547  1.00  0.00     0.073 C 
ENDROOT
BRANCH   1   8
HETATM    8  C   UNL     1       5.498  26.738  55.029  1.00  0.00     0.146 C 
BRANCH   8   9
HETATM    9  C   UNL     1       5.973  26.957  53.598  1.00  0.00     0.222 C 
HETATM   10  N   UNL     1       5.308  26.261  52.614  1.00  0.00    -0.359 N 
HETATM   11  H   UNL     1       4.701  25.501  52.902  1.00  0.00     0.162 HD
HETATM   12  O   UNL     1       6.843  27.773  53.287  1.00  0.00    -0.273 OA
BRANCH  10  13
HETATM   13  C   UNL     1       5.682  26.336  51.205  1.00  0.00     0.155 C 
BRANCH  13  14
HETATM   14  C   UNL     1       4.741  27.164  50.284  1.00  0.00     0.206 C 
HETATM   15  N   UNL     1       5.340  27.374  48.892  1.00  0.00    -0.066 N 
HETATM   16  H   UNL     1       6.338  27.079  48.955  1.00  0.00     0.280 HD
HETATM   17  C   UNL     1       5.353  28.856  48.614  1.00  0.00     0.235 C 
HETATM   18  C   UNL     1       5.358  29.484  49.989  1.00  0.00     0.030 C 
HETATM   19  C   UNL     1       4.450  28.576  50.793  1.00  0.00     0.036 C 
BRANCH  15  20
HETATM   20  C   UNL     1       4.738  26.521  47.816  1.00  0.00     0.231 C 
HETATM   21  C   UNL     1       3.442  25.892  48.294  1.00  0.00     0.034 C 
ENDBRANCH  15  20
ENDBRANCH  13  14
ENDBRANCH  10  13
ENDBRANCH   8   9
ENDBRANCH   1   8
BRANCH   2  22
HETATM   22  C   UNL     1       7.734  24.199  55.242  1.00  0.00    -0.007 A 
HETATM   23  C   UNL     1       7.588  22.948  55.853  1.00  0.00     0.015 A 
HETATM   24  C   UNL     1       7.719  21.760  55.124  1.00  0.00     0.024 A 
HETATM   25  C   UNL     1       7.995  21.809  53.762  1.00  0.00     0.034 A 
HETATM   26 CL   UNL     1       8.139  20.352  52.864  1.00  0.00    -0.084 Cl
HETATM   27  C   UNL     1       8.153  23.037  53.130  1.00  0.00     0.024 A 
HETATM   28  C   UNL     1       8.029  24.221  53.866  1.00  0.00     0.015 A 
ENDBRANCH   2  22
TORSDOF 6
ENDMDL
MODEL 3
REMARK VINA RESULT:      -8.5      3.738      7.290
REMARK  6 active torsions:
REMARK  status: ('A' for Active; 'I' for Inactive)
REMARK    1  A    between atoms: C_2  and  N_3 
REMARK    2  A    between atoms: C_5  and  C_6 
REMARK    3  A    between atoms: C_6  and  N_7 
REMARK       I    between atoms: N_7  and  C_8 
REMARK    4  A    between atoms: C_8  and  C_9 
REMARK    5  A    between atoms: C_9  and  C_10 
REMARK    6  A    between atoms: C_11  and  C_12 
ROOT
HETATM    1  C   UNL     1       5.401  26.262  54.065  1.00  0.00     0.005 A 
HETATM    2  C   UNL     1       6.409  25.495  54.655  1.00  0.00     0.069 A 
HETATM    3  N   UNL     1       6.816  26.238  55.741  1.00  0.00    -0.277 N 
HETATM    4  H   UNL     1       7.541  26.009  56.410  1.00  0.00     0.189 HD
HETATM    5  N   UNL     1       6.170  27.396  55.896  1.00  0.00    -0.179 NA
HETATM    6  C   UNL     1       5.246  27.386  54.936  1.00  0.00     0.059 A 
HETATM    7  C   UNL     1       4.248  28.487  54.888  1.00  0.00     0.073 C 
ENDROOT
BRANCH   1   8
HETATM    8  C   UNL     1       4.594  26.001  52.832  1.00  0.00     0.146 C 
BRANCH   8   9
HETATM    9  C   UNL     1       4.926  27.016  51.745  1.00  0.00     0.222 C 
HETATM   10  N   UNL     1       3.884  27.789  51.285  1.00  0.00    -0.359 N 
HETATM   11  H   UNL     1       2.941  27.507  51.531  1.00  0.00     0.162 HD
HETATM   12  O   UNL     1       6.069  27.225  51.334  1.00  0.00    -0.273 OA
BRANCH  10  13
HETATM   13  C   UNL     1       4.043  28.770  50.215  1.00  0.00     0.155 C 
BRANCH  13  14
HETATM   14  C   UNL     1       3.646  28.304  48.786  1.00  0.00     0.206 C 
HETATM   15  N   UNL     1       2.659  27.135  48.817  1.00  0.00    -0.066 N 
HETATM   16  H   UNL     1       2.641  26.793  49.802  1.00  0.00     0.280 HD
HETATM   17  C   UNL     1       3.243  26.016  47.991  1.00  0.00     0.235 C 
HETATM   18  C   UNL     1       4.731  26.283  48.016  1.00  0.00     0.030 C 
HETATM   19  C   UNL     1       4.817  27.794  47.945  1.00  0.00     0.036 C 
BRANCH  15  20
HETATM   20  C   UNL     1       1.241  27.503  48.495  1.00  0.00     0.231 C 
HETATM   21  C   UNL     1       1.008  27.468  46.996  1.00  0.00     0.034 C 
ENDBRANCH  15  20
ENDBRANCH  13  14
ENDBRANCH  10  13
ENDBRANCH   8   9
ENDBRANCH   1   8
BRANCH   2  22
HETATM   22  C   UNL     1       7.020  24.190  54.358  1.00  0.00    -0.007 A 
HETATM   23  C   UNL     1       7.206  23.216  55.346  1.00  0.00     0.015 A 
HETATM   24  C   UNL     1       7.766  21.969  55.044  1.00  0.00     0.024 A 
HETATM   25  C   UNL     1       8.145  21.677  53.739  1.00  0.00     0.034 A 
HETATM   26 CL   UNL     1       8.817  20.141  53.365  1.00  0.00    -0.084 Cl
HETATM   27  C   UNL     1       7.980  22.628  52.739  1.00  0.00     0.024 A 
HETATM   28  C   UNL     1       7.427  23.876  53.048  1.00  0.00     0.015 A 
ENDBRANCH   2  22
TORSDOF 6
ENDMDL
MODEL 4
REMARK VINA RESULT:      -8.5      2.449      5.863
REMARK  6 active torsions:
REMARK  status: ('A' for Active; 'I' for Inactive)
REMARK    1  A    between atoms: C_2  and  N_3 
REMARK    2  A    between atoms: C_5  and  C_6 
REMARK    3  A    between atoms: C_6  and  N_7 
REMARK       I    between atoms: N_7  and  C_8 
REMARK    4  A    between atoms: C_8  and  C_9 
REMARK    5  A    between atoms: C_9  and  C_10 
REMARK    6  A    between atoms: C_11  and  C_12 
ROOT
HETATM    1  C   UNL     1       7.609  26.620  55.990  1.00  0.00     0.005 A 
HETATM    2  C   UNL     1       7.731  25.243  56.192  1.00  0.00     0.069 A 
HETATM    3  N   UNL     1       7.758  25.098  57.561  1.00  0.00    -0.277 N 
HETATM    4  H   UNL     1       7.848  24.238  58.091  1.00  0.00     0.189 HD
HETATM    5  N   UNL     1       7.668  26.241  58.244  1.00  0.00    -0.179 NA
HETATM    6  C   UNL     1       7.489  27.169  57.305  1.00  0.00     0.059 A 
HETATM    7  C   UNL     1       7.223  28.571  57.722  1.00  0.00     0.073 C 
ENDROOT
BRANCH   1   8
HETATM    8  C   UNL     1       7.559  27.401  54.714  1.00  0.00     0.146 C 
BRANCH   8   9
HETATM    9  C   UNL     1       6.118  27.722  54.335  1.00  0.00     0.222 C 
HETATM   10  N   UNL     1       5.924  28.808  53.512  1.00  0.00    -0.359 N 
HETATM   11  H   UNL     1       6.703  29.445  53.378  1.00  0.00     0.162 HD
HETATM   12  O   UNL     1       5.157  27.020  54.656  1.00  0.00    -0.273 OA
BRANCH  10  13
HETATM   13  C   UNL     1       4.598  29.261  53.103  1.00  0.00     0.155 C 
BRANCH  13  14
HETATM   14  C   UNL     1       4.239  29.081  51.600  1.00  0.00     0.206 C 
HETATM   15  N   UNL     1       5.283  28.246  50.857  1.00  0.00    -0.066 N 
HETATM   16  H   UNL     1       6.102  28.162  51.497  1.00  0.00     0.280 HD
HETATM   17  C   UNL     1       5.755  29.047  49.670  1.00  0.00     0.235 C 
HETATM   18  C   UNL     1       5.478  30.480  50.064  1.00  0.00     0.030 C 
HETATM   19  C   UNL     1       4.164  30.390  50.813  1.00  0.00     0.036 C 
BRANCH  15  20
HETATM   20  C   UNL     1       4.863  26.837  50.559  1.00  0.00     0.231 C 
HETATM   21  C   UNL     1       5.782  25.847  51.251  1.00  0.00     0.034 C 
ENDBRANCH  15  20
ENDBRANCH  13  14
ENDBRANCH  10  13
ENDBRANCH   8   9
ENDBRANCH   1   8
BRANCH   2  22
HETATM   22  C   UNL     1       7.811  24.072  55.305  1.00  0.00    -0.007 A 
HETATM   23  C   UNL     1       7.953  24.200  53.918  1.00  0.00     0.015 A 
HETATM   24  C   UNL     1       8.054  23.076  53.090  1.00  0.00     0.024 A 
HETATM   25  C   UNL     1       8.018  21.801  53.642  1.00  0.00     0.034 A 
HETATM   26 CL   UNL     1       8.158  20.422  52.627  1.00  0.00    -0.084 Cl
HETATM   27  C   UNL     1       7.869  21.644  55.015  1.00  0.00     0.024 A 
HETATM   28  C   UNL     1       7.761  22.771  55.838  1.00  0.00     0.015 A 
ENDBRANCH   2  22
TORSDOF 6
ENDMDL
MODEL 5
REMARK VINA RESULT:      -8.4      2.875      6.721
REMARK  6 active torsions:
REMARK  status: ('A' for Active; 'I' for Inactive)
REMARK    1  A    between atoms: C_2  and  N_3 
REMARK    2  A    between atoms: C_5  and  C_6 
REMARK    3  A    between atoms: C_6  and  N_7 
REMARK       I    between atoms: N_7  and  C_8 
REMARK    4  A    between atoms: C_8  and  C_9 
REMARK    5  A    between atoms: C_9  and  C_10 
REMARK    6  A    between atoms: C_11  and  C_12 
ROOT
HETATM    1  C   UNL     1       6.831  26.957  54.718  1.00  0.00     0.005 A 
HETATM    2  C   UNL     1       7.026  25.683  55.255  1.00  0.00     0.069 A 
HETATM    3  N   UNL     1       6.788  25.836  56.602  1.00  0.00    -0.277 N 
HETATM    4  H   UNL     1       6.841  25.129  57.326  1.00  0.00     0.189 HD
HETATM    5  N   UNL     1       6.462  27.078  56.971  1.00  0.00    -0.179 NA
HETATM    6  C   UNL     1       6.398  27.753  55.825  1.00  0.00     0.059 A 
HETATM    7  C   UNL     1       5.933  29.165  55.848  1.00  0.00     0.073 C 
ENDROOT
BRANCH   1   8
HETATM    8  C   UNL     1       6.973  27.436  53.307  1.00  0.00     0.146 C 
BRANCH   8   9
HETATM    9  C   UNL     1       5.765  27.026  52.473  1.00  0.00     0.222 C 
HETATM   10  N   UNL     1       6.025  26.360  51.297  1.00  0.00    -0.359 N 
HETATM   11  H   UNL     1       6.978  26.366  50.951  1.00  0.00     0.162 HD
HETATM   12  O   UNL     1       4.599  27.186  52.840  1.00  0.00    -0.273 OA
BRANCH  10  13
HETATM   13  C   UNL     1       4.971  25.947  50.376  1.00  0.00     0.155 C 
BRANCH  13  14
HETATM   14  C   UNL     1       4.556  26.981  49.291  1.00  0.00     0.206 C 
HETATM   15  N   UNL     1       3.388  27.856  49.750  1.00  0.00    -0.066 N 
HETATM   16  H   UNL     1       3.010  27.412  50.614  1.00  0.00     0.280 HD
HETATM   17  C   UNL     1       2.299  27.752  48.711  1.00  0.00     0.235 C 
HETATM   18  C   UNL     1       2.564  26.426  48.037  1.00  0.00     0.030 C 
HETATM   19  C   UNL     1       4.076  26.356  47.980  1.00  0.00     0.036 C 
BRANCH  15  20
HETATM   20  C   UNL     1       3.768  29.250  50.149  1.00  0.00     0.231 C 
HETATM   21  C   UNL     1       5.178  29.572  49.688  1.00  0.00     0.034 C 
ENDBRANCH  15  20
ENDBRANCH  13  14
ENDBRANCH  10  13
ENDBRANCH   8   9
ENDBRANCH   1   8
BRANCH   2  22
HETATM   22  C   UNL     1       7.385  24.370  54.695  1.00  0.00    -0.007 A 
HETATM   23  C   UNL     1       7.329  23.198  55.457  1.00  0.00     0.015 A 
HETATM   24  C   UNL     1       7.649  21.952  54.903  1.00  0.00     0.024 A 
HETATM   25  C   UNL     1       8.027  21.863  53.569  1.00  0.00     0.034 A 
HETATM   26 CL   UNL     1       8.404  20.333  52.885  1.00  0.00    -0.084 Cl
HETATM   27  C   UNL     1       8.100  23.012  52.790  1.00  0.00     0.024 A 
HETATM   28  C   UNL     1       7.786  24.256  53.351  1.00  0.00     0.015 A 
ENDBRANCH   2  22
TORSDOF 6
ENDMDL
MODEL 6
REMARK VINA RESULT:      -8.3      2.999      5.018
REMARK  6 active torsions:
REMARK  status: ('A' for Active; 'I' for Inactive)
REMARK    1  A    between atoms: C_2  and  N_3 
REMARK    2  A    between atoms: C_5  and  C_6 
REMARK    3  A    between atoms: C_6  and  N_7 
REMARK       I    between atoms: N_7  and  C_8 
REMARK    4  A    between atoms: C_8  and  C_9 
REMARK    5  A    between atoms: C_9  and  C_10 
REMARK    6  A    between atoms: C_11  and  C_12 
ROOT
HETATM    1  C   UNL     1       7.670  22.308  54.873  1.00  0.00     0.005 A 
HETATM    2  C   UNL     1       7.519  22.912  53.623  1.00  0.00     0.069 A 
HETATM    3  N   UNL     1       8.224  22.101  52.762  1.00  0.00    -0.277 N 
HETATM    4  H   UNL     1       8.354  22.221  51.764  1.00  0.00     0.189 HD
HETATM    5  N   UNL     1       8.806  21.048  53.341  1.00  0.00    -0.179 NA
HETATM    6  C   UNL     1       8.406  21.110  54.610  1.00  0.00     0.059 A 
HETATM    7  C   UNL     1       8.772  20.005  55.534  1.00  0.00     0.073 C 
ENDROOT
BRANCH   1   8
HETATM    8  C   UNL     1       7.159  22.737  56.213  1.00  0.00     0.146 C 
BRANCH   8   9
HETATM    9  C   UNL     1       7.943  23.938  56.730  1.00  0.00     0.222 C 
HETATM   10  N   UNL     1       7.233  24.879  57.440  1.00  0.00    -0.359 N 
HETATM   11  H   UNL     1       6.220  24.836  57.400  1.00  0.00     0.162 HD
HETATM   12  O   UNL     1       9.165  24.053  56.615  1.00  0.00    -0.273 OA
BRANCH  10  13
HETATM   13  C   UNL     1       7.841  26.101  57.956  1.00  0.00     0.155 C 
BRANCH  13  14
HETATM   14  C   UNL     1       7.718  27.366  57.060  1.00  0.00     0.206 C 
HETATM   15  N   UNL     1       7.400  28.620  57.877  1.00  0.00    -0.066 N 
HETATM   16  H   UNL     1       7.139  28.290  58.832  1.00  0.00     0.280 HD
HETATM   17  C   UNL     1       6.159  29.249  57.294  1.00  0.00     0.235 C 
HETATM   18  C   UNL     1       5.458  28.100  56.607  1.00  0.00     0.030 C 
HETATM   19  C   UNL     1       6.598  27.292  56.021  1.00  0.00     0.036 C 
BRANCH  15  20
HETATM   20  C   UNL     1       8.561  29.548  58.078  1.00  0.00     0.231 C 
HETATM   21  C   UNL     1       9.648  29.273  57.055  1.00  0.00     0.034 C 
ENDBRANCH  15  20
ENDBRANCH  13  14
ENDBRANCH  10  13
ENDBRANCH   8   9
ENDBRANCH   1   8
BRANCH   2  22
HETATM   22  C   UNL     1       6.814  24.106  53.131  1.00  0.00    -0.007 A 
HETATM   23  C   UNL     1       7.319  24.887  52.085  1.00  0.00     0.015 A 
HETATM   24  C   UNL     1       6.624  26.006  51.610  1.00  0.00     0.024 A 
HETATM   25  C   UNL     1       5.404  26.357  52.176  1.00  0.00     0.034 A 
HETATM   26 CL   UNL     1       4.544  27.719  51.582  1.00  0.00    -0.084 Cl
HETATM   27  C   UNL     1       4.882  25.604  53.221  1.00  0.00     0.024 A 
HETATM   28  C   UNL     1       5.585  24.490  53.697  1.00  0.00     0.015 A 
ENDBRANCH   2  22
TORSDOF 6
ENDMDL
MODEL 7
REMARK VINA RESULT:      -8.1      3.737      8.865
REMARK  6 active torsions:
REMARK  status: ('A' for Active; 'I' for Inactive)
REMARK    1  A    between atoms: C_2  and  N_3 
REMARK    2  A    between atoms: C_5  and  C_6 
REMARK    3  A    between atoms: C_6  and  N_7 
REMARK       I    between atoms: N_7  and  C_8 
REMARK    4  A    between atoms: C_8  and  C_9 
REMARK    5  A    between atoms: C_9  and  C_10 
REMARK    6  A    between atoms: C_11  and  C_12 
ROOT
HETATM    1  C   UNL     1       8.966  30.147  58.465  1.00  0.00     0.005 A 
HETATM    2  C   UNL     1       9.082  31.232  59.337  1.00  0.00     0.069 A 
HETATM    3  N   UNL     1      10.143  31.958  58.843  1.00  0.00    -0.277 N 
HETATM    4  H   UNL     1      10.536  32.814  59.217  1.00  0.00     0.189 HD
HETATM    5  N   UNL     1      10.709  31.441  57.749  1.00  0.00    -0.179 NA
HETATM    6  C   UNL     1       9.951  30.386  57.455  1.00  0.00     0.059 A 
HETATM    7  C   UNL     1      10.223  29.632  56.204  1.00  0.00     0.073 C 
ENDROOT
BRANCH   1   8
HETATM    8  C   UNL     1       8.016  28.990  58.495  1.00  0.00     0.146 C 
BRANCH   8   9
HETATM    9  C   UNL     1       6.900  29.183  57.475  1.00  0.00     0.222 C 
HETATM   10  N   UNL     1       6.081  28.101  57.246  1.00  0.00    -0.359 N 
HETATM   11  H   UNL     1       6.383  27.197  57.594  1.00  0.00     0.162 HD
HETATM   12  O   UNL     1       6.655  30.260  56.929  1.00  0.00    -0.273 OA
BRANCH  10  13
HETATM   13  C   UNL     1       5.000  28.124  56.265  1.00  0.00     0.155 C 
BRANCH  13  14
HETATM   14  C   UNL     1       5.301  27.463  54.889  1.00  0.00     0.206 C 
HETATM   15  N   UNL     1       6.346  26.352  55.003  1.00  0.00    -0.066 N 
HETATM   16  H   UNL     1       6.762  26.436  55.956  1.00  0.00     0.280 HD
HETATM   17  C   UNL     1       7.455  26.659  54.029  1.00  0.00     0.235 C 
HETATM   18  C   UNL     1       7.365  28.156  53.836  1.00  0.00     0.030 C 
HETATM   19  C   UNL     1       5.874  28.422  53.845  1.00  0.00     0.036 C 
BRANCH  15  20
HETATM   20  C   UNL     1       5.791  24.960  54.931  1.00  0.00     0.231 C 
HETATM   21  C   UNL     1       6.901  23.953  54.693  1.00  0.00     0.034 C 
ENDBRANCH  15  20
ENDBRANCH  13  14
ENDBRANCH  10  13
ENDBRANCH   8   9
ENDBRANCH   1   8
BRANCH   2  22
HETATM   22  C   UNL     1       8.349  31.681  60.531  1.00  0.00    -0.007 A 
HETATM   23  C   UNL     1       8.951  31.735  61.794  1.00  0.00     0.015 A 
HETATM   24  C   UNL     1       8.248  32.188  62.917  1.00  0.00     0.024 A 
HETATM   25  C   UNL     1       6.927  32.602  62.788  1.00  0.00     0.034 A 
HETATM   26 CL   UNL     1       6.071  33.174  64.162  1.00  0.00    -0.084 Cl
HETATM   27  C   UNL     1       6.302  32.552  61.548  1.00  0.00     0.024 A 
HETATM   28  C   UNL     1       7.007  32.090  60.430  1.00  0.00     0.015 A 
ENDBRANCH   2  22
TORSDOF 6
ENDMDL
MODEL 8
REMARK VINA RESULT:      -8.1      2.205      6.341
REMARK  6 active torsions:
REMARK  status: ('A' for Active; 'I' for Inactive)
REMARK    1  A    between atoms: C_2  and  N_3 
REMARK    2  A    between atoms: C_5  and  C_6 
REMARK    3  A    between atoms: C_6  and  N_7 
REMARK       I    between atoms: N_7  and  C_8 
REMARK    4  A    between atoms: C_8  and  C_9 
REMARK    5  A    between atoms: C_9  and  C_10 
REMARK    6  A    between atoms: C_11  and  C_12 
ROOT
HETATM    1  C   UNL     1       6.574  27.816  57.063  1.00  0.00     0.005 A 
HETATM    2  C   UNL     1       7.591  26.890  56.820  1.00  0.00     0.069 A 
HETATM    3  N   UNL     1       8.756  27.598  57.021  1.00  0.00    -0.277 N 
HETATM    4  H   UNL     1       9.708  27.264  56.927  1.00  0.00     0.189 HD
HETATM    5  N   UNL     1       8.578  28.876  57.364  1.00  0.00    -0.179 NA
HETATM    6  C   UNL     1       7.257  29.002  57.481  1.00  0.00     0.059 A 
HETATM    7  C   UNL     1       6.699  30.287  57.979  1.00  0.00     0.073 C 
ENDROOT
BRANCH   1   8
HETATM    8  C   UNL     1       5.089  27.654  56.976  1.00  0.00     0.146 C 
BRANCH   8   9
HETATM    9  C   UNL     1       4.547  28.317  55.715  1.00  0.00     0.222 C 
HETATM   10  N   UNL     1       4.376  27.506  54.617  1.00  0.00    -0.359 N 
HETATM   11  H   UNL     1       4.806  26.587  54.636  1.00  0.00     0.162 HD
HETATM   12  O   UNL     1       4.187  29.495  55.667  1.00  0.00    -0.273 OA
BRANCH  10  13
HETATM   13  C   UNL     1       3.909  28.011  53.329  1.00  0.00     0.155 C 
BRANCH  13  14
HETATM   14  C   UNL     1       4.900  27.885  52.137  1.00  0.00     0.206 C 
HETATM   15  N   UNL     1       4.219  27.338  50.881  1.00  0.00    -0.066 N 
HETATM   16  H   UNL     1       3.285  26.985  51.183  1.00  0.00     0.280 HD
HETATM   17  C   UNL     1       4.998  26.131  50.422  1.00  0.00     0.235 C 
HETATM   18  C   UNL     1       5.688  25.645  51.676  1.00  0.00     0.030 C 
HETATM   19  C   UNL     1       6.065  26.928  52.389  1.00  0.00     0.036 C 
BRANCH  15  20
HETATM   20  C   UNL     1       3.937  28.364  49.824  1.00  0.00     0.231 C 
HETATM   21  C   UNL     1       5.062  28.405  48.806  1.00  0.00     0.034 C 
ENDBRANCH  15  20
ENDBRANCH  13  14
ENDBRANCH  10  13
ENDBRANCH   8   9
ENDBRANCH   1   8
BRANCH   2  22
HETATM   22  C   UNL     1       7.625  25.468  56.446  1.00  0.00    -0.007 A 
HETATM   23  C   UNL     1       6.950  24.980  55.322  1.00  0.00     0.015 A 
HETATM   24  C   UNL     1       7.013  23.627  54.964  1.00  0.00     0.024 A 
HETATM   25  C   UNL     1       7.762  22.741  55.730  1.00  0.00     0.034 A 
HETATM   26 CL   UNL     1       7.852  21.086  55.281  1.00  0.00    -0.084 Cl
HETATM   27  C   UNL     1       8.437  23.197  56.856  1.00  0.00     0.024 A 
HETATM   28  C   UNL     1       8.364  24.548  57.213  1.00  0.00     0.015 A 
ENDBRANCH   2  22
TORSDOF 6
ENDMDL
MODEL 9
REMARK VINA RESULT:      -8.1      3.597      7.172
REMARK  6 active torsions:
REMARK  status: ('A' for Active; 'I' for Inactive)
REMARK    1  A    between atoms: C_2  and  N_3 
REMARK    2  A    between atoms: C_5  and  C_6 
REMARK    3  A    between atoms: C_6  and  N_7 
REMARK       I    between atoms: N_7  and  C_8 
REMARK    4  A    between atoms: C_8  and  C_9 
REMARK    5  A    between atoms: C_9  and  C_10 
REMARK    6  A    between atoms: C_11  and  C_12 
ROOT
HETATM    1  C   UNL     1       7.567  24.232  53.981  1.00  0.00     0.005 A 
HETATM    2  C   UNL     1       7.381  24.680  55.291  1.00  0.00     0.069 A 
HETATM    3  N   UNL     1       7.357  23.530  56.048  1.00  0.00    -0.277 N 
HETATM    4  H   UNL     1       7.230  23.450  57.050  1.00  0.00     0.189 HD
HETATM    5  N   UNL     1       7.506  22.402  55.349  1.00  0.00    -0.179 NA
HETATM    6  C   UNL     1       7.723  22.815  54.102  1.00  0.00     0.059 A 
HETATM    7  C   UNL     1       8.058  21.810  53.059  1.00  0.00     0.073 C 
ENDROOT
BRANCH   1   8
HETATM    8  C   UNL     1       7.645  25.009  52.704  1.00  0.00     0.146 C 
BRANCH   8   9
HETATM    9  C   UNL     1       6.258  25.193  52.098  1.00  0.00     0.222 C 
HETATM   10  N   UNL     1       6.183  25.938  50.944  1.00  0.00    -0.359 N 
HETATM   11  H   UNL     1       6.995  26.488  50.683  1.00  0.00     0.162 HD
HETATM   12  O   UNL     1       5.245  24.647  52.540  1.00  0.00    -0.273 OA
BRANCH  10  13
HETATM   13  C   UNL     1       4.919  26.236  50.278  1.00  0.00     0.155 C 
BRANCH  13  14
HETATM   14  C   UNL     1       4.599  27.740  50.043  1.00  0.00     0.206 C 
HETATM   15  N   UNL     1       3.307  28.168  50.742  1.00  0.00    -0.066 N 
HETATM   16  H   UNL     1       2.835  27.290  51.049  1.00  0.00     0.280 HD
HETATM   17  C   UNL     1       2.407  28.792  49.706  1.00  0.00     0.235 C 
HETATM   18  C   UNL     1       2.879  28.189  48.403  1.00  0.00     0.030 C 
HETATM   19  C   UNL     1       4.382  28.112  48.576  1.00  0.00     0.036 C 
BRANCH  15  20
HETATM   20  C   UNL     1       3.508  28.973  51.992  1.00  0.00     0.231 C 
HETATM   21  C   UNL     1       3.704  28.060  53.189  1.00  0.00     0.034 C 
ENDBRANCH  15  20
ENDBRANCH  13  14
ENDBRANCH  10  13
ENDBRANCH   8   9
ENDBRANCH   1   8
BRANCH   2  22
HETATM   22  C   UNL     1       7.239  26.002  55.920  1.00  0.00    -0.007 A 
HETATM   23  C   UNL     1       6.268  26.921  55.506  1.00  0.00     0.015 A 
HETATM   24  C   UNL     1       6.128  28.166  56.131  1.00  0.00     0.024 A 
HETATM   25  C   UNL     1       6.961  28.507  57.190  1.00  0.00     0.034 A 
HETATM   26 CL   UNL     1       6.778  30.028  57.968  1.00  0.00    -0.084 Cl
HETATM   27  C   UNL     1       7.940  27.619  57.617  1.00  0.00     0.024 A 
HETATM   28  C   UNL     1       8.081  26.378  56.983  1.00  0.00     0.015 A 
ENDBRANCH   2  22
TORSDOF 6
ENDMDL
MODEL 10
REMARK VINA RESULT:      -8.0      2.004      2.940
REMARK  6 active torsions:
REMARK  status: ('A' for Active; 'I' for Inactive)
REMARK    1  A    between atoms: C_2  and  N_3 
REMARK    2  A    between atoms: C_5  and  C_6 
REMARK    3  A    between atoms: C_6  and  N_7 
REMARK       I    between atoms: N_7  and  C_8 
REMARK    4  A    between atoms: C_8  and  C_9 
REMARK    5  A    between atoms: C_9  and  C_10 
REMARK    6  A    between atoms: C_11  and  C_12 
ROOT
HETATM    1  C   UNL     1       5.142  27.704  51.193  1.00  0.00     0.005 A 
HETATM    2  C   UNL     1       5.347  26.326  51.296  1.00  0.00     0.069 A 
HETATM    3  N   UNL     1       4.658  25.795  50.228  1.00  0.00    -0.277 N 
HETATM    4  H   UNL     1       4.565  24.819  49.975  1.00  0.00     0.189 HD
HETATM    5  N   UNL     1       4.037  26.697  49.464  1.00  0.00    -0.179 NA
HETATM    6  C   UNL     1       4.394  27.870  49.986  1.00  0.00     0.059 A 
HETATM    7  C   UNL     1       3.977  29.119  49.297  1.00  0.00     0.073 C 
ENDROOT
BRANCH   1   8
HETATM    8  C   UNL     1       5.614  28.812  52.082  1.00  0.00     0.146 C 
BRANCH   8   9
HETATM    9  C   UNL     1       4.836  28.821  53.393  1.00  0.00     0.222 C 
HETATM   10  N   UNL     1       5.417  29.484  54.450  1.00  0.00    -0.359 N 
HETATM   11  H   UNL     1       6.395  29.740  54.368  1.00  0.00     0.162 HD
HETATM   12  O   UNL     1       3.705  28.347  53.516  1.00  0.00    -0.273 OA
BRANCH  10  13
HETATM   13  C   UNL     1       4.810  29.537  55.776  1.00  0.00     0.155 C 
BRANCH  13  14
HETATM   14  C   UNL     1       5.613  28.874  56.931  1.00  0.00     0.206 C 
HETATM   15  N   UNL     1       7.012  29.476  57.076  1.00  0.00    -0.066 N 
HETATM   16  H   UNL     1       7.170  30.059  56.225  1.00  0.00     0.280 HD
HETATM   17  C   UNL     1       8.010  28.348  57.007  1.00  0.00     0.235 C 
HETATM   18  C   UNL     1       7.283  27.265  56.241  1.00  0.00     0.030 C 
HETATM   19  C   UNL     1       5.859  27.376  56.744  1.00  0.00     0.036 C 
BRANCH  15  20
HETATM   20  C   UNL     1       7.174  30.411  58.237  1.00  0.00     0.231 C 
HETATM   21  C   UNL     1       8.393  30.034  59.060  1.00  0.00     0.034 C 
ENDBRANCH  15  20
ENDBRANCH  13  14
ENDBRANCH  10  13
ENDBRANCH   8   9
ENDBRANCH   1   8
BRANCH   2  22
HETATM   22  C   UNL     1       6.090  25.459  52.223  1.00  0.00    -0.007 A 
HETATM   23  C   UNL     1       5.568  25.081  53.466  1.00  0.00     0.015 A 
HETATM   24  C   UNL     1       6.276  24.234  54.327  1.00  0.00     0.024 A 
HETATM   25  C   UNL     1       7.521  23.746  53.951  1.00  0.00     0.034 A 
HETATM   26 CL   UNL     1       8.382  22.693  55.000  1.00  0.00    -0.084 Cl
HETATM   27  C   UNL     1       8.068  24.109  52.726  1.00  0.00     0.024 A 
HETATM   28  C   UNL     1       7.359  24.963  51.872  1.00  0.00     0.015 A 
ENDBRANCH   2  22
TORSDOF 6
ENDMDL
