MODEL 1
REMARK VINA RESULT:     -10.0      0.000      0.000
REMARK  5 active torsions:
REMARK  status: ('A' for Active; 'I' for Inactive)
REMARK       I    between atoms: N_6  and  C_7 
REMARK    1  A    between atoms: C_7  and  C_8 
REMARK    2  A    between atoms: N_11  and  C_12 
REMARK    3  A    between atoms: C_19  and  C_20 
REMARK    4  A    between atoms: C_20  and  N_21 
REMARK    5  A    between atoms: N_21  and  C_22 
ROOT
HETATM    1  C   UNL     1       6.299  27.353  54.151  1.00  0.00     0.719 A 
HETATM    2  N   UNL     1       6.907  26.145  53.833  1.00  0.00    -0.154 N 
HETATM    3  C   UNL     1       6.718  25.982  52.457  1.00  0.00     0.083 A 
HETATM    4  C   UNL     1       7.273  24.829  51.831  1.00  0.00     0.033 A 
HETATM    5  C   UNL     1       7.912  23.911  52.579  1.00  0.00     0.004 A 
HETATM    6  C   UNL     1       8.038  24.064  54.015  1.00  0.00     0.018 A 
HETATM    7  C   UNL     1       7.539  25.162  54.605  1.00  0.00     0.115 A 
HETATM    8  C   UNL     1       5.937  27.037  52.043  1.00  0.00     0.099 A 
HETATM    9  N   UNL     1       5.681  27.895  53.104  1.00  0.00    -0.064 NA
ENDROOT
BRANCH   1  10
HETATM   10  N   UNL     1       6.275  27.974  55.408  1.00  0.00    -0.147 N 
HETATM   11  C   UNL     1       5.186  27.975  56.255  1.00  0.00     0.233 A 
HETATM   12  N   UNL     1       5.410  28.603  57.385  1.00  0.00    -0.236 NA
HETATM   13  C   UNL     1       6.707  29.061  57.299  1.00  0.00     0.142 A 
HETATM   14  C   UNL     1       7.229  28.714  56.063  1.00  0.00     0.153 A 
BRANCH  13  15
HETATM   15  C   UNL     1       7.425  29.844  58.318  1.00  0.00     0.273 C 
HETATM   16  N   UNL     1       7.101  31.197  58.525  1.00  0.00    -0.345 N 
HETATM   17  C   UNL     1       8.016  31.974  59.364  1.00  0.00     0.154 C 
HETATM   18  C   UNL     1       5.880  31.829  58.033  1.00  0.00     0.128 C 
HETATM   19  C   UNL     1       7.632  31.903  60.847  1.00  0.00     0.254 C 
HETATM   20  N   UNL     1       6.429  32.782  61.179  1.00  0.00    -0.073 N 
HETATM   21  C   UNL     1       6.138  32.719  62.663  1.00  0.00     0.269 C 
HETATM   22  H   UNL     1       6.702  33.757  60.992  1.00  0.00     0.279 HD
HETATM   23  C   UNL     1       5.174  32.499  60.377  1.00  0.00     0.236 C 
HETATM   24  C   UNL     1       5.332  32.941  58.927  1.00  0.00     0.048 C 
HETATM   25  O   UNL     1       8.292  29.313  59.014  1.00  0.00    -0.266 OA
ENDBRANCH  13  15
ENDBRANCH   1  10
BRANCH   8  26
HETATM   26  C   UNL     1       5.369  27.320  50.681  1.00  0.00     0.183 C 
BRANCH  26  27
HETATM   27  N   UNL     1       4.581  26.265  50.051  1.00  0.00    -0.371 N 
HETATM   28  H   UNL     1       5.095  25.395  49.917  1.00  0.00     0.161 HD
BRANCH  27  29
HETATM   29  C   UNL     1       3.632  26.500  49.075  1.00  0.00     0.101 A 
HETATM   30  N   UNL     1       2.675  27.432  49.218  1.00  0.00    -0.353 N 
HETATM   31  H   UNL     1       2.734  28.048  50.034  1.00  0.00     0.166 HD
HETATM   32  C   UNL     1       1.704  27.641  48.318  1.00  0.00     0.089 A 
HETATM   33  C   UNL     1       1.645  26.875  47.165  1.00  0.00     0.017 A 
HETATM   34  C   UNL     1       2.613  25.902  46.960  1.00  0.00     0.005 A 
HETATM   35  C   UNL     1       3.609  25.714  47.917  1.00  0.00     0.048 A 
ENDBRANCH  27  29
ENDBRANCH  26  27
ENDBRANCH   8  26
TORSDOF 5
ENDMDL
MODEL 2
REMARK VINA RESULT:      -9.8      1.972      5.090
REMARK  5 active torsions:
REMARK  status: ('A' for Active; 'I' for Inactive)
REMARK       I    between atoms: N_6  and  C_7 
REMARK    1  A    between atoms: C_7  and  C_8 
REMARK    2  A    between atoms: N_11  and  C_12 
REMARK    3  A    between atoms: C_19  and  C_20 
REMARK    4  A    between atoms: C_20  and  N_21 
REMARK    5  A    between atoms: N_21  and  C_22 
ROOT
HETATM    1  C   UNL     1       6.595  26.855  54.407  1.00  0.00     0.719 A 
HETATM    2  N   UNL     1       5.933  27.107  53.211  1.00  0.00    -0.154 N 
HETATM    3  C   UNL     1       6.280  26.051  52.363  1.00  0.00     0.083 A 
HETATM    4  C   UNL     1       5.714  26.022  51.056  1.00  0.00     0.033 A 
HETATM    5  C   UNL     1       4.912  27.026  50.658  1.00  0.00     0.004 A 
HETATM    6  C   UNL     1       4.620  28.147  51.528  1.00  0.00     0.018 A 
HETATM    7  C   UNL     1       5.130  28.165  52.770  1.00  0.00     0.115 A 
HETATM    8  C   UNL     1       7.192  25.281  53.049  1.00  0.00     0.099 A 
HETATM    9  N   UNL     1       7.383  25.784  54.329  1.00  0.00    -0.064 NA
ENDROOT
BRANCH   1  10
HETATM   10  N   UNL     1       6.512  27.608  55.586  1.00  0.00    -0.147 N 
HETATM   11  C   UNL     1       5.378  27.710  56.366  1.00  0.00     0.233 A 
HETATM   12  N   UNL     1       5.548  28.455  57.432  1.00  0.00    -0.236 NA
HETATM   13  C   UNL     1       6.854  28.890  57.370  1.00  0.00     0.142 A 
HETATM   14  C   UNL     1       7.438  28.407  56.210  1.00  0.00     0.153 A 
BRANCH  13  15
HETATM   15  C   UNL     1       7.525  29.774  58.338  1.00  0.00     0.273 C 
HETATM   16  N   UNL     1       7.152  31.126  58.435  1.00  0.00    -0.345 N 
HETATM   17  C   UNL     1       8.025  31.996  59.227  1.00  0.00     0.154 C 
HETATM   18  C   UNL     1       5.921  31.675  57.877  1.00  0.00     0.128 C 
HETATM   19  C   UNL     1       7.615  32.024  60.705  1.00  0.00     0.254 C 
HETATM   20  N   UNL     1       6.377  32.883  60.949  1.00  0.00    -0.073 N 
HETATM   21  C   UNL     1       6.061  32.923  62.428  1.00  0.00     0.269 C 
HETATM   22  H   UNL     1       6.621  33.850  60.693  1.00  0.00     0.279 HD
HETATM   23  C   UNL     1       5.148  32.497  60.151  1.00  0.00     0.236 C 
HETATM   24  C   UNL     1       5.318  32.832  58.673  1.00  0.00     0.048 C 
HETATM   25  O   UNL     1       8.397  29.328  59.086  1.00  0.00    -0.266 OA
ENDBRANCH  13  15
ENDBRANCH   1  10
BRANCH   8  26
HETATM   26  C   UNL     1       7.948  24.068  52.587  1.00  0.00     0.183 C 
BRANCH  26  27
HETATM   27  N   UNL     1       7.412  22.762  52.959  1.00  0.00    -0.371 N 
HETATM   28  H   UNL     1       6.427  22.644  52.729  1.00  0.00     0.161 HD
BRANCH  27  29
HETATM   29  C   UNL     1       7.802  22.071  54.090  1.00  0.00     0.101 A 
HETATM   30  N   UNL     1       7.896  22.662  55.292  1.00  0.00    -0.353 N 
HETATM   31  H   UNL     1       7.562  23.626  55.372  1.00  0.00     0.166 HD
HETATM   32  C   UNL     1       8.330  22.035  56.394  1.00  0.00     0.089 A 
HETATM   33  C   UNL     1       8.714  20.705  56.335  1.00  0.00     0.017 A 
HETATM   34  C   UNL     1       8.630  20.040  55.120  1.00  0.00     0.005 A 
HETATM   35  C   UNL     1       8.173  20.724  53.995  1.00  0.00     0.048 A 
ENDBRANCH  27  29
ENDBRANCH  26  27
ENDBRANCH   8  26
TORSDOF 5
ENDMDL
MODEL 3
REMARK VINA RESULT:      -9.7      3.042      5.133
REMARK  5 active torsions:
REMARK  status: ('A' for Active; 'I' for Inactive)
REMARK       I    between atoms: N_6  and  C_7 
REMARK    1  A    between atoms: C_7  and  C_8 
REMARK    2  A    between atoms: N_11  and  C_12 
REMARK    3  A    between atoms: C_19  and  C_20 
REMARK    4  A    between atoms: C_20  and  N_21 
REMARK    5  A    between atoms: N_21  and  C_22 
ROOT
HETATM    1  C   UNL     1       6.643  27.944  55.630  1.00  0.00     0.719 A 
HETATM    2  N   UNL     1       5.594  28.405  54.844  1.00  0.00    -0.154 N 
HETATM    3  C   UNL     1       5.096  27.277  54.186  1.00  0.00     0.083 A 
HETATM    4  C   UNL     1       3.976  27.439  53.321  1.00  0.00     0.033 A 
HETATM    5  C   UNL     1       3.464  28.668  53.123  1.00  0.00     0.004 A 
HETATM    6  C   UNL     1       4.037  29.836  53.762  1.00  0.00     0.018 A 
HETATM    7  C   UNL     1       5.078  29.683  54.597  1.00  0.00     0.115 A 
HETATM    8  C   UNL     1       5.918  26.228  54.532  1.00  0.00     0.099 A 
HETATM    9  N   UNL     1       6.882  26.648  55.439  1.00  0.00    -0.064 NA
ENDROOT
BRANCH   1  10
HETATM   10  N   UNL     1       7.419  28.699  56.521  1.00  0.00    -0.147 N 
HETATM   11  C   UNL     1       8.707  29.121  56.265  1.00  0.00     0.233 A 
HETATM   12  N   UNL     1       9.222  29.833  57.240  1.00  0.00    -0.236 NA
HETATM   13  C   UNL     1       8.244  29.888  58.208  1.00  0.00     0.142 A 
HETATM   14  C   UNL     1       7.147  29.153  57.788  1.00  0.00     0.153 A 
BRANCH  13  15
HETATM   15  C   UNL     1       8.346  30.565  59.512  1.00  0.00     0.273 C 
HETATM   16  N   UNL     1       7.648  31.765  59.740  1.00  0.00    -0.345 N 
HETATM   17  C   UNL     1       7.993  32.508  60.954  1.00  0.00     0.154 C 
HETATM   18  C   UNL     1       6.559  32.249  58.898  1.00  0.00     0.128 C 
HETATM   19  C   UNL     1       7.147  32.066  62.155  1.00  0.00     0.254 C 
HETATM   20  N   UNL     1       5.727  32.624  62.103  1.00  0.00    -0.073 N 
HETATM   21  C   UNL     1       4.964  32.207  63.341  1.00  0.00     0.269 C 
HETATM   22  H   UNL     1       5.800  33.649  62.155  1.00  0.00     0.279 HD
HETATM   23  C   UNL     1       4.940  32.286  60.852  1.00  0.00     0.236 C 
HETATM   24  C   UNL     1       5.479  33.035  59.639  1.00  0.00     0.048 C 
HETATM   25  O   UNL     1       9.020  30.071  60.418  1.00  0.00    -0.266 OA
ENDBRANCH  13  15
ENDBRANCH   1  10
BRANCH   8  26
HETATM   26  C   UNL     1       5.891  24.804  54.055  1.00  0.00     0.183 C 
BRANCH  26  27
HETATM   27  N   UNL     1       7.169  24.185  53.719  1.00  0.00    -0.371 N 
HETATM   28  H   UNL     1       7.558  24.503  52.832  1.00  0.00     0.161 HD
BRANCH  27  29
HETATM   29  C   UNL     1       7.486  22.874  54.020  1.00  0.00     0.101 A 
HETATM   30  N   UNL     1       7.484  22.410  55.280  1.00  0.00    -0.353 N 
HETATM   31  H   UNL     1       7.130  23.033  56.012  1.00  0.00     0.166 HD
HETATM   32  C   UNL     1       7.846  21.163  55.611  1.00  0.00     0.089 A 
HETATM   33  C   UNL     1       8.254  20.272  54.632  1.00  0.00     0.017 A 
HETATM   34  C   UNL     1       8.269  20.694  53.310  1.00  0.00     0.005 A 
HETATM   35  C   UNL     1       7.884  21.998  53.003  1.00  0.00     0.048 A 
ENDBRANCH  27  29
ENDBRANCH  26  27
ENDBRANCH   8  26
TORSDOF 5
ENDMDL
MODEL 4
REMARK VINA RESULT:      -9.7      2.849      9.665
REMARK  5 active torsions:
REMARK  status: ('A' for Active; 'I' for Inactive)
REMARK       I    between atoms: N_6  and  C_7 
REMARK    1  A    between atoms: C_7  and  C_8 
REMARK    2  A    between atoms: N_11  and  C_12 
REMARK    3  A    between atoms: C_19  and  C_20 
REMARK    4  A    between atoms: C_20  and  N_21 
REMARK    5  A    between atoms: N_21  and  C_22 
ROOT
HETATM    1  C   UNL     1       6.053  26.806  54.075  1.00  0.00     0.719 A 
HETATM    2  N   UNL     1       6.646  25.563  53.887  1.00  0.00    -0.154 N 
HETATM    3  C   UNL     1       7.384  25.321  55.049  1.00  0.00     0.083 A 
HETATM    4  C   UNL     1       8.084  24.086  55.160  1.00  0.00     0.033 A 
HETATM    5  C   UNL     1       8.060  23.216  54.134  1.00  0.00     0.004 A 
HETATM    6  C   UNL     1       7.345  23.515  52.909  1.00  0.00     0.018 A 
HETATM    7  C   UNL     1       6.663  24.667  52.812  1.00  0.00     0.115 A 
HETATM    8  C   UNL     1       7.275  26.454  55.824  1.00  0.00     0.099 A 
HETATM    9  N   UNL     1       6.438  27.379  55.214  1.00  0.00    -0.064 NA
ENDROOT
BRANCH   1  10
HETATM   10  N   UNL     1       5.168  27.453  53.202  1.00  0.00    -0.147 N 
HETATM   11  C   UNL     1       3.940  27.960  53.575  1.00  0.00     0.233 A 
HETATM   12  N   UNL     1       3.298  28.541  52.588  1.00  0.00    -0.236 NA
HETATM   13  C   UNL     1       4.122  28.413  51.491  1.00  0.00     0.142 A 
HETATM   14  C   UNL     1       5.256  27.704  51.855  1.00  0.00     0.153 A 
BRANCH  13  15
HETATM   15  C   UNL     1       3.839  28.894  50.128  1.00  0.00     0.273 C 
HETATM   16  N   UNL     1       3.910  28.007  49.039  1.00  0.00    -0.345 N 
HETATM   17  C   UNL     1       3.868  28.600  47.701  1.00  0.00     0.154 C 
HETATM   18  C   UNL     1       3.928  26.553  49.170  1.00  0.00     0.128 C 
HETATM   19  C   UNL     1       2.431  28.746  47.183  1.00  0.00     0.254 C 
HETATM   20  N   UNL     1       1.844  27.416  46.716  1.00  0.00    -0.073 N 
HETATM   21  C   UNL     1       0.454  27.634  46.160  1.00  0.00     0.269 C 
HETATM   22  H   UNL     1       2.413  27.095  45.920  1.00  0.00     0.279 HD
HETATM   23  C   UNL     1       1.839  26.307  47.749  1.00  0.00     0.236 C 
HETATM   24  C   UNL     1       3.250  25.800  48.026  1.00  0.00     0.048 C 
HETATM   25  O   UNL     1       3.515  30.067  49.937  1.00  0.00    -0.266 OA
ENDBRANCH  13  15
ENDBRANCH   1  10
BRANCH   8  26
HETATM   26  C   UNL     1       7.928  26.771  57.140  1.00  0.00     0.183 C 
BRANCH  26  27
HETATM   27  N   UNL     1       7.647  28.075  57.731  1.00  0.00    -0.371 N 
HETATM   28  H   UNL     1       6.704  28.414  57.545  1.00  0.00     0.161 HD
BRANCH  27  29
HETATM   29  C   UNL     1       8.585  29.085  57.836  1.00  0.00     0.101 A 
HETATM   30  N   UNL     1       8.413  30.137  58.652  1.00  0.00    -0.353 N 
HETATM   31  H   UNL     1       7.609  30.118  59.285  1.00  0.00     0.166 HD
HETATM   32  C   UNL     1       9.274  31.162  58.730  1.00  0.00     0.089 A 
HETATM   33  C   UNL     1      10.413  31.177  57.941  1.00  0.00     0.017 A 
HETATM   34  C   UNL     1      10.646  30.111  57.085  1.00  0.00     0.005 A 
HETATM   35  C   UNL     1       9.730  29.062  57.032  1.00  0.00     0.048 A 
ENDBRANCH  27  29
ENDBRANCH  26  27
ENDBRANCH   8  26
TORSDOF 5
ENDMDL
MODEL 5
REMARK VINA RESULT:      -9.6      3.216      9.111
REMARK  5 active torsions:
REMARK  status: ('A' for Active; 'I' for Inactive)
REMARK       I    between atoms: N_6  and  C_7 
REMARK    1  A    between atoms: C_7  and  C_8 
REMARK    2  A    between atoms: N_11  and  C_12 
REMARK    3  A    between atoms: C_19  and  C_20 
REMARK    4  A    between atoms: C_20  and  N_21 
REMARK    5  A    between atoms: N_21  and  C_22 
ROOT
HETATM    1  C   UNL     1       6.104  27.413  54.507  1.00  0.00     0.719 A 
HETATM    2  N   UNL     1       6.603  28.134  55.586  1.00  0.00    -0.154 N 
HETATM    3  C   UNL     1       7.473  27.262  56.247  1.00  0.00     0.083 A 
HETATM    4  C   UNL     1       8.169  27.742  57.393  1.00  0.00     0.033 A 
HETATM    5  C   UNL     1       7.936  28.992  57.834  1.00  0.00     0.004 A 
HETATM    6  C   UNL     1       6.979  29.858  57.176  1.00  0.00     0.018 A 
HETATM    7  C   UNL     1       6.340  29.417  56.080  1.00  0.00     0.115 A 
HETATM    8  C   UNL     1       7.382  26.051  55.598  1.00  0.00     0.099 A 
HETATM    9  N   UNL     1       6.529  26.151  54.506  1.00  0.00    -0.064 NA
ENDROOT
BRANCH   1  10
HETATM   10  N   UNL     1       5.235  27.886  53.514  1.00  0.00    -0.147 N 
HETATM   11  C   UNL     1       3.877  28.062  53.689  1.00  0.00     0.233 A 
HETATM   12  N   UNL     1       3.275  28.535  52.623  1.00  0.00    -0.236 NA
HETATM   13  C   UNL     1       4.266  28.677  51.676  1.00  0.00     0.142 A 
HETATM   14  C   UNL     1       5.468  28.235  52.207  1.00  0.00     0.153 A 
BRANCH  13  15
HETATM   15  C   UNL     1       4.091  29.163  50.297  1.00  0.00     0.273 C 
HETATM   16  N   UNL     1       4.047  28.250  49.228  1.00  0.00    -0.345 N 
HETATM   17  C   UNL     1       4.127  28.811  47.878  1.00  0.00     0.154 C 
HETATM   18  C   UNL     1       3.837  26.815  49.389  1.00  0.00     0.128 C 
HETATM   19  C   UNL     1       2.741  29.163  47.322  1.00  0.00     0.254 C 
HETATM   20  N   UNL     1       1.966  27.929  46.867  1.00  0.00    -0.073 N 
HETATM   21  C   UNL     1       0.638  28.345  46.272  1.00  0.00     0.269 C 
HETATM   22  H   UNL     1       2.495  27.505  46.092  1.00  0.00     0.279 HD
HETATM   23  C   UNL     1       1.766  26.859  47.922  1.00  0.00     0.236 C 
HETATM   24  C   UNL     1       3.076  26.148  48.244  1.00  0.00     0.048 C 
HETATM   25  O   UNL     1       3.956  30.367  50.075  1.00  0.00    -0.266 OA
ENDBRANCH  13  15
ENDBRANCH   1  10
BRANCH   8  26
HETATM   26  C   UNL     1       8.041  24.743  55.931  1.00  0.00     0.183 C 
BRANCH  26  27
HETATM   27  N   UNL     1       7.232  23.535  55.808  1.00  0.00    -0.371 N 
HETATM   28  H   UNL     1       6.769  23.263  56.674  1.00  0.00     0.161 HD
BRANCH  27  29
HETATM   29  C   UNL     1       7.577  22.462  55.007  1.00  0.00     0.101 A 
HETATM   30  N   UNL     1       7.969  21.285  55.520  1.00  0.00    -0.353 N 
HETATM   31  H   UNL     1       7.901  21.165  56.534  1.00  0.00     0.166 HD
HETATM   32  C   UNL     1       8.369  20.248  54.771  1.00  0.00     0.089 A 
HETATM   33  C   UNL     1       8.396  20.354  53.389  1.00  0.00     0.017 A 
HETATM   34  C   UNL     1       7.993  21.546  52.804  1.00  0.00     0.005 A 
HETATM   35  C   UNL     1       7.582  22.602  53.614  1.00  0.00     0.048 A 
ENDBRANCH  27  29
ENDBRANCH  26  27
ENDBRANCH   8  26
TORSDOF 5
ENDMDL
MODEL 6
REMARK VINA RESULT:      -9.5      3.901      6.214
REMARK  5 active torsions:
REMARK  status: ('A' for Active; 'I' for Inactive)
REMARK       I    between atoms: N_6  and  C_7 
REMARK    1  A    between atoms: C_7  and  C_8 
REMARK    2  A    between atoms: N_11  and  C_12 
REMARK    3  A    between atoms: C_19  and  C_20 
REMARK    4  A    between atoms: C_20  and  N_21 
REMARK    5  A    between atoms: N_21  and  C_22 
ROOT
HETATM    1  C   UNL     1       7.267  28.235  57.325  1.00  0.00     0.719 A 
HETATM    2  N   UNL     1       6.558  27.671  56.272  1.00  0.00    -0.154 N 
HETATM    3  C   UNL     1       6.982  26.340  56.207  1.00  0.00     0.083 A 
HETATM    4  C   UNL     1       6.392  25.491  55.227  1.00  0.00     0.033 A 
HETATM    5  C   UNL     1       5.491  25.999  54.366  1.00  0.00     0.004 A 
HETATM    6  C   UNL     1       5.116  27.397  54.405  1.00  0.00     0.018 A 
HETATM    7  C   UNL     1       5.650  28.195  55.344  1.00  0.00     0.115 A 
HETATM    8  C   UNL     1       7.977  26.200  57.148  1.00  0.00     0.099 A 
HETATM    9  N   UNL     1       8.149  27.386  57.849  1.00  0.00    -0.064 NA
ENDROOT
BRANCH   1  10
HETATM   10  N   UNL     1       7.141  29.542  57.816  1.00  0.00    -0.147 N 
HETATM   11  C   UNL     1       8.195  30.306  58.276  1.00  0.00     0.233 A 
HETATM   12  N   UNL     1       7.833  31.506  58.665  1.00  0.00    -0.236 NA
HETATM   13  C   UNL     1       6.470  31.558  58.472  1.00  0.00     0.142 A 
HETATM   14  C   UNL     1       6.033  30.334  57.991  1.00  0.00     0.153 A 
BRANCH  13  15
HETATM   15  C   UNL     1       5.589  32.699  58.775  1.00  0.00     0.273 C 
HETATM   16  N   UNL     1       5.088  32.876  60.076  1.00  0.00    -0.345 N 
HETATM   17  C   UNL     1       4.027  33.872  60.245  1.00  0.00     0.154 C 
HETATM   18  C   UNL     1       5.621  32.202  61.256  1.00  0.00     0.128 C 
HETATM   19  C   UNL     1       4.594  35.269  60.529  1.00  0.00     0.254 C 
HETATM   20  N   UNL     1       5.090  35.414  61.966  1.00  0.00    -0.073 N 
HETATM   21  C   UNL     1       5.577  36.827  62.202  1.00  0.00     0.269 C 
HETATM   22  H   UNL     1       4.275  35.295  62.583  1.00  0.00     0.279 HD
HETATM   23  C   UNL     1       6.139  34.409  62.398  1.00  0.00     0.236 C 
HETATM   24  C   UNL     1       5.541  33.014  62.548  1.00  0.00     0.048 C 
HETATM   25  O   UNL     1       5.309  33.518  57.897  1.00  0.00    -0.266 OA
ENDBRANCH  13  15
ENDBRANCH   1  10
BRANCH   8  26
HETATM   26  C   UNL     1       8.832  25.004  57.454  1.00  0.00     0.183 C 
BRANCH  26  27
HETATM   27  N   UNL     1       8.171  23.703  57.505  1.00  0.00    -0.371 N 
HETATM   28  H   UNL     1       7.972  23.382  58.451  1.00  0.00     0.161 HD
BRANCH  27  29
HETATM   29  C   UNL     1       8.438  22.676  56.619  1.00  0.00     0.101 A 
HETATM   30  N   UNL     1       8.882  22.905  55.373  1.00  0.00    -0.353 N 
HETATM   31  H   UNL     1       9.127  23.868  55.128  1.00  0.00     0.166 HD
HETATM   32  C   UNL     1       9.091  21.935  54.472  1.00  0.00     0.089 A 
HETATM   33  C   UNL     1       8.844  20.612  54.800  1.00  0.00     0.017 A 
HETATM   34  C   UNL     1       8.391  20.315  56.078  1.00  0.00     0.005 A 
HETATM   35  C   UNL     1       8.187  21.349  56.990  1.00  0.00     0.048 A 
ENDBRANCH  27  29
ENDBRANCH  26  27
ENDBRANCH   8  26
TORSDOF 5
ENDMDL
MODEL 7
REMARK VINA RESULT:      -9.4      3.799     10.538
REMARK  5 active torsions:
REMARK  status: ('A' for Active; 'I' for Inactive)
REMARK       I    between atoms: N_6  and  C_7 
REMARK    1  A    between atoms: C_7  and  C_8 
REMARK    2  A    between atoms: N_11  and  C_12 
REMARK    3  A    between atoms: C_19  and  C_20 
REMARK    4  A    between atoms: C_20  and  N_21 
REMARK    5  A    between atoms: N_21  and  C_22 
ROOT
HETATM    1  C   UNL     1       7.195  30.543  58.533  1.00  0.00     0.719 A 
HETATM    2  N   UNL     1       7.799  30.987  59.704  1.00  0.00    -0.154 N 
HETATM    3  C   UNL     1       7.044  32.087  60.120  1.00  0.00     0.083 A 
HETATM    4  C   UNL     1       7.413  32.740  61.331  1.00  0.00     0.033 A 
HETATM    5  C   UNL     1       8.497  32.317  62.008  1.00  0.00     0.004 A 
HETATM    6  C   UNL     1       9.307  31.218  61.524  1.00  0.00     0.018 A 
HETATM    7  C   UNL     1       8.947  30.584  60.396  1.00  0.00     0.115 A 
HETATM    8  C   UNL     1       6.097  32.303  59.145  1.00  0.00     0.099 A 
HETATM    9  N   UNL     1       6.191  31.332  58.156  1.00  0.00    -0.064 NA
ENDROOT
BRANCH   1  10
HETATM   10  N   UNL     1       7.560  29.423  57.774  1.00  0.00    -0.147 N 
HETATM   11  C   UNL     1       8.199  29.486  56.553  1.00  0.00     0.233 A 
HETATM   12  N   UNL     1       8.458  28.305  56.042  1.00  0.00    -0.236 NA
HETATM   13  C   UNL     1       7.962  27.397  56.952  1.00  0.00     0.142 A 
HETATM   14  C   UNL     1       7.368  28.082  57.999  1.00  0.00     0.153 A 
BRANCH  13  15
HETATM   15  C   UNL     1       7.995  25.930  56.825  1.00  0.00     0.273 C 
HETATM   16  N   UNL     1       6.984  25.261  56.112  1.00  0.00    -0.345 N 
HETATM   17  C   UNL     1       6.939  23.803  56.241  1.00  0.00     0.154 C 
HETATM   18  C   UNL     1       6.057  25.921  55.198  1.00  0.00     0.128 C 
HETATM   19  C   UNL     1       7.812  23.108  55.188  1.00  0.00     0.254 C 
HETATM   20  N   UNL     1       7.162  23.101  53.807  1.00  0.00    -0.073 N 
HETATM   21  C   UNL     1       8.038  22.350  52.829  1.00  0.00     0.269 C 
HETATM   22  H   UNL     1       6.295  22.551  53.881  1.00  0.00     0.279 HD
HETATM   23  C   UNL     1       6.791  24.463  53.254  1.00  0.00     0.236 C 
HETATM   24  C   UNL     1       5.613  25.066  54.011  1.00  0.00     0.048 C 
HETATM   25  O   UNL     1       8.920  25.284  57.320  1.00  0.00    -0.266 OA
ENDBRANCH  13  15
ENDBRANCH   1  10
BRANCH   8  26
HETATM   26  C   UNL     1       5.074  33.397  59.042  1.00  0.00     0.183 C 
BRANCH  26  27
HETATM   27  N   UNL     1       3.855  33.252  59.832  1.00  0.00    -0.371 N 
HETATM   28  H   UNL     1       3.003  33.246  59.273  1.00  0.00     0.161 HD
BRANCH  27  29
HETATM   29  C   UNL     1       3.687  33.807  61.086  1.00  0.00     0.101 A 
HETATM   30  N   UNL     1       2.668  33.461  61.890  1.00  0.00    -0.353 N 
HETATM   31  H   UNL     1       2.072  32.684  61.590  1.00  0.00     0.166 HD
HETATM   32  C   UNL     1       2.443  34.025  63.085  1.00  0.00     0.089 A 
HETATM   33  C   UNL     1       3.280  35.025  63.553  1.00  0.00     0.017 A 
HETATM   34  C   UNL     1       4.354  35.418  62.768  1.00  0.00     0.005 A 
HETATM   35  C   UNL     1       4.559  34.807  61.532  1.00  0.00     0.048 A 
ENDBRANCH  27  29
ENDBRANCH  26  27
ENDBRANCH   8  26
TORSDOF 5
ENDMDL
MODEL 8
REMARK VINA RESULT:      -9.3      4.058     10.962
REMARK  5 active torsions:
REMARK  status: ('A' for Active; 'I' for Inactive)
REMARK       I    between atoms: N_6  and  C_7 
REMARK    1  A    between atoms: C_7  and  C_8 
REMARK    2  A    between atoms: N_11  and  C_12 
REMARK    3  A    between atoms: C_19  and  C_20 
REMARK    4  A    between atoms: C_20  and  N_21 
REMARK    5  A    between atoms: N_21  and  C_22 
ROOT
HETATM    1  C   UNL     1       7.024  30.334  58.192  1.00  0.00     0.719 A 
HETATM    2  N   UNL     1       6.107  31.108  57.490  1.00  0.00    -0.154 N 
HETATM    3  C   UNL     1       5.857  32.218  58.302  1.00  0.00     0.083 A 
HETATM    4  C   UNL     1       4.966  33.219  57.821  1.00  0.00     0.033 A 
HETATM    5  C   UNL     1       4.355  33.048  56.633  1.00  0.00     0.004 A 
HETATM    6  C   UNL     1       4.575  31.858  55.837  1.00  0.00     0.018 A 
HETATM    7  C   UNL     1       5.434  30.924  56.277  1.00  0.00     0.115 A 
HETATM    8  C   UNL     1       6.551  32.011  59.473  1.00  0.00     0.099 A 
HETATM    9  N   UNL     1       7.284  30.834  59.398  1.00  0.00    -0.064 NA
ENDROOT
BRANCH   1  10
HETATM   10  N   UNL     1       7.623  29.144  57.757  1.00  0.00    -0.147 N 
HETATM   11  C   UNL     1       8.815  29.082  57.064  1.00  0.00     0.233 A 
HETATM   12  N   UNL     1       9.187  27.856  56.782  1.00  0.00    -0.236 NA
HETATM   13  C   UNL     1       8.198  27.046  57.296  1.00  0.00     0.142 A 
HETATM   14  C   UNL     1       7.210  27.839  57.858  1.00  0.00     0.153 A 
BRANCH  13  15
HETATM   15  C   UNL     1       8.148  25.576  57.221  1.00  0.00     0.273 C 
HETATM   16  N   UNL     1       7.338  24.946  56.260  1.00  0.00    -0.345 N 
HETATM   17  C   UNL     1       7.140  23.503  56.407  1.00  0.00     0.154 C 
HETATM   18  C   UNL     1       6.772  25.625  55.098  1.00  0.00     0.128 C 
HETATM   19  C   UNL     1       8.222  22.699  55.674  1.00  0.00     0.254 C 
HETATM   20  N   UNL     1       8.003  22.672  54.164  1.00  0.00    -0.073 N 
HETATM   21  C   UNL     1       9.062  21.816  53.505  1.00  0.00     0.269 C 
HETATM   22  H   UNL     1       7.111  22.187  53.994  1.00  0.00     0.279 HD
HETATM   23  C   UNL     1       7.920  24.029  53.492  1.00  0.00     0.236 C 
HETATM   24  C   UNL     1       6.625  24.748  53.855  1.00  0.00     0.048 C 
HETATM   25  O   UNL     1       8.835  24.891  57.982  1.00  0.00    -0.266 OA
ENDBRANCH  13  15
ENDBRANCH   1  10
BRANCH   8  26
HETATM   26  C   UNL     1       6.581  32.848  60.719  1.00  0.00     0.183 C 
BRANCH  26  27
HETATM   27  N   UNL     1       5.760  32.407  61.843  1.00  0.00    -0.371 N 
HETATM   28  H   UNL     1       4.780  32.265  61.603  1.00  0.00     0.161 HD
BRANCH  27  29
HETATM   29  C   UNL     1       5.953  32.833  63.143  1.00  0.00     0.101 A 
HETATM   30  N   UNL     1       4.929  33.033  63.989  1.00  0.00    -0.353 N 
HETATM   31  H   UNL     1       3.995  32.754  63.675  1.00  0.00     0.166 HD
HETATM   32  C   UNL     1       5.078  33.504  65.234  1.00  0.00     0.089 A 
HETATM   33  C   UNL     1       6.339  33.817  65.716  1.00  0.00     0.017 A 
HETATM   34  C   UNL     1       7.436  33.622  64.888  1.00  0.00     0.005 A 
HETATM   35  C   UNL     1       7.243  33.128  63.599  1.00  0.00     0.048 A 
ENDBRANCH  27  29
ENDBRANCH  26  27
ENDBRANCH   8  26
TORSDOF 5
ENDMDL
MODEL 9
REMARK VINA RESULT:      -9.1      3.924      5.998
REMARK  5 active torsions:
REMARK  status: ('A' for Active; 'I' for Inactive)
REMARK       I    between atoms: N_6  and  C_7 
REMARK    1  A    between atoms: C_7  and  C_8 
REMARK    2  A    between atoms: N_11  and  C_12 
REMARK    3  A    between atoms: C_19  and  C_20 
REMARK    4  A    between atoms: C_20  and  N_21 
REMARK    5  A    between atoms: N_21  and  C_22 
ROOT
HETATM    1  C   UNL     1       6.419  30.287  57.284  1.00  0.00     0.719 A 
HETATM    2  N   UNL     1       7.777  30.386  57.564  1.00  0.00    -0.154 N 
HETATM    3  C   UNL     1       8.410  29.537  56.651  1.00  0.00     0.083 A 
HETATM    4  C   UNL     1       9.832  29.457  56.677  1.00  0.00     0.033 A 
HETATM    5  C   UNL     1      10.518  30.153  57.602  1.00  0.00     0.004 A 
HETATM    6  C   UNL     1       9.840  30.975  58.583  1.00  0.00     0.018 A 
HETATM    7  C   UNL     1       8.501  31.073  58.546  1.00  0.00     0.115 A 
HETATM    8  C   UNL     1       7.410  28.908  55.944  1.00  0.00     0.099 A 
HETATM    9  N   UNL     1       6.166  29.384  56.339  1.00  0.00    -0.064 NA
ENDROOT
BRANCH   1  10
HETATM   10  N   UNL     1       5.382  31.001  57.900  1.00  0.00    -0.147 N 
HETATM   11  C   UNL     1       4.079  30.556  57.991  1.00  0.00     0.233 A 
HETATM   12  N   UNL     1       3.292  31.389  58.631  1.00  0.00    -0.236 NA
HETATM   13  C   UNL     1       4.093  32.453  58.983  1.00  0.00     0.142 A 
HETATM   14  C   UNL     1       5.372  32.238  58.495  1.00  0.00     0.153 A 
BRANCH  13  15
HETATM   15  C   UNL     1       3.668  33.661  59.709  1.00  0.00     0.273 C 
HETATM   16  N   UNL     1       3.631  33.662  61.115  1.00  0.00    -0.345 N 
HETATM   17  C   UNL     1       2.963  34.796  61.757  1.00  0.00     0.154 C 
HETATM   18  C   UNL     1       4.289  32.662  61.950  1.00  0.00     0.128 C 
HETATM   19  C   UNL     1       3.932  35.957  62.019  1.00  0.00     0.254 C 
HETATM   20  N   UNL     1       4.843  35.694  63.215  1.00  0.00    -0.073 N 
HETATM   21  C   UNL     1       5.729  36.896  63.462  1.00  0.00     0.269 C 
HETATM   22  H   UNL     1       4.242  35.619  64.047  1.00  0.00     0.279 HD
HETATM   23  C   UNL     1       5.673  34.428  63.137  1.00  0.00     0.236 C 
HETATM   24  C   UNL     1       4.803  33.185  63.291  1.00  0.00     0.048 C 
HETATM   25  O   UNL     1       3.368  34.685  59.092  1.00  0.00    -0.266 OA
ENDBRANCH  13  15
ENDBRANCH   1  10
BRANCH   8  26
HETATM   26  C   UNL     1       7.517  27.841  54.892  1.00  0.00     0.183 C 
BRANCH  26  27
HETATM   27  N   UNL     1       7.128  26.486  55.270  1.00  0.00    -0.371 N 
HETATM   28  H   UNL     1       7.244  26.289  56.263  1.00  0.00     0.161 HD
BRANCH  27  29
HETATM   29  C   UNL     1       7.323  25.382  54.462  1.00  0.00     0.101 A 
HETATM   30  N   UNL     1       7.219  24.127  54.929  1.00  0.00    -0.353 N 
HETATM   31  H   UNL     1       6.879  24.007  55.887  1.00  0.00     0.166 HD
HETATM   32  C   UNL     1       7.463  23.038  54.187  1.00  0.00     0.089 A 
HETATM   33  C   UNL     1       7.848  23.168  52.863  1.00  0.00     0.017 A 
HETATM   34  C   UNL     1       7.964  24.442  52.324  1.00  0.00     0.005 A 
HETATM   35  C   UNL     1       7.701  25.551  53.125  1.00  0.00     0.048 A 
ENDBRANCH  27  29
ENDBRANCH  26  27
ENDBRANCH   8  26
TORSDOF 5
ENDMDL
MODEL 10
REMARK VINA RESULT:      -9.0      3.376     11.556
REMARK  5 active torsions:
REMARK  status: ('A' for Active; 'I' for Inactive)
REMARK       I    between atoms: N_6  and  C_7 
REMARK    1  A    between atoms: C_7  and  C_8 
REMARK    2  A    between atoms: N_11  and  C_12 
REMARK    3  A    between atoms: C_19  and  C_20 
REMARK    4  A    between atoms: C_20  and  N_21 
REMARK    5  A    between atoms: N_21  and  C_22 
ROOT
HETATM    1  C   UNL     1       6.149  31.949  59.551  1.00  0.00     0.719 A 
HETATM    2  N   UNL     1       7.038  31.975  60.619  1.00  0.00    -0.154 N 
HETATM    3  C   UNL     1       6.453  32.815  61.571  1.00  0.00     0.083 A 
HETATM    4  C   UNL     1       7.132  33.010  62.808  1.00  0.00     0.033 A 
HETATM    5  C   UNL     1       8.330  32.429  63.005  1.00  0.00     0.004 A 
HETATM    6  C   UNL     1       8.952  31.617  61.979  1.00  0.00     0.018 A 
HETATM    7  C   UNL     1       8.303  31.410  60.822  1.00  0.00     0.115 A 
HETATM    8  C   UNL     1       5.307  33.317  60.998  1.00  0.00     0.099 A 
HETATM    9  N   UNL     1       5.117  32.769  59.736  1.00  0.00    -0.064 NA
ENDROOT
BRANCH   1  10
HETATM   10  N   UNL     1       6.273  31.193  58.376  1.00  0.00    -0.147 N 
HETATM   11  C   UNL     1       5.535  31.411  57.231  1.00  0.00     0.233 A 
HETATM   12  N   UNL     1       5.842  30.590  56.254  1.00  0.00    -0.236 NA
HETATM   13  C   UNL     1       6.825  29.768  56.762  1.00  0.00     0.142 A 
HETATM   14  C   UNL     1       7.062  30.108  58.084  1.00  0.00     0.153 A 
BRANCH  13  15
HETATM   15  C   UNL     1       7.491  28.664  56.051  1.00  0.00     0.273 C 
HETATM   16  N   UNL     1       7.114  27.333  56.306  1.00  0.00    -0.345 N 
HETATM   17  C   UNL     1       7.981  26.286  55.762  1.00  0.00     0.154 C 
HETATM   18  C   UNL     1       5.883  26.950  56.990  1.00  0.00     0.128 C 
HETATM   19  C   UNL     1       7.567  25.880  54.342  1.00  0.00     0.254 C 
HETATM   20  N   UNL     1       6.325  24.992  54.330  1.00  0.00    -0.073 N 
HETATM   21  C   UNL     1       6.004  24.574  52.911  1.00  0.00     0.269 C 
HETATM   22  H   UNL     1       6.568  24.122  54.825  1.00  0.00     0.279 HD
HETATM   23  C   UNL     1       5.100  25.574  55.005  1.00  0.00     0.236 C 
HETATM   24  C   UNL     1       5.275  25.629  56.519  1.00  0.00     0.048 C 
HETATM   25  O   UNL     1       8.361  28.899  55.211  1.00  0.00    -0.266 OA
ENDBRANCH  13  15
ENDBRANCH   1  10
BRANCH   8  26
HETATM   26  C   UNL     1       4.334  34.323  61.544  1.00  0.00     0.183 C 
BRANCH  26  27
HETATM   27  N   UNL     1       3.607  33.962  62.757  1.00  0.00    -0.371 N 
HETATM   28  H   UNL     1       2.600  33.883  62.622  1.00  0.00     0.161 HD
BRANCH  27  29
HETATM   29  C   UNL     1       3.961  34.400  64.019  1.00  0.00     0.101 A 
HETATM   30  N   UNL     1       4.270  33.548  65.010  1.00  0.00    -0.353 N 
HETATM   31  H   UNL     1       4.344  32.555  64.773  1.00  0.00     0.166 HD
HETATM   32  C   UNL     1       4.557  33.938  66.259  1.00  0.00     0.089 A 
HETATM   33  C   UNL     1       4.542  35.283  66.591  1.00  0.00     0.017 A 
HETATM   34  C   UNL     1       4.238  36.210  65.605  1.00  0.00     0.005 A 
HETATM   35  C   UNL     1       3.946  35.768  64.315  1.00  0.00     0.048 A 
ENDBRANCH  27  29
ENDBRANCH  26  27
ENDBRANCH   8  26
TORSDOF 5
ENDMDL
