MODEL 1
REMARK VINA RESULT:     -11.1      0.000      0.000
REMARK  6 active torsions:
REMARK  status: ('A' for Active; 'I' for Inactive)
REMARK    1  A    between atoms: C_2  and  O_3 
REMARK    2  A    between atoms: C_2  and  C_4 
REMARK    3  A    between atoms: C_6  and  N_7 
REMARK       I    between atoms: N_7  and  C_8 
REMARK    4  A    between atoms: C_8  and  C_9 
REMARK    5  A    between atoms: C_14  and  C_15 
REMARK    6  A    between atoms: C_23  and  C_24 
ROOT
HETATM    1  C   UNL     1       6.858  28.180  55.578  1.00  0.00     0.148 A 
HETATM    2  N   UNL     1       7.137  28.179  54.251  1.00  0.00    -0.165 NA
HETATM    3  N   UNL     1       6.812  26.929  53.872  1.00  0.00    -0.240 N 
HETATM    4  C   UNL     1       6.420  26.117  54.899  1.00  0.00     0.123 A 
HETATM    5  N   UNL     1       6.188  24.804  54.699  1.00  0.00    -0.366 N 
HETATM    6  C   UNL     1       6.622  24.107  53.488  1.00  0.00     0.118 C 
HETATM    7  C   UNL     1       7.526  24.991  52.602  1.00  0.00     0.066 C 
HETATM    8  C   UNL     1       7.026  26.442  52.524  1.00  0.00     0.221 C 
HETATM    9  C   UNL     1       6.372  26.914  56.009  1.00  0.00     0.089 A 
HETATM   10  H   UNL     1       5.883  24.203  55.465  1.00  0.00     0.161 HD
ENDROOT
BRANCH   1  11
HETATM   11  C   UNL     1       7.097  29.358  56.432  1.00  0.00     0.276 C 
HETATM   12  N   UNL     1       8.168  29.171  57.284  1.00  0.00    -0.322 N 
HETATM   13  H   UNL     1       8.640  28.280  57.149  1.00  0.00     0.169 HD
HETATM   14  O   UNL     1       6.384  30.353  56.354  1.00  0.00    -0.266 OA
BRANCH  12  15
HETATM   15  C   UNL     1       8.653  30.040  58.274  1.00  0.00     0.035 A 
HETATM   16  C   UNL     1       8.195  30.044  59.595  1.00  0.00     0.039 A 
HETATM   17  C   UNL     1       8.723  30.936  60.544  1.00  0.00    -0.028 A 
HETATM   18  C   UNL     1       9.710  31.845  60.143  1.00  0.00     0.010 A 
HETATM   19  C   UNL     1      10.181  31.841  58.831  1.00  0.00     0.003 A 
HETATM   20  C   UNL     1       9.658  30.939  57.904  1.00  0.00     0.029 A 
BRANCH  17  21
HETATM   21  C   UNL     1       8.186  30.921  61.960  1.00  0.00     0.147 C 
HETATM   22  C   UNL     1       8.429  32.243  62.674  1.00  0.00     0.044 C 
BRANCH  21  23
HETATM   23  O   UNL     1       8.785  29.870  62.716  1.00  0.00    -0.391 OA
HETATM   24  H   UNL     1       9.291  29.329  62.085  1.00  0.00     0.210 HD
ENDBRANCH  21  23
ENDBRANCH  17  21
ENDBRANCH  12  15
ENDBRANCH   1  11
BRANCH   8  25
HETATM   25  C   UNL     1       5.761  26.584  51.710  1.00  0.00     0.409 C 
HETATM   26  F   UNL     1       4.657  26.649  52.487  1.00  0.00    -0.169 F 
HETATM   27  F   UNL     1       5.804  27.744  51.003  1.00  0.00    -0.169 F 
HETATM   28  F   UNL     1       5.578  25.594  50.813  1.00  0.00    -0.169 F 
ENDBRANCH   8  25
BRANCH   6  29
HETATM   29  C   UNL     1       7.350  22.831  53.884  1.00  0.00    -0.035 A 
HETATM   30  C   UNL     1       7.532  22.508  55.239  1.00  0.00     0.012 A 
HETATM   31  C   UNL     1       8.195  21.333  55.602  1.00  0.00     0.043 A 
HETATM   32  C   UNL     1       8.676  20.478  54.617  1.00  0.00     0.116 A 
HETATM   33  F   UNL     1       9.312  19.355  54.971  1.00  0.00    -0.206 F 
HETATM   34  C   UNL     1       8.506  20.773  53.271  1.00  0.00     0.043 A 
HETATM   35  C   UNL     1       7.842  21.944  52.905  1.00  0.00     0.012 A 
ENDBRANCH   6  29
TORSDOF 6
ENDMDL
MODEL 2
REMARK VINA RESULT:     -10.6      1.752      2.203
REMARK  6 active torsions:
REMARK  status: ('A' for Active; 'I' for Inactive)
REMARK    1  A    between atoms: C_2  and  O_3 
REMARK    2  A    between atoms: C_2  and  C_4 
REMARK    3  A    between atoms: C_6  and  N_7 
REMARK       I    between atoms: N_7  and  C_8 
REMARK    4  A    between atoms: C_8  and  C_9 
REMARK    5  A    between atoms: C_14  and  C_15 
REMARK    6  A    between atoms: C_23  and  C_24 
ROOT
HETATM    1  C   UNL     1       8.060  28.560  56.875  1.00  0.00     0.148 A 
HETATM    2  N   UNL     1       8.097  28.738  55.532  1.00  0.00    -0.165 NA
HETATM    3  N   UNL     1       7.486  27.635  55.060  1.00  0.00    -0.240 N 
HETATM    4  C   UNL     1       7.138  26.733  56.026  1.00  0.00     0.123 A 
HETATM    5  N   UNL     1       6.637  25.524  55.702  1.00  0.00    -0.366 N 
HETATM    6  C   UNL     1       6.716  24.981  54.345  1.00  0.00     0.118 C 
HETATM    7  C   UNL     1       7.599  25.850  53.423  1.00  0.00     0.066 C 
HETATM    8  C   UNL     1       7.368  27.353  53.644  1.00  0.00     0.221 C 
HETATM    9  C   UNL     1       7.432  27.330  57.220  1.00  0.00     0.089 A 
HETATM   10  H   UNL     1       6.365  24.857  56.424  1.00  0.00     0.161 HD
ENDROOT
BRANCH   1  11
HETATM   11  C   UNL     1       8.656  29.526  57.815  1.00  0.00     0.276 C 
HETATM   12  N   UNL     1       7.846  29.749  58.912  1.00  0.00    -0.322 N 
HETATM   13  H   UNL     1       7.003  29.178  58.914  1.00  0.00     0.169 HD
HETATM   14  O   UNL     1       9.743  30.046  57.587  1.00  0.00    -0.266 OA
BRANCH  12  15
HETATM   15  C   UNL     1       8.050  30.640  59.978  1.00  0.00     0.035 A 
HETATM   16  C   UNL     1       7.157  31.659  60.319  1.00  0.00     0.039 A 
HETATM   17  C   UNL     1       7.414  32.519  61.401  1.00  0.00    -0.028 A 
HETATM   18  C   UNL     1       8.599  32.354  62.129  1.00  0.00     0.010 A 
HETATM   19  C   UNL     1       9.491  31.334  61.803  1.00  0.00     0.003 A 
HETATM   20  C   UNL     1       9.214  30.478  60.735  1.00  0.00     0.029 A 
BRANCH  17  21
HETATM   21  C   UNL     1       6.429  33.622  61.726  1.00  0.00     0.147 C 
HETATM   22  C   UNL     1       6.423  33.958  63.211  1.00  0.00     0.044 C 
BRANCH  21  23
HETATM   23  O   UNL     1       5.109  33.253  61.330  1.00  0.00    -0.391 OA
HETATM   24  H   UNL     1       5.133  32.299  61.141  1.00  0.00     0.210 HD
ENDBRANCH  21  23
ENDBRANCH  17  21
ENDBRANCH  12  15
ENDBRANCH   1  11
BRANCH   8  25
HETATM   25  C   UNL     1       6.029  27.824  53.128  1.00  0.00     0.409 C 
HETATM   26  F   UNL     1       6.106  29.033  52.528  1.00  0.00    -0.169 F 
HETATM   27  F   UNL     1       5.573  26.955  52.186  1.00  0.00    -0.169 F 
HETATM   28  F   UNL     1       5.075  27.895  54.078  1.00  0.00    -0.169 F 
ENDBRANCH   8  25
BRANCH   6  29
HETATM   29  C   UNL     1       7.255  23.559  54.411  1.00  0.00    -0.035 A 
HETATM   30  C   UNL     1       7.379  22.903  55.646  1.00  0.00     0.012 A 
HETATM   31  C   UNL     1       7.868  21.595  55.705  1.00  0.00     0.043 A 
HETATM   32  C   UNL     1       8.232  20.940  54.534  1.00  0.00     0.116 A 
HETATM   33  F   UNL     1       8.702  19.688  54.597  1.00  0.00    -0.206 F 
HETATM   34  C   UNL     1       8.117  21.566  53.300  1.00  0.00     0.043 A 
HETATM   35  C   UNL     1       7.626  22.871  53.238  1.00  0.00     0.012 A 
ENDBRANCH   6  29
TORSDOF 6
ENDMDL
MODEL 3
REMARK VINA RESULT:     -10.2      4.089      9.437
REMARK  6 active torsions:
REMARK  status: ('A' for Active; 'I' for Inactive)
REMARK    1  A    between atoms: C_2  and  O_3 
REMARK    2  A    between atoms: C_2  and  C_4 
REMARK    3  A    between atoms: C_6  and  N_7 
REMARK       I    between atoms: N_7  and  C_8 
REMARK    4  A    between atoms: C_8  and  C_9 
REMARK    5  A    between atoms: C_14  and  C_15 
REMARK    6  A    between atoms: C_23  and  C_24 
ROOT
HETATM    1  C   UNL     1       6.255  27.360  56.956  1.00  0.00     0.148 A 
HETATM    2  N   UNL     1       5.131  28.116  56.919  1.00  0.00    -0.165 NA
HETATM    3  N   UNL     1       5.559  29.321  57.339  1.00  0.00    -0.240 N 
HETATM    4  C   UNL     1       6.872  29.347  57.716  1.00  0.00     0.123 A 
HETATM    5  N   UNL     1       7.414  30.445  58.281  1.00  0.00    -0.366 N 
HETATM    6  C   UNL     1       6.597  31.542  58.802  1.00  0.00     0.118 C 
HETATM    7  C   UNL     1       5.093  31.192  58.808  1.00  0.00     0.066 C 
HETATM    8  C   UNL     1       4.663  30.443  57.537  1.00  0.00     0.221 C 
HETATM    9  C   UNL     1       7.373  28.110  57.416  1.00  0.00     0.089 A 
HETATM   10  H   UNL     1       8.398  30.466  58.550  1.00  0.00     0.161 HD
ENDROOT
BRANCH   1  11
HETATM   11  C   UNL     1       6.253  25.929  56.603  1.00  0.00     0.276 C 
HETATM   12  N   UNL     1       7.149  25.645  55.590  1.00  0.00    -0.322 N 
HETATM   13  H   UNL     1       7.691  26.453  55.292  1.00  0.00     0.169 HD
HETATM   14  O   UNL     1       5.511  25.135  57.171  1.00  0.00    -0.266 OA
BRANCH  12  15
HETATM   15  C   UNL     1       7.381  24.415  54.954  1.00  0.00     0.035 A 
HETATM   16  C   UNL     1       7.543  23.207  55.638  1.00  0.00     0.039 A 
HETATM   17  C   UNL     1       7.770  22.005  54.945  1.00  0.00    -0.028 A 
HETATM   18  C   UNL     1       7.853  22.034  53.547  1.00  0.00     0.010 A 
HETATM   19  C   UNL     1       7.683  23.233  52.856  1.00  0.00     0.003 A 
HETATM   20  C   UNL     1       7.443  24.416  53.557  1.00  0.00     0.029 A 
BRANCH  17  21
HETATM   21  C   UNL     1       7.958  20.720  55.724  1.00  0.00     0.147 C 
HETATM   22  C   UNL     1       8.422  20.983  57.150  1.00  0.00     0.044 C 
BRANCH  21  23
HETATM   23  O   UNL     1       8.905  19.871  55.078  1.00  0.00    -0.391 OA
HETATM   24  H   UNL     1       9.785  20.182  55.349  1.00  0.00     0.210 HD
ENDBRANCH  21  23
ENDBRANCH  17  21
ENDBRANCH  12  15
ENDBRANCH   1  11
BRANCH   8  25
HETATM   25  C   UNL     1       4.651  31.325  56.311  1.00  0.00     0.409 C 
HETATM   26  F   UNL     1       5.727  31.116  55.519  1.00  0.00    -0.169 F 
HETATM   27  F   UNL     1       3.556  31.041  55.557  1.00  0.00    -0.169 F 
HETATM   28  F   UNL     1       4.594  32.642  56.590  1.00  0.00    -0.169 F 
ENDBRANCH   8  25
BRANCH   6  29
HETATM   29  C   UNL     1       7.068  31.887  60.207  1.00  0.00    -0.035 A 
HETATM   30  C   UNL     1       8.296  31.400  60.684  1.00  0.00     0.012 A 
HETATM   31  C   UNL     1       8.731  31.722  61.973  1.00  0.00     0.043 A 
HETATM   32  C   UNL     1       7.945  32.531  62.785  1.00  0.00     0.116 A 
HETATM   33  F   UNL     1       8.366  32.835  64.019  1.00  0.00    -0.206 F 
HETATM   34  C   UNL     1       6.729  33.028  62.336  1.00  0.00     0.043 A 
HETATM   35  C   UNL     1       6.293  32.710  61.049  1.00  0.00     0.012 A 
ENDBRANCH   6  29
TORSDOF 6
ENDMDL
MODEL 4
REMARK VINA RESULT:     -10.0      3.744      5.942
REMARK  6 active torsions:
REMARK  status: ('A' for Active; 'I' for Inactive)
REMARK    1  A    between atoms: C_2  and  O_3 
REMARK    2  A    between atoms: C_2  and  C_4 
REMARK    3  A    between atoms: C_6  and  N_7 
REMARK       I    between atoms: N_7  and  C_8 
REMARK    4  A    between atoms: C_8  and  C_9 
REMARK    5  A    between atoms: C_14  and  C_15 
REMARK    6  A    between atoms: C_23  and  C_24 
ROOT
HETATM    1  C   UNL     1       6.797  31.317  58.872  1.00  0.00     0.148 A 
HETATM    2  N   UNL     1       7.955  30.619  58.973  1.00  0.00    -0.165 NA
HETATM    3  N   UNL     1       8.079  30.057  57.756  1.00  0.00    -0.240 N 
HETATM    4  C   UNL     1       7.025  30.295  56.920  1.00  0.00     0.123 A 
HETATM    5  N   UNL     1       6.940  29.695  55.716  1.00  0.00    -0.366 N 
HETATM    6  C   UNL     1       7.773  28.548  55.352  1.00  0.00     0.118 C 
HETATM    7  C   UNL     1       8.576  28.010  56.556  1.00  0.00     0.066 C 
HETATM    8  C   UNL     1       9.150  29.139  57.425  1.00  0.00     0.221 C 
HETATM    9  C   UNL     1       6.207  31.166  57.586  1.00  0.00     0.089 A 
HETATM   10  H   UNL     1       6.158  29.885  55.088  1.00  0.00     0.161 HD
ENDROOT
BRANCH   1  11
HETATM   11  C   UNL     1       6.237  32.080  60.003  1.00  0.00     0.276 C 
HETATM   12  N   UNL     1       7.206  32.419  60.928  1.00  0.00    -0.322 N 
HETATM   13  H   UNL     1       8.143  32.132  60.655  1.00  0.00     0.169 HD
HETATM   14  O   UNL     1       5.041  32.341  60.062  1.00  0.00    -0.266 OA
BRANCH  12  15
HETATM   15  C   UNL     1       7.043  33.088  62.151  1.00  0.00     0.035 A 
HETATM   16  C   UNL     1       6.286  34.253  62.303  1.00  0.00     0.039 A 
HETATM   17  C   UNL     1       6.157  34.877  63.557  1.00  0.00    -0.028 A 
HETATM   18  C   UNL     1       6.819  34.324  64.660  1.00  0.00     0.010 A 
HETATM   19  C   UNL     1       7.567  33.156  64.520  1.00  0.00     0.003 A 
HETATM   20  C   UNL     1       7.674  32.540  63.272  1.00  0.00     0.029 A 
BRANCH  17  21
HETATM   21  C   UNL     1       5.342  36.149  63.676  1.00  0.00     0.147 C 
HETATM   22  C   UNL     1       4.625  36.487  62.377  1.00  0.00     0.044 C 
BRANCH  21  23
HETATM   23  O   UNL     1       6.173  37.247  64.046  1.00  0.00    -0.391 OA
HETATM   24  H   UNL     1       6.694  37.478  63.258  1.00  0.00     0.210 HD
ENDBRANCH  21  23
ENDBRANCH  17  21
ENDBRANCH  12  15
ENDBRANCH   1  11
BRANCH   8  25
HETATM   25  C   UNL     1      10.283  29.880  56.753  1.00  0.00     0.409 C 
HETATM   26  F   UNL     1      10.419  31.141  57.219  1.00  0.00    -0.169 F 
HETATM   27  F   UNL     1      11.457  29.245  57.010  1.00  0.00    -0.169 F 
HETATM   28  F   UNL     1      10.168  29.946  55.411  1.00  0.00    -0.169 F 
ENDBRANCH   8  25
BRANCH   6  29
HETATM   29  C   UNL     1       6.886  27.455  54.774  1.00  0.00    -0.035 A 
HETATM   30  C   UNL     1       5.925  27.762  53.797  1.00  0.00     0.012 A 
HETATM   31  C   UNL     1       5.115  26.757  53.262  1.00  0.00     0.043 A 
HETATM   32  C   UNL     1       5.263  25.445  53.698  1.00  0.00     0.116 A 
HETATM   33  F   UNL     1       4.483  24.487  53.183  1.00  0.00    -0.206 F 
HETATM   34  C   UNL     1       6.207  25.115  54.660  1.00  0.00     0.043 A 
HETATM   35  C   UNL     1       7.019  26.116  55.195  1.00  0.00     0.012 A 
ENDBRANCH   6  29
TORSDOF 6
ENDMDL
MODEL 5
REMARK VINA RESULT:      -9.9      2.316      4.932
REMARK  6 active torsions:
REMARK  status: ('A' for Active; 'I' for Inactive)
REMARK    1  A    between atoms: C_2  and  O_3 
REMARK    2  A    between atoms: C_2  and  C_4 
REMARK    3  A    between atoms: C_6  and  N_7 
REMARK       I    between atoms: N_7  and  C_8 
REMARK    4  A    between atoms: C_8  and  C_9 
REMARK    5  A    between atoms: C_14  and  C_15 
REMARK    6  A    between atoms: C_23  and  C_24 
ROOT
HETATM    1  C   UNL     1       7.511  27.215  55.902  1.00  0.00     0.148 A 
HETATM    2  N   UNL     1       6.982  25.969  55.850  1.00  0.00    -0.165 NA
HETATM    3  N   UNL     1       6.829  25.757  54.529  1.00  0.00    -0.240 N 
HETATM    4  C   UNL     1       7.156  26.831  53.749  1.00  0.00     0.123 A 
HETATM    5  N   UNL     1       6.933  26.820  52.420  1.00  0.00    -0.366 N 
HETATM    6  C   UNL     1       6.072  25.826  51.777  1.00  0.00     0.118 C 
HETATM    7  C   UNL     1       5.319  24.959  52.809  1.00  0.00     0.066 C 
HETATM    8  C   UNL     1       6.208  24.561  53.997  1.00  0.00     0.221 C 
HETATM    9  C   UNL     1       7.668  27.770  54.601  1.00  0.00     0.089 A 
HETATM   10  H   UNL     1       7.190  27.618  51.838  1.00  0.00     0.161 HD
ENDROOT
BRANCH   1  11
HETATM   11  C   UNL     1       7.820  27.887  57.177  1.00  0.00     0.276 C 
HETATM   12  N   UNL     1       7.999  29.247  57.016  1.00  0.00    -0.322 N 
HETATM   13  H   UNL     1       7.841  29.565  56.062  1.00  0.00     0.169 HD
HETATM   14  O   UNL     1       7.906  27.253  58.224  1.00  0.00    -0.266 OA
BRANCH  12  15
HETATM   15  C   UNL     1       8.359  30.198  57.985  1.00  0.00     0.035 A 
HETATM   16  C   UNL     1       7.481  30.686  58.957  1.00  0.00     0.039 A 
HETATM   17  C   UNL     1       7.901  31.636  59.904  1.00  0.00    -0.028 A 
HETATM   18  C   UNL     1       9.219  32.109  59.849  1.00  0.00     0.010 A 
HETATM   19  C   UNL     1      10.105  31.621  58.890  1.00  0.00     0.003 A 
HETATM   20  C   UNL     1       9.677  30.666  57.966  1.00  0.00     0.029 A 
BRANCH  17  21
HETATM   21  C   UNL     1       6.914  32.153  60.929  1.00  0.00     0.147 C 
HETATM   22  C   UNL     1       7.228  31.640  62.328  1.00  0.00     0.044 C 
BRANCH  21  23
HETATM   23  O   UNL     1       5.583  31.773  60.584  1.00  0.00    -0.391 OA
HETATM   24  H   UNL     1       5.648  30.913  60.135  1.00  0.00     0.210 HD
ENDBRANCH  21  23
ENDBRANCH  17  21
ENDBRANCH  12  15
ENDBRANCH   1  11
BRANCH   8  25
HETATM   25  C   UNL     1       7.264  23.546  53.626  1.00  0.00     0.409 C 
HETATM   26  F   UNL     1       7.486  22.652  54.616  1.00  0.00    -0.169 F 
HETATM   27  F   UNL     1       6.847  22.830  52.547  1.00  0.00    -0.169 F 
HETATM   28  F   UNL     1       8.449  24.093  53.289  1.00  0.00    -0.169 F 
ENDBRANCH   8  25
BRANCH   6  29
HETATM   29  C   UNL     1       5.088  26.541  50.863  1.00  0.00    -0.035 A 
HETATM   30  C   UNL     1       4.671  25.943  49.662  1.00  0.00     0.012 A 
HETATM   31  C   UNL     1       3.762  26.597  48.826  1.00  0.00     0.043 A 
HETATM   32  C   UNL     1       3.266  27.845  49.186  1.00  0.00     0.116 A 
HETATM   33  F   UNL     1       2.397  28.467  48.380  1.00  0.00    -0.206 F 
HETATM   34  C   UNL     1       3.660  28.456  50.369  1.00  0.00     0.043 A 
HETATM   35  C   UNL     1       4.566  27.804  51.207  1.00  0.00     0.012 A 
ENDBRANCH   6  29
TORSDOF 6
ENDMDL
MODEL 6
REMARK VINA RESULT:      -9.8      4.201      8.382
REMARK  6 active torsions:
REMARK  status: ('A' for Active; 'I' for Inactive)
REMARK    1  A    between atoms: C_2  and  O_3 
REMARK    2  A    between atoms: C_2  and  C_4 
REMARK    3  A    between atoms: C_6  and  N_7 
REMARK       I    between atoms: N_7  and  C_8 
REMARK    4  A    between atoms: C_8  and  C_9 
REMARK    5  A    between atoms: C_14  and  C_15 
REMARK    6  A    between atoms: C_23  and  C_24 
ROOT
HETATM    1  C   UNL     1       5.073  27.483  52.996  1.00  0.00     0.148 A 
HETATM    2  N   UNL     1       4.746  27.449  54.311  1.00  0.00    -0.165 NA
HETATM    3  N   UNL     1       5.762  26.756  54.860  1.00  0.00    -0.240 N 
HETATM    4  C   UNL     1       6.669  26.283  53.954  1.00  0.00     0.123 A 
HETATM    5  N   UNL     1       7.670  25.462  54.334  1.00  0.00    -0.366 N 
HETATM    6  C   UNL     1       7.681  24.789  55.633  1.00  0.00     0.118 C 
HETATM    7  C   UNL     1       6.348  24.971  56.392  1.00  0.00     0.066 C 
HETATM    8  C   UNL     1       5.795  26.398  56.264  1.00  0.00     0.221 C 
HETATM    9  C   UNL     1       6.291  26.794  52.744  1.00  0.00     0.089 A 
HETATM   10  H   UNL     1       8.353  25.121  53.658  1.00  0.00     0.161 HD
ENDROOT
BRANCH   1  11
HETATM   11  C   UNL     1       4.211  28.125  51.988  1.00  0.00     0.276 C 
HETATM   12  N   UNL     1       4.602  27.815  50.699  1.00  0.00    -0.322 N 
HETATM   13  H   UNL     1       5.383  27.163  50.660  1.00  0.00     0.169 HD
HETATM   14  O   UNL     1       3.277  28.848  52.318  1.00  0.00    -0.266 OA
BRANCH  12  15
HETATM   15  C   UNL     1       4.064  28.283  49.490  1.00  0.00     0.035 A 
HETATM   16  C   UNL     1       2.937  27.727  48.876  1.00  0.00     0.039 A 
HETATM   17  C   UNL     1       2.441  28.242  47.666  1.00  0.00    -0.028 A 
HETATM   18  C   UNL     1       3.108  29.317  47.064  1.00  0.00     0.010 A 
HETATM   19  C   UNL     1       4.225  29.885  47.674  1.00  0.00     0.003 A 
HETATM   20  C   UNL     1       4.697  29.372  48.884  1.00  0.00     0.029 A 
BRANCH  17  21
HETATM   21  C   UNL     1       1.229  27.599  47.024  1.00  0.00     0.147 C 
HETATM   22  C   UNL     1       0.292  28.634  46.419  1.00  0.00     0.044 C 
BRANCH  21  23
HETATM   23  O   UNL     1       0.507  26.821  47.977  1.00  0.00    -0.391 OA
HETATM   24  H   UNL     1       1.046  26.031  48.155  1.00  0.00     0.210 HD
ENDBRANCH  21  23
ENDBRANCH  17  21
ENDBRANCH  12  15
ENDBRANCH   1  11
BRANCH   8  25
HETATM   25  C   UNL     1       6.600  27.413  57.043  1.00  0.00     0.409 C 
HETATM   26  F   UNL     1       7.432  28.125  56.250  1.00  0.00    -0.169 F 
HETATM   27  F   UNL     1       5.760  28.310  57.624  1.00  0.00    -0.169 F 
HETATM   28  F   UNL     1       7.335  26.875  58.036  1.00  0.00    -0.169 F 
ENDBRANCH   8  25
BRANCH   6  29
HETATM   29  C   UNL     1       7.976  23.311  55.423  1.00  0.00    -0.035 A 
HETATM   30  C   UNL     1       8.016  22.772  54.127  1.00  0.00     0.012 A 
HETATM   31  C   UNL     1       8.293  21.416  53.935  1.00  0.00     0.043 A 
HETATM   32  C   UNL     1       8.532  20.597  55.033  1.00  0.00     0.116 A 
HETATM   33  F   UNL     1       8.795  19.298  54.842  1.00  0.00    -0.206 F 
HETATM   34  C   UNL     1       8.502  21.106  56.323  1.00  0.00     0.043 A 
HETATM   35  C   UNL     1       8.228  22.461  56.519  1.00  0.00     0.012 A 
ENDBRANCH   6  29
TORSDOF 6
ENDMDL
MODEL 7
REMARK VINA RESULT:      -9.5      2.715      3.009
REMARK  6 active torsions:
REMARK  status: ('A' for Active; 'I' for Inactive)
REMARK    1  A    between atoms: C_2  and  O_3 
REMARK    2  A    between atoms: C_2  and  C_4 
REMARK    3  A    between atoms: C_6  and  N_7 
REMARK       I    between atoms: N_7  and  C_8 
REMARK    4  A    between atoms: C_8  and  C_9 
REMARK    5  A    between atoms: C_14  and  C_15 
REMARK    6  A    between atoms: C_23  and  C_24 
ROOT
HETATM    1  C   UNL     1       6.041  28.108  55.924  1.00  0.00     0.148 A 
HETATM    2  N   UNL     1       6.540  28.257  54.673  1.00  0.00    -0.165 NA
HETATM    3  N   UNL     1       6.396  27.030  54.138  1.00  0.00    -0.240 N 
HETATM    4  C   UNL     1       5.907  26.096  55.007  1.00  0.00     0.123 A 
HETATM    5  N   UNL     1       5.829  24.795  54.660  1.00  0.00    -0.366 N 
HETATM    6  C   UNL     1       6.522  24.253  53.490  1.00  0.00     0.118 C 
HETATM    7  C   UNL     1       7.483  25.283  52.857  1.00  0.00     0.066 C 
HETATM    8  C   UNL     1       6.878  26.694  52.813  1.00  0.00     0.221 C 
HETATM    9  C   UNL     1       5.601  26.774  56.154  1.00  0.00     0.089 A 
HETATM   10  H   UNL     1       5.452  24.102  55.306  1.00  0.00     0.161 HD
ENDROOT
BRANCH   1  11
HETATM   11  C   UNL     1       6.026  29.210  56.903  1.00  0.00     0.276 C 
HETATM   12  N   UNL     1       4.991  30.095  56.669  1.00  0.00    -0.322 N 
HETATM   13  H   UNL     1       4.387  29.817  55.899  1.00  0.00     0.169 HD
HETATM   14  O   UNL     1       6.869  29.283  57.790  1.00  0.00    -0.266 OA
BRANCH  12  15
HETATM   15  C   UNL     1       4.695  31.287  57.351  1.00  0.00     0.035 A 
HETATM   16  C   UNL     1       4.062  31.331  58.596  1.00  0.00     0.039 A 
HETATM   17  C   UNL     1       3.795  32.556  59.232  1.00  0.00    -0.028 A 
HETATM   18  C   UNL     1       4.156  33.746  58.587  1.00  0.00     0.010 A 
HETATM   19  C   UNL     1       4.797  33.712  57.350  1.00  0.00     0.003 A 
HETATM   20  C   UNL     1       5.069  32.487  56.738  1.00  0.00     0.029 A 
BRANCH  17  21
HETATM   21  C   UNL     1       3.091  32.562  60.573  1.00  0.00     0.147 C 
HETATM   22  C   UNL     1       3.559  33.710  61.455  1.00  0.00     0.044 C 
BRANCH  21  23
HETATM   23  O   UNL     1       3.308  31.331  61.261  1.00  0.00    -0.391 OA
HETATM   24  H   UNL     1       2.429  30.954  61.439  1.00  0.00     0.210 HD
ENDBRANCH  21  23
ENDBRANCH  17  21
ENDBRANCH  12  15
ENDBRANCH   1  11
BRANCH   8  25
HETATM   25  C   UNL     1       5.763  26.825  51.803  1.00  0.00     0.409 C 
HETATM   26  F   UNL     1       5.796  25.843  50.873  1.00  0.00    -0.169 F 
HETATM   27  F   UNL     1       4.563  26.718  52.433  1.00  0.00    -0.169 F 
HETATM   28  F   UNL     1       5.753  28.007  51.155  1.00  0.00    -0.169 F 
ENDBRANCH   8  25
BRANCH   6  29
HETATM   29  C   UNL     1       7.281  23.000  53.901  1.00  0.00    -0.035 A 
HETATM   30  C   UNL     1       7.458  22.689  55.259  1.00  0.00     0.012 A 
HETATM   31  C   UNL     1       8.149  21.535  55.636  1.00  0.00     0.043 A 
HETATM   32  C   UNL     1       8.664  20.688  54.660  1.00  0.00     0.116 A 
HETATM   33  F   UNL     1       9.327  19.585  55.027  1.00  0.00    -0.206 F 
HETATM   34  C   UNL     1       8.500  20.972  53.311  1.00  0.00     0.043 A 
HETATM   35  C   UNL     1       7.808  22.122  52.932  1.00  0.00     0.012 A 
ENDBRANCH   6  29
TORSDOF 6
ENDMDL
MODEL 8
REMARK VINA RESULT:      -9.3      2.486      3.208
REMARK  6 active torsions:
REMARK  status: ('A' for Active; 'I' for Inactive)
REMARK    1  A    between atoms: C_2  and  O_3 
REMARK    2  A    between atoms: C_2  and  C_4 
REMARK    3  A    between atoms: C_6  and  N_7 
REMARK       I    between atoms: N_7  and  C_8 
REMARK    4  A    between atoms: C_8  and  C_9 
REMARK    5  A    between atoms: C_14  and  C_15 
REMARK    6  A    between atoms: C_23  and  C_24 
ROOT
HETATM    1  C   UNL     1       6.390  29.623  57.156  1.00  0.00     0.148 A 
HETATM    2  N   UNL     1       6.264  29.900  55.836  1.00  0.00    -0.165 NA
HETATM    3  N   UNL     1       5.963  28.702  55.300  1.00  0.00    -0.240 N 
HETATM    4  C   UNL     1       5.971  27.671  56.196  1.00  0.00     0.123 A 
HETATM    5  N   UNL     1       5.818  26.394  55.791  1.00  0.00    -0.366 N 
HETATM    6  C   UNL     1       5.940  25.997  54.388  1.00  0.00     0.118 C 
HETATM    7  C   UNL     1       6.454  27.152  53.502  1.00  0.00     0.066 C 
HETATM    8  C   UNL     1       5.816  28.500  53.872  1.00  0.00     0.221 C 
HETATM    9  C   UNL     1       6.176  28.242  57.422  1.00  0.00     0.089 A 
HETATM   10  H   UNL     1       5.811  25.627  56.464  1.00  0.00     0.161 HD
ENDROOT
BRANCH   1  11
HETATM   11  C   UNL     1       6.754  30.653  58.145  1.00  0.00     0.276 C 
HETATM   12  N   UNL     1       5.647  31.154  58.804  1.00  0.00    -0.322 N 
HETATM   13  H   UNL     1       4.778  30.699  58.535  1.00  0.00     0.169 HD
HETATM   14  O   UNL     1       7.922  30.991  58.310  1.00  0.00    -0.266 OA
BRANCH  12  15
HETATM   15  C   UNL     1       5.595  32.179  59.762  1.00  0.00     0.035 A 
HETATM   16  C   UNL     1       6.377  32.198  60.920  1.00  0.00     0.039 A 
HETATM   17  C   UNL     1       6.283  33.255  61.842  1.00  0.00    -0.028 A 
HETATM   18  C   UNL     1       5.372  34.290  61.595  1.00  0.00     0.010 A 
HETATM   19  C   UNL     1       4.595  34.284  60.438  1.00  0.00     0.003 A 
HETATM   20  C   UNL     1       4.711  33.236  59.524  1.00  0.00     0.029 A 
BRANCH  17  21
HETATM   21  C   UNL     1       7.136  33.230  63.094  1.00  0.00     0.147 C 
HETATM   22  C   UNL     1       8.217  32.161  63.023  1.00  0.00     0.044 C 
BRANCH  21  23
HETATM   23  O   UNL     1       6.330  32.999  64.248  1.00  0.00    -0.391 OA
HETATM   24  H   UNL     1       6.205  32.036  64.310  1.00  0.00     0.210 HD
ENDBRANCH  21  23
ENDBRANCH  17  21
ENDBRANCH  12  15
ENDBRANCH   1  11
BRANCH   8  25
HETATM   25  C   UNL     1       4.360  28.589  53.479  1.00  0.00     0.409 C 
HETATM   26  F   UNL     1       3.533  28.335  54.518  1.00  0.00    -0.169 F 
HETATM   27  F   UNL     1       4.078  29.851  53.060  1.00  0.00    -0.169 F 
HETATM   28  F   UNL     1       4.019  27.764  52.469  1.00  0.00    -0.169 F 
ENDBRANCH   8  25
BRANCH   6  29
HETATM   29  C   UNL     1       6.872  24.798  54.291  1.00  0.00    -0.035 A 
HETATM   30  C   UNL     1       7.111  24.181  53.052  1.00  0.00     0.012 A 
HETATM   31  C   UNL     1       7.972  23.084  52.963  1.00  0.00     0.043 A 
HETATM   32  C   UNL     1       8.596  22.601  54.108  1.00  0.00     0.116 A 
HETATM   33  F   UNL     1       9.418  21.548  54.017  1.00  0.00    -0.206 F 
HETATM   34  C   UNL     1       8.379  23.195  55.344  1.00  0.00     0.043 A 
HETATM   35  C   UNL     1       7.521  24.292  55.436  1.00  0.00     0.012 A 
ENDBRANCH   6  29
TORSDOF 6
ENDMDL
MODEL 9
REMARK VINA RESULT:      -9.1      4.851      8.615
REMARK  6 active torsions:
REMARK  status: ('A' for Active; 'I' for Inactive)
REMARK    1  A    between atoms: C_2  and  O_3 
REMARK    2  A    between atoms: C_2  and  C_4 
REMARK    3  A    between atoms: C_6  and  N_7 
REMARK       I    between atoms: N_7  and  C_8 
REMARK    4  A    between atoms: C_8  and  C_9 
REMARK    5  A    between atoms: C_14  and  C_15 
REMARK    6  A    between atoms: C_23  and  C_24 
ROOT
HETATM    1  C   UNL     1       5.336  26.406  51.315  1.00  0.00     0.148 A 
HETATM    2  N   UNL     1       4.939  26.830  52.540  1.00  0.00    -0.165 NA
HETATM    3  N   UNL     1       5.882  26.325  53.358  1.00  0.00    -0.240 N 
HETATM    4  C   UNL     1       6.807  25.541  52.728  1.00  0.00     0.123 A 
HETATM    5  N   UNL     1       7.736  24.860  53.428  1.00  0.00    -0.366 N 
HETATM    6  C   UNL     1       7.639  24.665  54.876  1.00  0.00     0.118 C 
HETATM    7  C   UNL     1       6.281  25.141  55.435  1.00  0.00     0.066 C 
HETATM    8  C   UNL     1       5.820  26.461  54.799  1.00  0.00     0.221 C 
HETATM    9  C   UNL     1       6.524  25.627  51.393  1.00  0.00     0.089 A 
HETATM   10  H   UNL     1       8.433  24.285  52.955  1.00  0.00     0.161 HD
ENDROOT
BRANCH   1  11
HETATM   11  C   UNL     1       4.568  26.702  50.093  1.00  0.00     0.276 C 
HETATM   12  N   UNL     1       4.258  28.044  49.988  1.00  0.00    -0.322 N 
HETATM   13  H   UNL     1       4.650  28.609  50.739  1.00  0.00     0.169 HD
HETATM   14  O   UNL     1       4.259  25.813  49.306  1.00  0.00    -0.266 OA
BRANCH  12  15
HETATM   15  C   UNL     1       3.494  28.687  49.000  1.00  0.00     0.035 A 
HETATM   16  C   UNL     1       4.048  29.414  47.943  1.00  0.00     0.039 A 
HETATM   17  C   UNL     1       3.230  30.033  46.981  1.00  0.00    -0.028 A 
HETATM   18  C   UNL     1       1.839  29.928  47.106  1.00  0.00     0.010 A 
HETATM   19  C   UNL     1       1.278  29.196  48.151  1.00  0.00     0.003 A 
HETATM   20  C   UNL     1       2.103  28.574  49.090  1.00  0.00     0.029 A 
BRANCH  17  21
HETATM   21  C   UNL     1       3.869  30.828  45.861  1.00  0.00     0.147 C 
HETATM   22  C   UNL     1       4.564  32.079  46.378  1.00  0.00     0.044 C 
BRANCH  21  23
HETATM   23  O   UNL     1       2.894  31.206  44.891  1.00  0.00    -0.391 OA
HETATM   24  H   UNL     1       2.695  30.408  44.372  1.00  0.00     0.210 HD
ENDBRANCH  21  23
ENDBRANCH  17  21
ENDBRANCH  12  15
ENDBRANCH   1  11
BRANCH   8  25
HETATM   25  C   UNL     1       6.640  27.648  55.248  1.00  0.00     0.409 C 
HETATM   26  F   UNL     1       5.968  28.814  55.119  1.00  0.00    -0.169 F 
HETATM   27  F   UNL     1       6.940  27.520  56.568  1.00  0.00    -0.169 F 
HETATM   28  F   UNL     1       7.814  27.774  54.598  1.00  0.00    -0.169 F 
ENDBRANCH   8  25
BRANCH   6  29
HETATM   29  C   UNL     1       7.858  23.192  55.193  1.00  0.00    -0.035 A 
HETATM   30  C   UNL     1       7.779  22.227  54.176  1.00  0.00     0.012 A 
HETATM   31  C   UNL     1       7.986  20.876  54.466  1.00  0.00     0.043 A 
HETATM   32  C   UNL     1       8.273  20.486  55.770  1.00  0.00     0.116 A 
HETATM   33  F   UNL     1       8.469  19.190  56.042  1.00  0.00    -0.206 F 
HETATM   34  C   UNL     1       8.360  21.421  56.792  1.00  0.00     0.043 A 
HETATM   35  C   UNL     1       8.156  22.771  56.504  1.00  0.00     0.012 A 
ENDBRANCH   6  29
TORSDOF 6
ENDMDL
MODEL 10
REMARK VINA RESULT:      -9.1      4.410      9.474
REMARK  6 active torsions:
REMARK  status: ('A' for Active; 'I' for Inactive)
REMARK    1  A    between atoms: C_2  and  O_3 
REMARK    2  A    between atoms: C_2  and  C_4 
REMARK    3  A    between atoms: C_6  and  N_7 
REMARK       I    between atoms: N_7  and  C_8 
REMARK    4  A    between atoms: C_8  and  C_9 
REMARK    5  A    between atoms: C_14  and  C_15 
REMARK    6  A    between atoms: C_23  and  C_24 
ROOT
HETATM    1  C   UNL     1       5.686  26.865  52.713  1.00  0.00     0.148 A 
HETATM    2  N   UNL     1       6.448  25.874  53.237  1.00  0.00    -0.165 NA
HETATM    3  N   UNL     1       6.615  26.261  54.516  1.00  0.00    -0.240 N 
HETATM    4  C   UNL     1       6.068  27.479  54.806  1.00  0.00     0.123 A 
HETATM    5  N   UNL     1       6.263  28.062  56.007  1.00  0.00    -0.366 N 
HETATM    6  C   UNL     1       7.289  27.603  56.943  1.00  0.00     0.118 C 
HETATM    7  C   UNL     1       8.218  26.544  56.311  1.00  0.00     0.066 C 
HETATM    8  C   UNL     1       7.448  25.531  55.450  1.00  0.00     0.221 C 
HETATM    9  C   UNL     1       5.399  27.868  53.679  1.00  0.00     0.089 A 
HETATM   10  H   UNL     1       5.843  28.965  56.226  1.00  0.00     0.161 HD
ENDROOT
BRANCH   1  11
HETATM   11  C   UNL     1       5.277  26.878  51.297  1.00  0.00     0.276 C 
HETATM   12  N   UNL     1       4.758  28.101  50.919  1.00  0.00    -0.322 N 
HETATM   13  H   UNL     1       4.789  28.799  51.659  1.00  0.00     0.169 HD
HETATM   14  O   UNL     1       5.397  25.881  50.592  1.00  0.00    -0.266 OA
BRANCH  12  15
HETATM   15  C   UNL     1       4.215  28.470  49.677  1.00  0.00     0.035 A 
HETATM   16  C   UNL     1       3.106  27.846  49.100  1.00  0.00     0.039 A 
HETATM   17  C   UNL     1       2.605  28.262  47.854  1.00  0.00    -0.028 A 
HETATM   18  C   UNL     1       3.249  29.308  47.181  1.00  0.00     0.010 A 
HETATM   19  C   UNL     1       4.348  29.944  47.754  1.00  0.00     0.003 A 
HETATM   20  C   UNL     1       4.825  29.529  48.999  1.00  0.00     0.029 A 
BRANCH  17  21
HETATM   21  C   UNL     1       1.412  27.547  47.254  1.00  0.00     0.147 C 
HETATM   22  C   UNL     1       0.383  28.524  46.703  1.00  0.00     0.044 C 
BRANCH  21  23
HETATM   23  O   UNL     1       0.784  26.711  48.225  1.00  0.00    -0.391 OA
HETATM   24  H   UNL     1      -0.136  27.018  48.301  1.00  0.00     0.210 HD
ENDBRANCH  21  23
ENDBRANCH  17  21
ENDBRANCH  12  15
ENDBRANCH   1  11
BRANCH   8  25
HETATM   25  C   UNL     1       6.605  24.584  56.271  1.00  0.00     0.409 C 
HETATM   26  F   UNL     1       5.305  24.953  56.307  1.00  0.00    -0.169 F 
HETATM   27  F   UNL     1       6.638  23.345  55.711  1.00  0.00    -0.169 F 
HETATM   28  F   UNL     1       7.029  24.442  57.542  1.00  0.00    -0.169 F 
ENDBRANCH   8  25
BRANCH   6  29
HETATM   29  C   UNL     1       8.097  28.802  57.420  1.00  0.00    -0.035 A 
HETATM   30  C   UNL     1       7.513  29.761  58.263  1.00  0.00     0.012 A 
HETATM   31  C   UNL     1       8.257  30.858  58.706  1.00  0.00     0.043 A 
HETATM   32  C   UNL     1       9.582  30.999  58.311  1.00  0.00     0.116 A 
HETATM   33  F   UNL     1      10.289  32.053  58.737  1.00  0.00    -0.206 F 
HETATM   34  C   UNL     1      10.183  30.062  57.481  1.00  0.00     0.043 A 
HETATM   35  C   UNL     1       9.444  28.965  57.039  1.00  0.00     0.012 A 
ENDBRANCH   6  29
TORSDOF 6
ENDMDL
