MODEL 1
REMARK VINA RESULT:      -9.1      0.000      0.000
REMARK  8 active torsions:
REMARK  status: ('A' for Active; 'I' for Inactive)
REMARK    1  A    between atoms: C_2  and  O_3 
REMARK    2  A    between atoms: O_3  and  C_4 
REMARK    3  A    between atoms: C_5  and  N_6 
REMARK       I    between atoms: N_6  and  C_7 
REMARK    4  A    between atoms: C_7  and  C_8 
REMARK    5  A    between atoms: C_8  and  C_9 
REMARK    6  A    between atoms: C_9  and  S_10 
REMARK    7  A    between atoms: S_10  and  C_11 
REMARK    8  A    between atoms: N_12  and  C_13 
ROOT
HETATM    1  C   UNL     1       7.169  27.365  56.089  1.00  0.00     0.177 A 
HETATM    2  N   UNL     1       6.470  26.825  54.984  1.00  0.00    -0.276 N 
HETATM    3  C   UNL     1       6.589  25.407  54.741  1.00  0.00     0.124 A 
HETATM    4  N   UNL     1       5.935  24.778  53.785  1.00  0.00    -0.384 N 
HETATM    5  H   UNL     1       6.026  23.780  53.660  1.00  0.00     0.157 HD
HETATM    6  H   UNL     1       5.310  25.287  53.174  1.00  0.00     0.157 HD
HETATM    7  C   UNL     1       7.437  24.681  55.633  1.00  0.00     0.081 A 
HETATM    8  C   UNL     1       8.030  25.362  56.690  1.00  0.00     0.187 A 
HETATM    9  N   UNL     1       8.795  24.578  57.436  1.00  0.00    -0.153 NA
HETATM   10  N   UNL     1       8.680  23.375  56.843  1.00  0.00    -0.280 N 
HETATM   11  H   UNL     1       9.193  22.596  57.246  1.00  0.00     0.189 HD
HETATM   12  C   UNL     1       7.861  23.377  55.732  1.00  0.00     0.042 A 
HETATM   13  C   UNL     1       7.621  22.147  54.945  1.00  0.00     0.071 C 
HETATM   14  N   UNL     1       7.896  26.717  56.952  1.00  0.00    -0.202 NA
ENDROOT
BRANCH   1  15
HETATM   15  S   UNL     1       7.090  29.123  56.378  1.00  0.00    -0.091 SA
BRANCH  15  16
HETATM   16  C   UNL     1       7.678  29.264  58.100  1.00  0.00     0.091 C 
BRANCH  16  17
HETATM   17  C   UNL     1       8.950  30.083  58.290  1.00  0.00     0.113 C 
BRANCH  17  18
HETATM   18  C   UNL     1       8.772  31.196  59.297  1.00  0.00     0.223 C 
HETATM   19  N   UNL     1       8.030  30.810  60.400  1.00  0.00    -0.325 N 
HETATM   20  H   UNL     1       8.083  29.832  60.652  1.00  0.00     0.169 HD
HETATM   21  O   UNL     1       9.307  32.288  59.119  1.00  0.00    -0.273 OA
BRANCH  19  22
HETATM   22  C   UNL     1       7.554  31.685  61.401  1.00  0.00     0.068 A 
HETATM   23  C   UNL     1       6.332  32.375  61.326  1.00  0.00     0.095 A 
HETATM   24  C   UNL     1       5.936  33.207  62.381  1.00  0.00     0.039 A 
HETATM   25  C   UNL     1       6.752  33.365  63.502  1.00  0.00     0.003 A 
HETATM   26  C   UNL     1       7.950  32.663  63.593  1.00  0.00     0.002 A 
HETATM   27  C   UNL     1       8.341  31.813  62.555  1.00  0.00     0.032 A 
BRANCH  23  28
HETATM   28  O   UNL     1       5.445  32.067  60.325  1.00  0.00    -0.349 OA
BRANCH  28  29
HETATM   29  C   UNL     1       5.418  33.017  59.256  1.00  0.00     0.171 C 
HETATM   30  C   UNL     1       5.481  32.282  57.929  1.00  0.00     0.034 C 
ENDBRANCH  28  29
ENDBRANCH  23  28
ENDBRANCH  19  22
ENDBRANCH  17  18
ENDBRANCH  16  17
ENDBRANCH  15  16
ENDBRANCH   1  15
BRANCH   2  31
HETATM   31  C   UNL     1       5.638  27.630  54.148  1.00  0.00     0.044 A 
HETATM   32  C   UNL     1       6.094  28.083  52.901  1.00  0.00     0.054 A 
HETATM   33  C   UNL     1       5.295  28.925  52.130  1.00  0.00     0.036 A 
HETATM   34 CL   UNL     1       5.865  29.477  50.603  1.00  0.00    -0.084 Cl
HETATM   35  C   UNL     1       4.047  29.338  52.590  1.00  0.00     0.024 A 
HETATM   36  C   UNL     1       3.587  28.898  53.832  1.00  0.00     0.004 A 
HETATM   37  C   UNL     1       4.379  28.048  54.608  1.00  0.00     0.030 A 
ENDBRANCH   2  31
TORSDOF 8
ENDMDL
MODEL 2
REMARK VINA RESULT:      -9.1      4.735      9.316
REMARK  8 active torsions:
REMARK  status: ('A' for Active; 'I' for Inactive)
REMARK    1  A    between atoms: C_2  and  O_3 
REMARK    2  A    between atoms: O_3  and  C_4 
REMARK    3  A    between atoms: C_5  and  N_6 
REMARK       I    between atoms: N_6  and  C_7 
REMARK    4  A    between atoms: C_7  and  C_8 
REMARK    5  A    between atoms: C_8  and  C_9 
REMARK    6  A    between atoms: C_9  and  S_10 
REMARK    7  A    between atoms: S_10  and  C_11 
REMARK    8  A    between atoms: N_12  and  C_13 
ROOT
HETATM    1  C   UNL     1       7.311  25.463  54.013  1.00  0.00     0.177 A 
HETATM    2  N   UNL     1       7.380  25.512  55.425  1.00  0.00    -0.276 N 
HETATM    3  C   UNL     1       7.691  24.288  56.125  1.00  0.00     0.124 A 
HETATM    4  N   UNL     1       7.848  24.221  57.433  1.00  0.00    -0.384 N 
HETATM    5  H   UNL     1       8.087  23.350  57.885  1.00  0.00     0.157 HD
HETATM    6  H   UNL     1       7.753  25.052  58.001  1.00  0.00     0.157 HD
HETATM    7  C   UNL     1       7.870  23.124  55.317  1.00  0.00     0.081 A 
HETATM    8  C   UNL     1       7.796  23.255  53.935  1.00  0.00     0.187 A 
HETATM    9  N   UNL     1       7.972  22.104  53.303  1.00  0.00    -0.153 NA
HETATM   10  N   UNL     1       8.167  21.225  54.305  1.00  0.00    -0.280 N 
HETATM   11  H   UNL     1       8.324  20.252  54.059  1.00  0.00     0.189 HD
HETATM   12  C   UNL     1       8.114  21.793  55.562  1.00  0.00     0.042 A 
HETATM   13  C   UNL     1       8.297  20.982  56.786  1.00  0.00     0.071 C 
HETATM   14  N   UNL     1       7.531  24.432  53.250  1.00  0.00    -0.202 NA
ENDROOT
BRANCH   1  15
HETATM   15  S   UNL     1       6.870  26.945  53.124  1.00  0.00    -0.091 SA
BRANCH  15  16
HETATM   16  C   UNL     1       5.282  26.481  52.353  1.00  0.00     0.091 C 
BRANCH  16  17
HETATM   17  C   UNL     1       5.341  26.208  50.854  1.00  0.00     0.113 C 
BRANCH  17  18
HETATM   18  C   UNL     1       4.848  27.380  50.036  1.00  0.00     0.223 C 
HETATM   19  N   UNL     1       3.472  27.389  49.885  1.00  0.00    -0.325 N 
HETATM   20  H   UNL     1       2.939  26.967  50.634  1.00  0.00     0.169 HD
HETATM   21  O   UNL     1       5.636  28.229  49.628  1.00  0.00    -0.273 OA
BRANCH  19  22
HETATM   22  C   UNL     1       2.760  28.253  49.024  1.00  0.00     0.068 A 
HETATM   23  C   UNL     1       2.772  28.150  47.623  1.00  0.00     0.095 A 
HETATM   24  C   UNL     1       2.015  29.042  46.852  1.00  0.00     0.039 A 
HETATM   25  C   UNL     1       1.256  30.040  47.466  1.00  0.00     0.003 A 
HETATM   26  C   UNL     1       1.220  30.128  48.855  1.00  0.00     0.002 A 
HETATM   27  C   UNL     1       1.954  29.227  49.631  1.00  0.00     0.032 A 
BRANCH  23  28
HETATM   28  O   UNL     1       3.352  27.056  47.031  1.00  0.00    -0.349 OA
BRANCH  28  29
HETATM   29  C   UNL     1       2.471  25.939  46.879  1.00  0.00     0.171 C 
HETATM   30  C   UNL     1       3.001  24.767  47.685  1.00  0.00     0.034 C 
ENDBRANCH  28  29
ENDBRANCH  23  28
ENDBRANCH  19  22
ENDBRANCH  17  18
ENDBRANCH  16  17
ENDBRANCH  15  16
ENDBRANCH   1  15
BRANCH   2  31
HETATM   31  C   UNL     1       7.193  26.727  56.151  1.00  0.00     0.044 A 
HETATM   32  C   UNL     1       8.291  27.510  56.537  1.00  0.00     0.054 A 
HETATM   33  C   UNL     1       8.094  28.657  57.305  1.00  0.00     0.036 A 
HETATM   34 CL   UNL     1       9.447  29.610  57.775  1.00  0.00    -0.084 Cl
HETATM   35  C   UNL     1       6.814  29.030  57.709  1.00  0.00     0.024 A 
HETATM   36  C   UNL     1       5.717  28.253  57.336  1.00  0.00     0.004 A 
HETATM   37  C   UNL     1       5.905  27.107  56.561  1.00  0.00     0.030 A 
ENDBRANCH   2  31
TORSDOF 8
ENDMDL
MODEL 3
REMARK VINA RESULT:      -9.0      3.134      8.671
REMARK  8 active torsions:
REMARK  status: ('A' for Active; 'I' for Inactive)
REMARK    1  A    between atoms: C_2  and  O_3 
REMARK    2  A    between atoms: O_3  and  C_4 
REMARK    3  A    between atoms: C_5  and  N_6 
REMARK       I    between atoms: N_6  and  C_7 
REMARK    4  A    between atoms: C_7  and  C_8 
REMARK    5  A    between atoms: C_8  and  C_9 
REMARK    6  A    between atoms: C_9  and  S_10 
REMARK    7  A    between atoms: S_10  and  C_11 
REMARK    8  A    between atoms: N_12  and  C_13 
ROOT
HETATM    1  C   UNL     1       7.471  30.189  58.341  1.00  0.00     0.177 A 
HETATM    2  N   UNL     1       6.415  31.081  58.645  1.00  0.00    -0.276 N 
HETATM    3  C   UNL     1       6.463  31.772  59.911  1.00  0.00     0.124 A 
HETATM    4  N   UNL     1       5.574  32.675  60.278  1.00  0.00    -0.384 N 
HETATM    5  H   UNL     1       5.654  33.154  61.163  1.00  0.00     0.157 HD
HETATM    6  H   UNL     1       4.810  32.918  59.662  1.00  0.00     0.157 HD
HETATM    7  C   UNL     1       7.569  31.462  60.761  1.00  0.00     0.081 A 
HETATM    8  C   UNL     1       8.538  30.580  60.297  1.00  0.00     0.187 A 
HETATM    9  N   UNL     1       9.503  30.372  61.181  1.00  0.00    -0.153 NA
HETATM   10  N   UNL     1       9.141  31.142  62.225  1.00  0.00    -0.280 N 
HETATM   11  H   UNL     1       9.741  31.144  63.044  1.00  0.00     0.189 HD
HETATM   12  C   UNL     1       7.962  31.833  62.026  1.00  0.00     0.042 A 
HETATM   13  C   UNL     1       7.401  32.723  63.065  1.00  0.00     0.071 C 
HETATM   14  N   UNL     1       8.520  29.936  59.069  1.00  0.00    -0.202 NA
ENDROOT
BRANCH   1  15
HETATM   15  S   UNL     1       7.409  29.275  56.811  1.00  0.00    -0.091 SA
BRANCH  15  16
HETATM   16  C   UNL     1       6.892  27.616  57.367  1.00  0.00     0.091 C 
BRANCH  16  17
HETATM   17  C   UNL     1       7.989  26.556  57.362  1.00  0.00     0.113 C 
BRANCH  17  18
HETATM   18  C   UNL     1       7.474  25.198  56.941  1.00  0.00     0.223 C 
HETATM   19  N   UNL     1       8.481  24.352  56.509  1.00  0.00    -0.325 N 
HETATM   20  H   UNL     1       9.394  24.501  56.918  1.00  0.00     0.169 HD
HETATM   21  O   UNL     1       6.282  24.923  57.052  1.00  0.00    -0.273 OA
BRANCH  19  22
HETATM   22  C   UNL     1       8.273  23.100  55.889  1.00  0.00     0.068 A 
HETATM   23  C   UNL     1       8.033  22.934  54.515  1.00  0.00     0.095 A 
HETATM   24  C   UNL     1       7.859  21.648  53.988  1.00  0.00     0.039 A 
HETATM   25  C   UNL     1       7.913  20.529  54.821  1.00  0.00     0.003 A 
HETATM   26  C   UNL     1       8.177  20.687  56.178  1.00  0.00     0.002 A 
HETATM   27  C   UNL     1       8.375  21.965  56.707  1.00  0.00     0.032 A 
BRANCH  23  28
HETATM   28  O   UNL     1       8.179  24.006  53.670  1.00  0.00    -0.349 OA
BRANCH  28  29
HETATM   29  C   UNL     1       7.090  24.184  52.759  1.00  0.00     0.171 C 
HETATM   30  C   UNL     1       5.865  24.652  53.524  1.00  0.00     0.034 C 
ENDBRANCH  28  29
ENDBRANCH  23  28
ENDBRANCH  19  22
ENDBRANCH  17  18
ENDBRANCH  16  17
ENDBRANCH  15  16
ENDBRANCH   1  15
BRANCH   2  31
HETATM   31  C   UNL     1       5.351  31.334  57.728  1.00  0.00     0.044 A 
HETATM   32  C   UNL     1       5.374  32.461  56.893  1.00  0.00     0.054 A 
HETATM   33  C   UNL     1       4.294  32.730  56.053  1.00  0.00     0.036 A 
HETATM   34 CL   UNL     1       4.332  34.116  55.035  1.00  0.00    -0.084 Cl
HETATM   35  C   UNL     1       3.178  31.897  56.043  1.00  0.00     0.024 A 
HETATM   36  C   UNL     1       3.143  30.778  56.875  1.00  0.00     0.004 A 
HETATM   37  C   UNL     1       4.224  30.497  57.714  1.00  0.00     0.030 A 
ENDBRANCH   2  31
TORSDOF 8
ENDMDL
MODEL 4
REMARK VINA RESULT:      -9.0      2.622      4.746
REMARK  8 active torsions:
REMARK  status: ('A' for Active; 'I' for Inactive)
REMARK    1  A    between atoms: C_2  and  O_3 
REMARK    2  A    between atoms: O_3  and  C_4 
REMARK    3  A    between atoms: C_5  and  N_6 
REMARK       I    between atoms: N_6  and  C_7 
REMARK    4  A    between atoms: C_7  and  C_8 
REMARK    5  A    between atoms: C_8  and  C_9 
REMARK    6  A    between atoms: C_9  and  S_10 
REMARK    7  A    between atoms: S_10  and  C_11 
REMARK    8  A    between atoms: N_12  and  C_13 
ROOT
HETATM    1  C   UNL     1       6.232  28.031  54.586  1.00  0.00     0.177 A 
HETATM    2  N   UNL     1       5.885  27.058  53.619  1.00  0.00    -0.276 N 
HETATM    3  C   UNL     1       4.788  27.356  52.729  1.00  0.00     0.124 A 
HETATM    4  N   UNL     1       4.414  26.559  51.747  1.00  0.00    -0.384 N 
HETATM    5  H   UNL     1       3.656  26.813  51.131  1.00  0.00     0.157 HD
HETATM    6  H   UNL     1       4.902  25.688  51.584  1.00  0.00     0.157 HD
HETATM    7  C   UNL     1       4.130  28.608  52.933  1.00  0.00     0.081 A 
HETATM    8  C   UNL     1       4.616  29.464  53.913  1.00  0.00     0.187 A 
HETATM    9  N   UNL     1       3.915  30.585  54.006  1.00  0.00    -0.153 NA
HETATM   10  N   UNL     1       2.967  30.438  53.061  1.00  0.00    -0.280 N 
HETATM   11  H   UNL     1       2.292  31.188  52.944  1.00  0.00     0.189 HD
HETATM   12  C   UNL     1       3.047  29.244  52.372  1.00  0.00     0.042 A 
HETATM   13  C   UNL     1       2.085  28.901  51.302  1.00  0.00     0.071 C 
HETATM   14  N   UNL     1       5.690  29.203  54.752  1.00  0.00    -0.202 NA
ENDROOT
BRANCH   1  15
HETATM   15  S   UNL     1       7.543  27.666  55.739  1.00  0.00    -0.091 SA
BRANCH  15  16
HETATM   16  C   UNL     1       8.365  29.285  55.922  1.00  0.00     0.091 C 
BRANCH  16  17
HETATM   17  C   UNL     1       9.709  29.255  56.642  1.00  0.00     0.113 C 
BRANCH  17  18
HETATM   18  C   UNL     1       9.775  30.251  57.778  1.00  0.00     0.223 C 
HETATM   19  N   UNL     1       8.849  29.994  58.773  1.00  0.00    -0.325 N 
HETATM   20  H   UNL     1       8.584  29.025  58.895  1.00  0.00     0.169 HD
HETATM   21  O   UNL     1      10.625  31.138  57.778  1.00  0.00    -0.273 OA
BRANCH  19  22
HETATM   22  C   UNL     1       8.562  30.858  59.853  1.00  0.00     0.068 A 
HETATM   23  C   UNL     1       7.690  31.956  59.770  1.00  0.00     0.095 A 
HETATM   24  C   UNL     1       7.452  32.745  60.903  1.00  0.00     0.039 A 
HETATM   25  C   UNL     1       8.084  32.454  62.112  1.00  0.00     0.003 A 
HETATM   26  C   UNL     1       8.927  31.350  62.207  1.00  0.00     0.002 A 
HETATM   27  C   UNL     1       9.151  30.545  61.087  1.00  0.00     0.032 A 
BRANCH  23  28
HETATM   28  O   UNL     1       6.920  32.123  58.645  1.00  0.00    -0.349 OA
BRANCH  28  29
HETATM   29  C   UNL     1       5.519  32.235  58.909  1.00  0.00     0.171 C 
HETATM   30  C   UNL     1       4.952  33.406  58.125  1.00  0.00     0.034 C 
ENDBRANCH  28  29
ENDBRANCH  23  28
ENDBRANCH  19  22
ENDBRANCH  17  18
ENDBRANCH  16  17
ENDBRANCH  15  16
ENDBRANCH   1  15
BRANCH   2  31
HETATM   31  C   UNL     1       6.607  25.834  53.485  1.00  0.00     0.044 A 
HETATM   32  C   UNL     1       6.566  24.860  54.494  1.00  0.00     0.054 A 
HETATM   33  C   UNL     1       7.332  23.702  54.377  1.00  0.00     0.036 A 
HETATM   34 CL   UNL     1       7.276  22.514  55.621  1.00  0.00    -0.084 Cl
HETATM   35  C   UNL     1       8.156  23.504  53.271  1.00  0.00     0.024 A 
HETATM   36  C   UNL     1       8.209  24.470  52.266  1.00  0.00     0.004 A 
HETATM   37  C   UNL     1       7.439  25.630  52.372  1.00  0.00     0.030 A 
ENDBRANCH   2  31
TORSDOF 8
ENDMDL
MODEL 5
REMARK VINA RESULT:      -8.9      2.972      8.859
REMARK  8 active torsions:
REMARK  status: ('A' for Active; 'I' for Inactive)
REMARK    1  A    between atoms: C_2  and  O_3 
REMARK    2  A    between atoms: O_3  and  C_4 
REMARK    3  A    between atoms: C_5  and  N_6 
REMARK       I    between atoms: N_6  and  C_7 
REMARK    4  A    between atoms: C_7  and  C_8 
REMARK    5  A    between atoms: C_8  and  C_9 
REMARK    6  A    between atoms: C_9  and  S_10 
REMARK    7  A    between atoms: S_10  and  C_11 
REMARK    8  A    between atoms: N_12  and  C_13 
ROOT
HETATM    1  C   UNL     1       6.156  31.883  59.185  1.00  0.00     0.177 A 
HETATM    2  N   UNL     1       7.451  31.507  59.615  1.00  0.00    -0.276 N 
HETATM    3  C   UNL     1       7.816  31.796  60.981  1.00  0.00     0.124 A 
HETATM    4  N   UNL     1       8.967  31.437  61.516  1.00  0.00    -0.384 N 
HETATM    5  H   UNL     1       9.177  31.637  62.482  1.00  0.00     0.157 HD
HETATM    6  H   UNL     1       9.648  30.930  60.965  1.00  0.00     0.157 HD
HETATM    7  C   UNL     1       6.834  32.471  61.769  1.00  0.00     0.081 A 
HETATM    8  C   UNL     1       5.596  32.744  61.201  1.00  0.00     0.187 A 
HETATM    9  N   UNL     1       4.781  33.378  62.032  1.00  0.00    -0.153 NA
HETATM   10  N   UNL     1       5.516  33.504  63.153  1.00  0.00    -0.280 N 
HETATM   11  H   UNL     1       5.093  33.973  63.948  1.00  0.00     0.189 HD
HETATM   12  C   UNL     1       6.784  32.968  63.051  1.00  0.00     0.042 A 
HETATM   13  C   UNL     1       7.740  33.020  64.179  1.00  0.00     0.071 C 
HETATM   14  N   UNL     1       5.222  32.441  59.900  1.00  0.00    -0.202 NA
ENDROOT
BRANCH   1  15
HETATM   15  S   UNL     1       5.697  31.594  57.486  1.00  0.00    -0.091 SA
BRANCH  15  16
HETATM   16  C   UNL     1       4.822  29.996  57.583  1.00  0.00     0.091 C 
BRANCH  16  17
HETATM   17  C   UNL     1       4.284  29.467  56.258  1.00  0.00     0.113 C 
BRANCH  17  18
HETATM   18  C   UNL     1       5.226  28.478  55.609  1.00  0.00     0.223 C 
HETATM   19  N   UNL     1       4.671  27.218  55.472  1.00  0.00    -0.325 N 
HETATM   20  H   UNL     1       3.666  27.183  55.366  1.00  0.00     0.169 HD
HETATM   21  O   UNL     1       6.333  28.839  55.217  1.00  0.00    -0.273 OA
BRANCH  19  22
HETATM   22  C   UNL     1       5.379  26.062  55.073  1.00  0.00     0.068 A 
HETATM   23  C   UNL     1       5.455  25.606  53.747  1.00  0.00     0.095 A 
HETATM   24  C   UNL     1       6.200  24.458  53.446  1.00  0.00     0.039 A 
HETATM   25  C   UNL     1       6.859  23.758  54.457  1.00  0.00     0.003 A 
HETATM   26  C   UNL     1       6.809  24.221  55.769  1.00  0.00     0.002 A 
HETATM   27  C   UNL     1       6.087  25.379  56.072  1.00  0.00     0.032 A 
BRANCH  23  28
HETATM   28  O   UNL     1       4.978  26.398  52.732  1.00  0.00    -0.349 OA
BRANCH  28  29
HETATM   29  C   UNL     1       5.983  27.180  52.080  1.00  0.00     0.171 C 
HETATM   30  C   UNL     1       5.427  28.558  51.772  1.00  0.00     0.034 C 
ENDBRANCH  28  29
ENDBRANCH  23  28
ENDBRANCH  19  22
ENDBRANCH  17  18
ENDBRANCH  16  17
ENDBRANCH  15  16
ENDBRANCH   1  15
BRANCH   2  31
HETATM   31  C   UNL     1       8.365  30.828  58.755  1.00  0.00     0.044 A 
HETATM   32  C   UNL     1       8.119  29.511  58.340  1.00  0.00     0.054 A 
HETATM   33  C   UNL     1       9.057  28.839  57.557  1.00  0.00     0.036 A 
HETATM   34 CL   UNL     1       8.746  27.223  57.055  1.00  0.00    -0.084 Cl
HETATM   35  C   UNL     1      10.250  29.458  57.191  1.00  0.00     0.024 A 
HETATM   36  C   UNL     1      10.507  30.764  57.605  1.00  0.00     0.004 A 
HETATM   37  C   UNL     1       9.570  31.447  58.383  1.00  0.00     0.030 A 
ENDBRANCH   2  31
TORSDOF 8
ENDMDL
MODEL 6
REMARK VINA RESULT:      -8.7      4.909      9.940
REMARK  8 active torsions:
REMARK  status: ('A' for Active; 'I' for Inactive)
REMARK    1  A    between atoms: C_2  and  O_3 
REMARK    2  A    between atoms: O_3  and  C_4 
REMARK    3  A    between atoms: C_5  and  N_6 
REMARK       I    between atoms: N_6  and  C_7 
REMARK    4  A    between atoms: C_7  and  C_8 
REMARK    5  A    between atoms: C_8  and  C_9 
REMARK    6  A    between atoms: C_9  and  S_10 
REMARK    7  A    between atoms: S_10  and  C_11 
REMARK    8  A    between atoms: N_12  and  C_13 
ROOT
HETATM    1  C   UNL     1       5.486  26.301  54.342  1.00  0.00     0.177 A 
HETATM    2  N   UNL     1       6.630  25.742  54.960  1.00  0.00    -0.276 N 
HETATM    3  C   UNL     1       7.239  26.482  56.039  1.00  0.00     0.124 A 
HETATM    4  N   UNL     1       8.267  26.035  56.735  1.00  0.00    -0.384 N 
HETATM    5  H   UNL     1       8.652  26.572  57.498  1.00  0.00     0.157 HD
HETATM    6  H   UNL     1       8.669  25.131  56.525  1.00  0.00     0.157 HD
HETATM    7  C   UNL     1       6.640  27.738  56.363  1.00  0.00     0.081 A 
HETATM    8  C   UNL     1       5.498  28.129  55.674  1.00  0.00     0.187 A 
HETATM    9  N   UNL     1       5.048  29.312  56.064  1.00  0.00    -0.153 NA
HETATM   10  N   UNL     1       5.919  29.678  57.023  1.00  0.00    -0.280 N 
HETATM   11  H   UNL     1       5.777  30.575  57.478  1.00  0.00     0.189 HD
HETATM   12  C   UNL     1       6.919  28.752  57.249  1.00  0.00     0.042 A 
HETATM   13  C   UNL     1       7.973  28.983  58.261  1.00  0.00     0.071 C 
HETATM   14  N   UNL     1       4.884  27.411  54.659  1.00  0.00    -0.202 NA
ENDROOT
BRANCH   1  15
HETATM   15  S   UNL     1       4.746  25.440  52.966  1.00  0.00    -0.091 SA
BRANCH  15  16
HETATM   16  C   UNL     1       4.915  26.650  51.611  1.00  0.00     0.091 C 
BRANCH  16  17
HETATM   17  C   UNL     1       5.098  26.050  50.221  1.00  0.00     0.113 C 
BRANCH  17  18
HETATM   18  C   UNL     1       4.419  26.869  49.147  1.00  0.00     0.223 C 
HETATM   19  N   UNL     1       3.119  27.211  49.474  1.00  0.00    -0.325 N 
HETATM   20  H   UNL     1       2.918  27.309  50.460  1.00  0.00     0.169 HD
HETATM   21  O   UNL     1       5.036  27.208  48.140  1.00  0.00    -0.273 OA
BRANCH  19  22
HETATM   22  C   UNL     1       2.193  27.809  48.589  1.00  0.00     0.068 A 
HETATM   23  C   UNL     1       2.011  29.197  48.463  1.00  0.00     0.095 A 
HETATM   24  C   UNL     1       1.082  29.697  47.542  1.00  0.00     0.039 A 
HETATM   25  C   UNL     1       0.328  28.826  46.755  1.00  0.00     0.003 A 
HETATM   26  C   UNL     1       0.524  27.451  46.856  1.00  0.00     0.002 A 
HETATM   27  C   UNL     1       1.466  26.946  47.757  1.00  0.00     0.032 A 
BRANCH  23  28
HETATM   28  O   UNL     1       2.886  30.051  49.086  1.00  0.00    -0.349 OA
BRANCH  28  29
HETATM   29  C   UNL     1       3.887  30.595  48.221  1.00  0.00     0.171 C 
HETATM   30  C   UNL     1       5.217  30.631  48.951  1.00  0.00     0.034 C 
ENDBRANCH  28  29
ENDBRANCH  23  28
ENDBRANCH  19  22
ENDBRANCH  17  18
ENDBRANCH  16  17
ENDBRANCH  15  16
ENDBRANCH   1  15
BRANCH   2  31
HETATM   31  C   UNL     1       7.155  24.473  54.572  1.00  0.00     0.044 A 
HETATM   32  C   UNL     1       7.082  23.370  55.436  1.00  0.00     0.054 A 
HETATM   33  C   UNL     1       7.662  22.157  55.069  1.00  0.00     0.036 A 
HETATM   34 CL   UNL     1       7.569  20.811  56.137  1.00  0.00    -0.084 Cl
HETATM   35  C   UNL     1       8.331  22.028  53.854  1.00  0.00     0.024 A 
HETATM   36  C   UNL     1       8.415  23.121  52.991  1.00  0.00     0.004 A 
HETATM   37  C   UNL     1       7.830  24.338  53.348  1.00  0.00     0.030 A 
ENDBRANCH   2  31
TORSDOF 8
ENDMDL
MODEL 7
REMARK VINA RESULT:      -8.7      4.486      8.576
REMARK  8 active torsions:
REMARK  status: ('A' for Active; 'I' for Inactive)
REMARK    1  A    between atoms: C_2  and  O_3 
REMARK    2  A    between atoms: O_3  and  C_4 
REMARK    3  A    between atoms: C_5  and  N_6 
REMARK       I    between atoms: N_6  and  C_7 
REMARK    4  A    between atoms: C_7  and  C_8 
REMARK    5  A    between atoms: C_8  and  C_9 
REMARK    6  A    between atoms: C_9  and  S_10 
REMARK    7  A    between atoms: S_10  and  C_11 
REMARK    8  A    between atoms: N_12  and  C_13 
ROOT
HETATM    1  C   UNL     1       7.137  25.124  53.755  1.00  0.00     0.177 A 
HETATM    2  N   UNL     1       7.188  25.155  55.169  1.00  0.00    -0.276 N 
HETATM    3  C   UNL     1       7.478  23.921  55.859  1.00  0.00     0.124 A 
HETATM    4  N   UNL     1       7.618  23.836  57.167  1.00  0.00    -0.384 N 
HETATM    5  H   UNL     1       7.844  22.959  57.612  1.00  0.00     0.157 HD
HETATM    6  H   UNL     1       7.524  24.662  57.744  1.00  0.00     0.157 HD
HETATM    7  C   UNL     1       7.656  22.764  55.038  1.00  0.00     0.081 A 
HETATM    8  C   UNL     1       7.601  22.912  53.658  1.00  0.00     0.187 A 
HETATM    9  N   UNL     1       7.774  21.766  53.015  1.00  0.00    -0.153 NA
HETATM   10  N   UNL     1       7.948  20.875  54.008  1.00  0.00    -0.280 N 
HETATM   11  H   UNL     1       8.098  19.903  53.753  1.00  0.00     0.189 HD
HETATM   12  C   UNL     1       7.885  21.428  55.272  1.00  0.00     0.042 A 
HETATM   13  C   UNL     1       8.044  20.601  56.488  1.00  0.00     0.071 C 
HETATM   14  N   UNL     1       7.356  24.099  52.983  1.00  0.00    -0.202 NA
ENDROOT
BRANCH   1  15
HETATM   15  S   UNL     1       6.721  26.620  52.878  1.00  0.00    -0.091 SA
BRANCH  15  16
HETATM   16  C   UNL     1       4.904  26.506  52.748  1.00  0.00     0.091 C 
BRANCH  16  17
HETATM   17  C   UNL     1       4.141  27.756  53.170  1.00  0.00     0.113 C 
BRANCH  17  18
HETATM   18  C   UNL     1       3.537  28.487  51.992  1.00  0.00     0.223 C 
HETATM   19  N   UNL     1       3.781  27.855  50.786  1.00  0.00    -0.325 N 
HETATM   20  H   UNL     1       3.890  26.850  50.823  1.00  0.00     0.169 HD
HETATM   21  O   UNL     1       2.864  29.499  52.167  1.00  0.00    -0.273 OA
BRANCH  19  22
HETATM   22  C   UNL     1       3.499  28.403  49.515  1.00  0.00     0.068 A 
HETATM   23  C   UNL     1       4.297  29.370  48.881  1.00  0.00     0.095 A 
HETATM   24  C   UNL     1       3.946  29.839  47.608  1.00  0.00     0.039 A 
HETATM   25  C   UNL     1       2.801  29.360  46.970  1.00  0.00     0.003 A 
HETATM   26  C   UNL     1       2.022  28.383  47.582  1.00  0.00     0.002 A 
HETATM   27  C   UNL     1       2.380  27.893  48.841  1.00  0.00     0.032 A 
BRANCH  23  28
HETATM   28  O   UNL     1       5.520  29.691  49.416  1.00  0.00    -0.349 OA
BRANCH  28  29
HETATM   29  C   UNL     1       5.534  30.922  50.143  1.00  0.00     0.171 C 
HETATM   30  C   UNL     1       6.295  31.967  49.346  1.00  0.00     0.034 C 
ENDBRANCH  28  29
ENDBRANCH  23  28
ENDBRANCH  19  22
ENDBRANCH  17  18
ENDBRANCH  16  17
ENDBRANCH  15  16
ENDBRANCH   1  15
BRANCH   2  31
HETATM   31  C   UNL     1       7.004  26.363  55.906  1.00  0.00     0.044 A 
HETATM   32  C   UNL     1       8.100  27.165  56.259  1.00  0.00     0.054 A 
HETATM   33  C   UNL     1       7.908  28.305  57.039  1.00  0.00     0.036 A 
HETATM   34 CL   UNL     1       9.259  29.281  57.467  1.00  0.00    -0.084 Cl
HETATM   35  C   UNL     1       6.636  28.652  57.488  1.00  0.00     0.024 A 
HETATM   36  C   UNL     1       5.541  27.858  57.148  1.00  0.00     0.004 A 
HETATM   37  C   UNL     1       5.723  26.718  56.361  1.00  0.00     0.030 A 
ENDBRANCH   2  31
TORSDOF 8
ENDMDL
MODEL 8
REMARK VINA RESULT:      -8.5      4.392      8.920
REMARK  8 active torsions:
REMARK  status: ('A' for Active; 'I' for Inactive)
REMARK    1  A    between atoms: C_2  and  O_3 
REMARK    2  A    between atoms: O_3  and  C_4 
REMARK    3  A    between atoms: C_5  and  N_6 
REMARK       I    between atoms: N_6  and  C_7 
REMARK    4  A    between atoms: C_7  and  C_8 
REMARK    5  A    between atoms: C_8  and  C_9 
REMARK    6  A    between atoms: C_9  and  S_10 
REMARK    7  A    between atoms: S_10  and  C_11 
REMARK    8  A    between atoms: N_12  and  C_13 
ROOT
HETATM    1  C   UNL     1       7.450  25.246  53.919  1.00  0.00     0.177 A 
HETATM    2  N   UNL     1       7.470  25.166  55.332  1.00  0.00    -0.276 N 
HETATM    3  C   UNL     1       7.640  23.863  55.929  1.00  0.00     0.124 A 
HETATM    4  N   UNL     1       7.741  23.669  57.230  1.00  0.00    -0.384 N 
HETATM    5  H   UNL     1       7.882  22.744  57.609  1.00  0.00     0.157 HD
HETATM    6  H   UNL     1       7.702  24.454  57.867  1.00  0.00     0.157 HD
HETATM    7  C   UNL     1       7.741  22.761  55.026  1.00  0.00     0.081 A 
HETATM    8  C   UNL     1       7.731  23.016  53.660  1.00  0.00     0.187 A 
HETATM    9  N   UNL     1       7.824  21.912  52.934  1.00  0.00    -0.153 NA
HETATM   10  N   UNL     1       7.899  20.936  53.859  1.00  0.00    -0.280 N 
HETATM   11  H   UNL     1       7.974  19.977  53.532  1.00  0.00     0.189 HD
HETATM   12  C   UNL     1       7.852  21.396  55.160  1.00  0.00     0.042 A 
HETATM   13  C   UNL     1       7.913  20.470  56.311  1.00  0.00     0.071 C 
HETATM   14  N   UNL     1       7.602  24.267  53.075  1.00  0.00    -0.202 NA
ENDROOT
BRANCH   1  15
HETATM   15  S   UNL     1       7.182  26.833  53.153  1.00  0.00    -0.091 SA
BRANCH  15  16
HETATM   16  C   UNL     1       5.547  26.619  52.370  1.00  0.00     0.091 C 
BRANCH  16  17
HETATM   17  C   UNL     1       4.461  27.569  52.861  1.00  0.00     0.113 C 
BRANCH  17  18
HETATM   18  C   UNL     1       3.859  28.384  51.738  1.00  0.00     0.223 C 
HETATM   19  N   UNL     1       4.328  28.009  50.492  1.00  0.00    -0.325 N 
HETATM   20  H   UNL     1       4.605  27.042  50.392  1.00  0.00     0.169 HD
HETATM   21  O   UNL     1       3.006  29.236  51.976  1.00  0.00    -0.273 OA
BRANCH  19  22
HETATM   22  C   UNL     1       4.082  28.712  49.291  1.00  0.00     0.068 A 
HETATM   23  C   UNL     1       3.099  28.349  48.356  1.00  0.00     0.095 A 
HETATM   24  C   UNL     1       2.916  29.122  47.202  1.00  0.00     0.039 A 
HETATM   25  C   UNL     1       3.712  30.244  46.969  1.00  0.00     0.003 A 
HETATM   26  C   UNL     1       4.669  30.623  47.905  1.00  0.00     0.002 A 
HETATM   27  C   UNL     1       4.841  29.871  49.070  1.00  0.00     0.032 A 
BRANCH  23  28
HETATM   28  O   UNL     1       2.189  27.373  48.677  1.00  0.00    -0.349 OA
BRANCH  28  29
HETATM   29  C   UNL     1       2.041  26.361  47.677  1.00  0.00     0.171 C 
HETATM   30  C   UNL     1       3.141  25.328  47.839  1.00  0.00     0.034 C 
ENDBRANCH  28  29
ENDBRANCH  23  28
ENDBRANCH  19  22
ENDBRANCH  17  18
ENDBRANCH  16  17
ENDBRANCH  15  16
ENDBRANCH   1  15
BRANCH   2  31
HETATM   31  C   UNL     1       7.369  26.327  56.156  1.00  0.00     0.044 A 
HETATM   32  C   UNL     1       6.149  27.004  56.299  1.00  0.00     0.054 A 
HETATM   33  C   UNL     1       6.084  28.175  57.052  1.00  0.00     0.036 A 
HETATM   34 CL   UNL     1       4.582  28.999  57.218  1.00  0.00    -0.084 Cl
HETATM   35  C   UNL     1       7.227  28.695  57.657  1.00  0.00     0.024 A 
HETATM   36  C   UNL     1       8.446  28.033  57.515  1.00  0.00     0.004 A 
HETATM   37  C   UNL     1       8.518  26.855  56.768  1.00  0.00     0.030 A 
ENDBRANCH   2  31
TORSDOF 8
ENDMDL
MODEL 9
REMARK VINA RESULT:      -8.4      2.638      4.728
REMARK  8 active torsions:
REMARK  status: ('A' for Active; 'I' for Inactive)
REMARK    1  A    between atoms: C_2  and  O_3 
REMARK    2  A    between atoms: O_3  and  C_4 
REMARK    3  A    between atoms: C_5  and  N_6 
REMARK       I    between atoms: N_6  and  C_7 
REMARK    4  A    between atoms: C_7  and  C_8 
REMARK    5  A    between atoms: C_8  and  C_9 
REMARK    6  A    between atoms: C_9  and  S_10 
REMARK    7  A    between atoms: S_10  and  C_11 
REMARK    8  A    between atoms: N_12  and  C_13 
ROOT
HETATM    1  C   UNL     1       5.286  29.949  55.808  1.00  0.00     0.177 A 
HETATM    2  N   UNL     1       6.405  29.121  56.064  1.00  0.00    -0.276 N 
HETATM    3  C   UNL     1       6.492  27.870  55.350  1.00  0.00     0.124 A 
HETATM    4  N   UNL     1       7.517  27.046  55.453  1.00  0.00    -0.384 N 
HETATM    5  H   UNL     1       7.553  26.190  54.919  1.00  0.00     0.157 HD
HETATM    6  H   UNL     1       8.297  27.276  56.054  1.00  0.00     0.157 HD
HETATM    7  C   UNL     1       5.411  27.568  54.466  1.00  0.00     0.081 A 
HETATM    8  C   UNL     1       4.398  28.507  54.308  1.00  0.00     0.187 A 
HETATM    9  N   UNL     1       3.455  28.104  53.470  1.00  0.00    -0.153 NA
HETATM   10  N   UNL     1       3.881  26.887  53.084  1.00  0.00    -0.280 N 
HETATM   11  H   UNL     1       3.305  26.368  52.427  1.00  0.00     0.189 HD
HETATM   12  C   UNL     1       5.074  26.504  53.663  1.00  0.00     0.042 A 
HETATM   13  C   UNL     1       5.695  25.194  53.365  1.00  0.00     0.071 C 
HETATM   14  N   UNL     1       4.321  29.727  54.964  1.00  0.00    -0.202 NA
ENDROOT
BRANCH   1  15
HETATM   15  S   UNL     1       5.120  31.472  56.720  1.00  0.00    -0.091 SA
BRANCH  15  16
HETATM   16  C   UNL     1       4.073  30.974  58.129  1.00  0.00     0.091 C 
BRANCH  16  17
HETATM   17  C   UNL     1       3.658  32.105  59.064  1.00  0.00     0.113 C 
BRANCH  17  18
HETATM   18  C   UNL     1       4.812  32.616  59.895  1.00  0.00     0.223 C 
HETATM   19  N   UNL     1       4.984  31.907  61.071  1.00  0.00    -0.325 N 
HETATM   20  H   UNL     1       4.697  30.937  61.052  1.00  0.00     0.169 HD
HETATM   21  O   UNL     1       5.518  33.534  59.482  1.00  0.00    -0.273 OA
BRANCH  19  22
HETATM   22  C   UNL     1       5.858  32.276  62.117  1.00  0.00     0.068 A 
HETATM   23  C   UNL     1       5.437  32.862  63.323  1.00  0.00     0.095 A 
HETATM   24  C   UNL     1       6.378  33.175  64.312  1.00  0.00     0.039 A 
HETATM   25  C   UNL     1       7.734  32.918  64.104  1.00  0.00     0.003 A 
HETATM   26  C   UNL     1       8.153  32.313  62.923  1.00  0.00     0.002 A 
HETATM   27  C   UNL     1       7.217  31.976  61.942  1.00  0.00     0.032 A 
BRANCH  23  28
HETATM   28  O   UNL     1       4.096  32.930  63.607  1.00  0.00    -0.349 OA
BRANCH  28  29
HETATM   29  C   UNL     1       3.534  34.238  63.466  1.00  0.00     0.171 C 
HETATM   30  C   UNL     1       2.390  34.189  62.470  1.00  0.00     0.034 C 
ENDBRANCH  28  29
ENDBRANCH  23  28
ENDBRANCH  19  22
ENDBRANCH  17  18
ENDBRANCH  16  17
ENDBRANCH  15  16
ENDBRANCH   1  15
BRANCH   2  31
HETATM   31  C   UNL     1       7.444  29.510  56.962  1.00  0.00     0.044 A 
HETATM   32  C   UNL     1       8.786  29.507  56.554  1.00  0.00     0.054 A 
HETATM   33  C   UNL     1       9.793  29.822  57.465  1.00  0.00     0.036 A 
HETATM   34 CL   UNL     1      11.437  29.815  56.954  1.00  0.00    -0.084 Cl
HETATM   35  C   UNL     1       9.484  30.127  58.788  1.00  0.00     0.024 A 
HETATM   36  C   UNL     1       8.153  30.125  59.206  1.00  0.00     0.004 A 
HETATM   37  C   UNL     1       7.137  29.817  58.298  1.00  0.00     0.030 A 
ENDBRANCH   2  31
TORSDOF 8
ENDMDL
MODEL 10
REMARK VINA RESULT:      -8.4      6.165      9.754
REMARK  8 active torsions:
REMARK  status: ('A' for Active; 'I' for Inactive)
REMARK    1  A    between atoms: C_2  and  O_3 
REMARK    2  A    between atoms: O_3  and  C_4 
REMARK    3  A    between atoms: C_5  and  N_6 
REMARK       I    between atoms: N_6  and  C_7 
REMARK    4  A    between atoms: C_7  and  C_8 
REMARK    5  A    between atoms: C_8  and  C_9 
REMARK    6  A    between atoms: C_9  and  S_10 
REMARK    7  A    between atoms: S_10  and  C_11 
REMARK    8  A    between atoms: N_12  and  C_13 
ROOT
HETATM    1  C   UNL     1       4.176  27.952  49.864  1.00  0.00     0.177 A 
HETATM    2  N   UNL     1       3.455  29.167  49.791  1.00  0.00    -0.276 N 
HETATM    3  C   UNL     1       2.379  29.254  48.833  1.00  0.00     0.124 A 
HETATM    4  N   UNL     1       1.594  30.308  48.717  1.00  0.00    -0.384 N 
HETATM    5  H   UNL     1       0.837  30.323  48.050  1.00  0.00     0.157 HD
HETATM    6  H   UNL     1       1.728  31.111  49.318  1.00  0.00     0.157 HD
HETATM    7  C   UNL     1       2.163  28.101  48.017  1.00  0.00     0.081 A 
HETATM    8  C   UNL     1       2.945  26.974  48.237  1.00  0.00     0.187 A 
HETATM    9  N   UNL     1       2.650  25.980  47.412  1.00  0.00    -0.153 NA
HETATM   10  N   UNL     1       1.657  26.485  46.657  1.00  0.00    -0.280 N 
HETATM   11  H   UNL     1       1.260  25.892  45.934  1.00  0.00     0.189 HD
HETATM   12  C   UNL     1       1.315  27.784  46.981  1.00  0.00     0.042 A 
HETATM   13  C   UNL     1       0.251  28.509  46.255  1.00  0.00     0.071 C 
HETATM   14  N   UNL     1       3.959  26.867  49.177  1.00  0.00    -0.202 NA
ENDROOT
BRANCH   1  15
HETATM   15  S   UNL     1       5.550  27.834  50.995  1.00  0.00    -0.091 SA
BRANCH  15  16
HETATM   16  C   UNL     1       5.584  26.052  51.385  1.00  0.00     0.091 C 
BRANCH  16  17
HETATM   17  C   UNL     1       6.962  25.482  51.704  1.00  0.00     0.113 C 
BRANCH  17  18
HETATM   18  C   UNL     1       6.911  24.424  52.783  1.00  0.00     0.223 C 
HETATM   19  N   UNL     1       8.119  23.769  52.951  1.00  0.00    -0.325 N 
HETATM   20  H   UNL     1       8.949  24.303  52.732  1.00  0.00     0.169 HD
HETATM   21  O   UNL     1       5.888  24.257  53.442  1.00  0.00    -0.273 OA
BRANCH  19  22
HETATM   22  C   UNL     1       8.311  22.621  53.751  1.00  0.00     0.068 A 
HETATM   23  C   UNL     1       8.765  22.657  55.080  1.00  0.00     0.095 A 
HETATM   24  C   UNL     1       8.905  21.463  55.801  1.00  0.00     0.039 A 
HETATM   25  C   UNL     1       8.606  20.238  55.204  1.00  0.00     0.003 A 
HETATM   26  C   UNL     1       8.130  20.200  53.897  1.00  0.00     0.002 A 
HETATM   27  C   UNL     1       7.965  21.388  53.180  1.00  0.00     0.032 A 
BRANCH  23  28
HETATM   28  O   UNL     1       8.867  23.863  55.726  1.00  0.00    -0.349 OA
BRANCH  28  29
HETATM   29  C   UNL     1       8.174  23.916  56.977  1.00  0.00     0.171 C 
HETATM   30  C   UNL     1       6.899  24.724  56.811  1.00  0.00     0.034 C 
ENDBRANCH  28  29
ENDBRANCH  23  28
ENDBRANCH  19  22
ENDBRANCH  17  18
ENDBRANCH  16  17
ENDBRANCH  15  16
ENDBRANCH   1  15
BRANCH   2  31
HETATM   31  C   UNL     1       3.739  30.268  50.655  1.00  0.00     0.044 A 
HETATM   32  C   UNL     1       3.174  30.340  51.937  1.00  0.00     0.054 A 
HETATM   33  C   UNL     1       3.407  31.456  52.740  1.00  0.00     0.036 A 
HETATM   34 CL   UNL     1       2.708  31.536  54.310  1.00  0.00    -0.084 Cl
HETATM   35  C   UNL     1       4.186  32.514  52.276  1.00  0.00     0.024 A 
HETATM   36  C   UNL     1       4.746  32.454  51.001  1.00  0.00     0.004 A 
HETATM   37  C   UNL     1       4.524  31.337  50.193  1.00  0.00     0.030 A 
ENDBRANCH   2  31
TORSDOF 8
ENDMDL
