MODEL 1
REMARK VINA RESULT:      -8.6      0.000      0.000
REMARK  4 active torsions:
REMARK  status: ('A' for Active; 'I' for Inactive)
REMARK    1  A    between atoms: C_3  and  N_4 
REMARK       I    between atoms: N_4  and  C_5 
REMARK    2  A    between atoms: C_5  and  C_6 
REMARK    3  A    between atoms: C_7  and  C_8 
REMARK    4  A    between atoms: C_15  and  C_16 
ROOT
HETATM    1  C   UNL     1       7.219  24.838  52.262  1.00  0.00     0.003 A 
HETATM    2  C   UNL     1       7.249  25.831  53.244  1.00  0.00     0.029 A 
HETATM    3  C   UNL     1       7.654  25.526  54.543  1.00  0.00     0.035 A 
HETATM    4  C   UNL     1       8.028  24.206  54.845  1.00  0.00     0.042 A 
HETATM    5  C   UNL     1       8.006  23.200  53.866  1.00  0.00    -0.021 A 
HETATM    6  C   UNL     1       7.596  23.531  52.570  1.00  0.00     0.012 A 
ENDROOT
BRANCH   3   7
HETATM    7  N   UNL     1       7.719  26.470  55.591  1.00  0.00    -0.324 N 
HETATM    8  C   UNL     1       6.779  26.692  56.578  1.00  0.00     0.245 C 
HETATM    9  O   UNL     1       5.714  26.109  56.733  1.00  0.00    -0.268 OA
HETATM   10  H   UNL     1       8.547  27.050  55.604  1.00  0.00     0.169 HD
BRANCH   8  11
HETATM   11  C   UNL     1       7.194  27.782  57.502  1.00  0.00     0.077 C 
HETATM   12  C   UNL     1       8.311  28.478  57.246  1.00  0.00     0.042 C 
BRANCH  12  13
HETATM   13  C   UNL     1       8.736  29.519  58.115  1.00  0.00     0.075 A 
HETATM   14  O   UNL     1       8.267  29.696  59.399  1.00  0.00    -0.323 OA
HETATM   15  C   UNL     1       8.883  30.776  59.936  1.00  0.00     0.142 A 
HETATM   16  C   UNL     1       9.757  31.326  59.034  1.00  0.00     0.027 A 
HETATM   17  C   UNL     1       9.664  30.525  57.871  1.00  0.00     0.039 A 
ENDBRANCH  12  13
ENDBRANCH   8  11
ENDBRANCH   3   7
BRANCH   5  18
HETATM   18  C   UNL     1       8.399  21.842  54.206  1.00  0.00     0.010 A 
HETATM   19  C   UNL     1       8.514  20.683  53.403  1.00  0.00     0.152 A 
HETATM   20  N   UNL     1       8.889  19.605  54.098  1.00  0.00    -0.187 NA
HETATM   21  N   UNL     1       9.017  20.069  55.350  1.00  0.00    -0.289 N 
HETATM   22  H   UNL     1       9.298  19.421  56.079  1.00  0.00     0.188 HD
HETATM   23  C   UNL     1       8.733  21.400  55.469  1.00  0.00     0.123 A 
ENDBRANCH   5  18
TORSDOF 4
ENDMDL
MODEL 2
REMARK VINA RESULT:      -8.3      3.898      7.072
REMARK  4 active torsions:
REMARK  status: ('A' for Active; 'I' for Inactive)
REMARK    1  A    between atoms: C_3  and  N_4 
REMARK       I    between atoms: N_4  and  C_5 
REMARK    2  A    between atoms: C_5  and  C_6 
REMARK    3  A    between atoms: C_7  and  C_8 
REMARK    4  A    between atoms: C_15  and  C_16 
ROOT
HETATM    1  C   UNL     1       6.799  24.766  56.200  1.00  0.00     0.003 A 
HETATM    2  C   UNL     1       6.185  25.440  55.141  1.00  0.00     0.029 A 
HETATM    3  C   UNL     1       6.168  24.880  53.864  1.00  0.00     0.035 A 
HETATM    4  C   UNL     1       6.779  23.630  53.663  1.00  0.00     0.042 A 
HETATM    5  C   UNL     1       7.395  22.941  54.719  1.00  0.00    -0.021 A 
HETATM    6  C   UNL     1       7.399  23.525  55.991  1.00  0.00     0.012 A 
ENDROOT
BRANCH   3   7
HETATM    7  N   UNL     1       5.565  25.490  52.742  1.00  0.00    -0.324 N 
HETATM    8  C   UNL     1       5.747  26.783  52.294  1.00  0.00     0.245 C 
HETATM    9  O   UNL     1       6.469  27.643  52.781  1.00  0.00    -0.268 OA
HETATM   10  H   UNL     1       4.921  24.908  52.224  1.00  0.00     0.169 HD
BRANCH   8  11
HETATM   11  C   UNL     1       4.928  27.069  51.084  1.00  0.00     0.077 C 
HETATM   12  C   UNL     1       4.842  26.151  50.111  1.00  0.00     0.042 C 
BRANCH  12  13
HETATM   13  C   UNL     1       4.074  26.400  48.941  1.00  0.00     0.075 A 
HETATM   14  O   UNL     1       3.986  27.626  48.318  1.00  0.00    -0.323 OA
HETATM   15  C   UNL     1       3.176  27.502  47.239  1.00  0.00     0.142 A 
HETATM   16  C   UNL     1       2.720  26.215  47.129  1.00  0.00     0.027 A 
HETATM   17  C   UNL     1       3.291  25.510  48.215  1.00  0.00     0.039 A 
ENDBRANCH  12  13
ENDBRANCH   8  11
ENDBRANCH   3   7
BRANCH   5  18
HETATM   18  C   UNL     1       8.020  21.650  54.483  1.00  0.00     0.010 A 
HETATM   19  C   UNL     1       8.220  20.924  53.285  1.00  0.00     0.152 A 
HETATM   20  N   UNL     1       8.823  19.749  53.486  1.00  0.00    -0.187 NA
HETATM   21  N   UNL     1       9.014  19.718  54.813  1.00  0.00    -0.289 N 
HETATM   22  H   UNL     1       9.466  18.902  55.216  1.00  0.00     0.188 HD
HETATM   23  C   UNL     1       8.550  20.829  55.455  1.00  0.00     0.123 A 
ENDBRANCH   5  18
TORSDOF 4
ENDMDL
MODEL 3
REMARK VINA RESULT:      -8.3      1.247      1.494
REMARK  4 active torsions:
REMARK  status: ('A' for Active; 'I' for Inactive)
REMARK    1  A    between atoms: C_3  and  N_4 
REMARK       I    between atoms: N_4  and  C_5 
REMARK    2  A    between atoms: C_5  and  C_6 
REMARK    3  A    between atoms: C_7  and  C_8 
REMARK    4  A    between atoms: C_15  and  C_16 
ROOT
HETATM    1  C   UNL     1       6.772  24.556  52.586  1.00  0.00     0.003 A 
HETATM    2  C   UNL     1       6.841  25.692  53.397  1.00  0.00     0.029 A 
HETATM    3  C   UNL     1       7.372  25.609  54.683  1.00  0.00     0.035 A 
HETATM    4  C   UNL     1       7.834  24.366  55.148  1.00  0.00     0.042 A 
HETATM    5  C   UNL     1       7.774  23.218  54.342  1.00  0.00    -0.021 A 
HETATM    6  C   UNL     1       7.236  23.327  53.055  1.00  0.00     0.012 A 
ENDROOT
BRANCH   3   7
HETATM    7  N   UNL     1       7.484  26.707  55.563  1.00  0.00    -0.324 N 
HETATM    8  C   UNL     1       7.917  27.983  55.260  1.00  0.00     0.245 C 
HETATM    9  O   UNL     1       8.280  28.403  54.170  1.00  0.00    -0.268 OA
HETATM   10  H   UNL     1       7.226  26.523  56.523  1.00  0.00     0.169 HD
BRANCH   8  11
HETATM   11  C   UNL     1       7.910  28.868  56.457  1.00  0.00     0.077 C 
HETATM   12  C   UNL     1       9.069  29.182  57.054  1.00  0.00     0.042 C 
BRANCH  12  13
HETATM   13  C   UNL     1       9.092  30.019  58.203  1.00  0.00     0.075 A 
HETATM   14  O   UNL     1       8.422  29.743  59.376  1.00  0.00    -0.323 OA
HETATM   15  C   UNL     1       8.665  30.746  60.254  1.00  0.00     0.142 A 
HETATM   16  C   UNL     1       9.485  31.688  59.690  1.00  0.00     0.027 A 
HETATM   17  C   UNL     1       9.758  31.226  58.380  1.00  0.00     0.039 A 
ENDBRANCH  12  13
ENDBRANCH   8  11
ENDBRANCH   3   7
BRANCH   5  18
HETATM   18  C   UNL     1       8.259  21.944  54.848  1.00  0.00     0.010 A 
HETATM   19  C   UNL     1       8.562  21.526  56.165  1.00  0.00     0.152 A 
HETATM   20  N   UNL     1       9.008  20.268  56.220  1.00  0.00    -0.187 NA
HETATM   21  N   UNL     1       8.991  19.873  54.939  1.00  0.00    -0.289 N 
HETATM   22  H   UNL     1       9.296  18.930  54.720  1.00  0.00     0.188 HD
HETATM   23  C   UNL     1       8.553  20.838  54.078  1.00  0.00     0.123 A 
ENDBRANCH   5  18
TORSDOF 4
ENDMDL
MODEL 4
REMARK VINA RESULT:      -8.2      2.790      8.402
REMARK  4 active torsions:
REMARK  status: ('A' for Active; 'I' for Inactive)
REMARK    1  A    between atoms: C_3  and  N_4 
REMARK       I    between atoms: N_4  and  C_5 
REMARK    2  A    between atoms: C_5  and  C_6 
REMARK    3  A    between atoms: C_7  and  C_8 
REMARK    4  A    between atoms: C_15  and  C_16 
ROOT
HETATM    1  C   UNL     1       5.385  28.694  57.318  1.00  0.00     0.003 A 
HETATM    2  C   UNL     1       5.779  27.436  56.853  1.00  0.00     0.029 A 
HETATM    3  C   UNL     1       7.131  27.113  56.755  1.00  0.00     0.035 A 
HETATM    4  C   UNL     1       8.087  28.072  57.129  1.00  0.00     0.042 A 
HETATM    5  C   UNL     1       7.705  29.338  57.602  1.00  0.00    -0.021 A 
HETATM    6  C   UNL     1       6.341  29.638  57.691  1.00  0.00     0.012 A 
ENDROOT
BRANCH   3   7
HETATM    7  N   UNL     1       7.614  25.865  56.302  1.00  0.00    -0.324 N 
HETATM    8  C   UNL     1       8.307  24.920  57.032  1.00  0.00     0.245 C 
HETATM    9  O   UNL     1       8.629  24.983  58.211  1.00  0.00    -0.268 OA
HETATM   10  H   UNL     1       7.435  25.658  55.329  1.00  0.00     0.169 HD
BRANCH   8  11
HETATM   11  C   UNL     1       8.661  23.734  56.206  1.00  0.00     0.077 C 
HETATM   12  C   UNL     1       7.734  23.181  55.411  1.00  0.00     0.042 C 
BRANCH  12  13
HETATM   13  C   UNL     1       8.043  22.043  54.616  1.00  0.00     0.075 A 
HETATM   14  O   UNL     1       8.583  20.875  55.112  1.00  0.00    -0.323 OA
HETATM   15  C   UNL     1       8.744  20.007  54.084  1.00  0.00     0.142 A 
HETATM   16  C   UNL     1       8.321  20.573  52.909  1.00  0.00     0.027 A 
HETATM   17  C   UNL     1       7.874  21.873  53.247  1.00  0.00     0.039 A 
ENDBRANCH  12  13
ENDBRANCH   8  11
ENDBRANCH   3   7
BRANCH   5  18
HETATM   18  C   UNL     1       8.715  30.312  57.982  1.00  0.00     0.010 A 
HETATM   19  C   UNL     1       8.642  31.435  58.838  1.00  0.00     0.152 A 
HETATM   20  N   UNL     1       9.797  32.104  58.916  1.00  0.00    -0.187 NA
HETATM   21  N   UNL     1      10.615  31.410  58.111  1.00  0.00    -0.289 N 
HETATM   22  H   UNL     1      11.572  31.732  58.003  1.00  0.00     0.188 HD
HETATM   23  C   UNL     1      10.017  30.331  57.527  1.00  0.00     0.123 A 
ENDBRANCH   5  18
TORSDOF 4
ENDMDL
MODEL 5
REMARK VINA RESULT:      -8.2      3.953      7.036
REMARK  4 active torsions:
REMARK  status: ('A' for Active; 'I' for Inactive)
REMARK    1  A    between atoms: C_3  and  N_4 
REMARK       I    between atoms: N_4  and  C_5 
REMARK    2  A    between atoms: C_5  and  C_6 
REMARK    3  A    between atoms: C_7  and  C_8 
REMARK    4  A    between atoms: C_15  and  C_16 
ROOT
HETATM    1  C   UNL     1      10.430  30.432  57.416  1.00  0.00     0.003 A 
HETATM    2  C   UNL     1       9.822  30.992  58.543  1.00  0.00     0.029 A 
HETATM    3  C   UNL     1       8.671  30.418  59.082  1.00  0.00     0.035 A 
HETATM    4  C   UNL     1       8.135  29.271  58.472  1.00  0.00     0.042 A 
HETATM    5  C   UNL     1       8.738  28.697  57.342  1.00  0.00    -0.021 A 
HETATM    6  C   UNL     1       9.892  29.292  56.820  1.00  0.00     0.012 A 
ENDROOT
BRANCH   3   7
HETATM    7  N   UNL     1       7.999  30.916  60.220  1.00  0.00    -0.324 N 
HETATM    8  C   UNL     1       8.433  30.882  61.530  1.00  0.00     0.245 C 
HETATM    9  O   UNL     1       9.484  30.418  61.952  1.00  0.00    -0.268 OA
HETATM   10  H   UNL     1       7.095  31.332  60.043  1.00  0.00     0.169 HD
BRANCH   8  11
HETATM   11  C   UNL     1       7.442  31.495  62.456  1.00  0.00     0.077 C 
HETATM   12  C   UNL     1       7.851  32.398  63.358  1.00  0.00     0.042 C 
BRANCH  12  13
HETATM   13  C   UNL     1       6.928  32.994  64.261  1.00  0.00     0.075 A 
HETATM   14  O   UNL     1       5.558  32.873  64.161  1.00  0.00    -0.323 OA
HETATM   15  C   UNL     1       4.991  33.562  65.180  1.00  0.00     0.142 A 
HETATM   16  C   UNL     1       5.957  34.143  65.961  1.00  0.00     0.027 A 
HETATM   17  C   UNL     1       7.194  33.782  65.375  1.00  0.00     0.039 A 
ENDBRANCH  12  13
ENDBRANCH   8  11
ENDBRANCH   3   7
BRANCH   5  18
HETATM   18  C   UNL     1       8.162  27.510  56.730  1.00  0.00     0.010 A 
HETATM   19  C   UNL     1       8.122  26.167  57.173  1.00  0.00     0.152 A 
HETATM   20  N   UNL     1       7.510  25.354  56.308  1.00  0.00    -0.187 NA
HETATM   21  N   UNL     1       7.155  26.172  55.307  1.00  0.00    -0.289 N 
HETATM   22  H   UNL     1       6.665  25.776  54.510  1.00  0.00     0.188 HD
HETATM   23  C   UNL     1       7.523  27.471  55.509  1.00  0.00     0.123 A 
ENDBRANCH   5  18
TORSDOF 4
ENDMDL
MODEL 6
REMARK VINA RESULT:      -7.9      5.482     11.224
REMARK  4 active torsions:
REMARK  status: ('A' for Active; 'I' for Inactive)
REMARK    1  A    between atoms: C_3  and  N_4 
REMARK       I    between atoms: N_4  and  C_5 
REMARK    2  A    between atoms: C_5  and  C_6 
REMARK    3  A    between atoms: C_7  and  C_8 
REMARK    4  A    between atoms: C_15  and  C_16 
ROOT
HETATM    1  C   UNL     1       7.964  32.990  64.037  1.00  0.00     0.003 A 
HETATM    2  C   UNL     1       8.351  32.206  62.947  1.00  0.00     0.029 A 
HETATM    3  C   UNL     1       7.414  31.818  61.990  1.00  0.00     0.035 A 
HETATM    4  C   UNL     1       6.079  32.228  62.141  1.00  0.00     0.042 A 
HETATM    5  C   UNL     1       5.678  33.020  63.229  1.00  0.00    -0.021 A 
HETATM    6  C   UNL     1       6.636  33.396  64.176  1.00  0.00     0.012 A 
ENDROOT
BRANCH   3   7
HETATM    7  N   UNL     1       7.723  31.032  60.857  1.00  0.00    -0.324 N 
HETATM    8  C   UNL     1       8.426  31.421  59.735  1.00  0.00     0.245 C 
HETATM    9  O   UNL     1       8.920  32.518  59.512  1.00  0.00    -0.268 OA
HETATM   10  H   UNL     1       7.373  30.084  60.878  1.00  0.00     0.169 HD
BRANCH   8  11
HETATM   11  C   UNL     1       8.538  30.317  58.743  1.00  0.00     0.077 C 
HETATM   12  C   UNL     1       7.473  29.541  58.493  1.00  0.00     0.042 C 
BRANCH  12  13
HETATM   13  C   UNL     1       7.553  28.475  57.556  1.00  0.00     0.075 A 
HETATM   14  O   UNL     1       7.892  27.180  57.884  1.00  0.00    -0.323 OA
HETATM   15  C   UNL     1       7.868  26.431  56.755  1.00  0.00     0.142 A 
HETATM   16  C   UNL     1       7.520  27.203  55.677  1.00  0.00     0.027 A 
HETATM   17  C   UNL     1       7.319  28.508  56.187  1.00  0.00     0.039 A 
ENDBRANCH  12  13
ENDBRANCH   8  11
ENDBRANCH   3   7
BRANCH   5  18
HETATM   18  C   UNL     1       4.289  33.430  63.361  1.00  0.00     0.010 A 
HETATM   19  C   UNL     1       3.208  33.341  62.454  1.00  0.00     0.152 A 
HETATM   20  N   UNL     1       2.076  33.854  62.945  1.00  0.00    -0.187 NA
HETATM   21  N   UNL     1       2.427  34.272  64.170  1.00  0.00    -0.289 N 
HETATM   22  H   UNL     1       1.719  34.710  64.751  1.00  0.00     0.188 HD
HETATM   23  C   UNL     1       3.740  34.044  64.467  1.00  0.00     0.123 A 
ENDBRANCH   5  18
TORSDOF 4
ENDMDL
MODEL 7
REMARK VINA RESULT:      -7.9      5.245      8.129
REMARK  4 active torsions:
REMARK  status: ('A' for Active; 'I' for Inactive)
REMARK    1  A    between atoms: C_3  and  N_4 
REMARK       I    between atoms: N_4  and  C_5 
REMARK    2  A    between atoms: C_5  and  C_6 
REMARK    3  A    between atoms: C_7  and  C_8 
REMARK    4  A    between atoms: C_15  and  C_16 
ROOT
HETATM    1  C   UNL     1       5.379  28.745  50.765  1.00  0.00     0.003 A 
HETATM    2  C   UNL     1       5.803  27.802  51.704  1.00  0.00     0.029 A 
HETATM    3  C   UNL     1       5.503  26.451  51.532  1.00  0.00     0.035 A 
HETATM    4  C   UNL     1       4.766  26.058  50.402  1.00  0.00     0.042 A 
HETATM    5  C   UNL     1       4.336  26.995  49.449  1.00  0.00    -0.021 A 
HETATM    6  C   UNL     1       4.650  28.344  49.644  1.00  0.00     0.012 A 
ENDROOT
BRANCH   3   7
HETATM    7  N   UNL     1       5.899  25.434  52.429  1.00  0.00    -0.324 N 
HETATM    8  C   UNL     1       7.155  24.876  52.561  1.00  0.00     0.245 C 
HETATM    9  O   UNL     1       8.163  25.162  51.929  1.00  0.00    -0.268 OA
HETATM   10  H   UNL     1       5.168  25.075  53.028  1.00  0.00     0.169 HD
BRANCH   8  11
HETATM   11  C   UNL     1       7.182  23.818  53.606  1.00  0.00     0.077 C 
HETATM   12  C   UNL     1       8.240  22.998  53.691  1.00  0.00     0.042 C 
BRANCH  12  13
HETATM   13  C   UNL     1       8.290  21.974  54.675  1.00  0.00     0.075 A 
HETATM   14  O   UNL     1       8.665  22.176  55.986  1.00  0.00    -0.323 OA
HETATM   15  C   UNL     1       8.597  20.991  56.639  1.00  0.00     0.142 A 
HETATM   16  C   UNL     1       8.183  19.999  55.789  1.00  0.00     0.027 A 
HETATM   17  C   UNL     1       7.987  20.624  54.535  1.00  0.00     0.039 A 
ENDBRANCH  12  13
ENDBRANCH   8  11
ENDBRANCH   3   7
BRANCH   5  18
HETATM   18  C   UNL     1       3.575  26.561  48.290  1.00  0.00     0.010 A 
HETATM   19  C   UNL     1       3.482  25.295  47.664  1.00  0.00     0.152 A 
HETATM   20  N   UNL     1       2.682  25.303  46.594  1.00  0.00    -0.187 NA
HETATM   21  N   UNL     1       2.257  26.573  46.530  1.00  0.00    -0.289 N 
HETATM   22  H   UNL     1       1.623  26.833  45.781  1.00  0.00     0.188 HD
HETATM   23  C   UNL     1       2.763  27.367  47.520  1.00  0.00     0.123 A 
ENDBRANCH   5  18
TORSDOF 4
ENDMDL
MODEL 8
REMARK VINA RESULT:      -7.7      2.812      8.187
REMARK  4 active torsions:
REMARK  status: ('A' for Active; 'I' for Inactive)
REMARK    1  A    between atoms: C_3  and  N_4 
REMARK       I    between atoms: N_4  and  C_5 
REMARK    2  A    between atoms: C_5  and  C_6 
REMARK    3  A    between atoms: C_7  and  C_8 
REMARK    4  A    between atoms: C_15  and  C_16 
ROOT
HETATM    1  C   UNL     1       5.445  28.913  57.338  1.00  0.00     0.003 A 
HETATM    2  C   UNL     1       5.518  27.706  56.638  1.00  0.00     0.029 A 
HETATM    3  C   UNL     1       6.747  27.222  56.193  1.00  0.00     0.035 A 
HETATM    4  C   UNL     1       7.908  27.969  56.459  1.00  0.00     0.042 A 
HETATM    5  C   UNL     1       7.849  29.181  57.164  1.00  0.00    -0.021 A 
HETATM    6  C   UNL     1       6.603  29.645  57.600  1.00  0.00     0.012 A 
ENDROOT
BRANCH   3   7
HETATM    7  N   UNL     1       6.910  26.010  55.485  1.00  0.00    -0.324 N 
HETATM    8  C   UNL     1       6.892  25.831  54.117  1.00  0.00     0.245 C 
HETATM    9  O   UNL     1       6.737  26.689  53.258  1.00  0.00    -0.268 OA
HETATM   10  H   UNL     1       7.042  25.187  56.057  1.00  0.00     0.169 HD
BRANCH   8  11
HETATM   11  C   UNL     1       7.084  24.403  53.744  1.00  0.00     0.077 C 
HETATM   12  C   UNL     1       7.962  23.654  54.424  1.00  0.00     0.042 C 
BRANCH  12  13
HETATM   13  C   UNL     1       8.172  22.289  54.085  1.00  0.00     0.075 A 
HETATM   14  O   UNL     1       7.965  21.763  52.827  1.00  0.00    -0.323 OA
HETATM   15  C   UNL     1       8.263  20.441  52.862  1.00  0.00     0.142 A 
HETATM   16  C   UNL     1       8.664  20.074  54.120  1.00  0.00     0.027 A 
HETATM   17  C   UNL     1       8.606  21.252  54.902  1.00  0.00     0.039 A 
ENDBRANCH  12  13
ENDBRANCH   8  11
ENDBRANCH   3   7
BRANCH   5  18
HETATM   18  C   UNL     1       9.065  29.934  57.425  1.00  0.00     0.010 A 
HETATM   19  C   UNL     1      10.334  29.887  56.802  1.00  0.00     0.152 A 
HETATM   20  N   UNL     1      11.212  30.733  57.349  1.00  0.00    -0.187 NA
HETATM   21  N   UNL     1      10.508  31.327  58.325  1.00  0.00    -0.289 N 
HETATM   22  H   UNL     1      10.972  32.026  58.897  1.00  0.00     0.188 HD
HETATM   23  C   UNL     1       9.220  30.883  58.413  1.00  0.00     0.123 A 
ENDBRANCH   5  18
TORSDOF 4
ENDMDL
MODEL 9
REMARK VINA RESULT:      -7.7      9.667     13.421
REMARK  4 active torsions:
REMARK  status: ('A' for Active; 'I' for Inactive)
REMARK    1  A    between atoms: C_3  and  N_4 
REMARK       I    between atoms: N_4  and  C_5 
REMARK    2  A    between atoms: C_5  and  C_6 
REMARK    3  A    between atoms: C_7  and  C_8 
REMARK    4  A    between atoms: C_15  and  C_16 
ROOT
HETATM    1  C   UNL     1       5.780  34.896  62.838  1.00  0.00     0.003 A 
HETATM    2  C   UNL     1       5.849  35.049  64.225  1.00  0.00     0.029 A 
HETATM    3  C   UNL     1       6.671  34.219  64.985  1.00  0.00     0.035 A 
HETATM    4  C   UNL     1       7.425  33.228  64.334  1.00  0.00     0.042 A 
HETATM    5  C   UNL     1       7.368  33.067  62.940  1.00  0.00    -0.021 A 
HETATM    6  C   UNL     1       6.535  33.912  62.199  1.00  0.00     0.012 A 
ENDROOT
BRANCH   3   7
HETATM    7  N   UNL     1       6.803  34.310  66.389  1.00  0.00    -0.324 N 
HETATM    8  C   UNL     1       5.810  34.158  67.335  1.00  0.00     0.245 C 
HETATM    9  O   UNL     1       4.628  33.910  67.137  1.00  0.00    -0.268 OA
HETATM   10  H   UNL     1       7.733  34.522  66.725  1.00  0.00     0.169 HD
BRANCH   8  11
HETATM   11  C   UNL     1       6.331  34.339  68.717  1.00  0.00     0.077 C 
HETATM   12  C   UNL     1       7.272  35.265  68.954  1.00  0.00     0.042 C 
BRANCH  12  13
HETATM   13  C   UNL     1       7.793  35.454  70.263  1.00  0.00     0.075 A 
HETATM   14  O   UNL     1       7.639  36.610  70.998  1.00  0.00    -0.323 OA
HETATM   15  C   UNL     1       8.257  36.444  72.193  1.00  0.00     0.142 A 
HETATM   16  C   UNL     1       8.822  35.198  72.270  1.00  0.00     0.027 A 
HETATM   17  C   UNL     1       8.528  34.565  71.039  1.00  0.00     0.039 A 
ENDBRANCH  12  13
ENDBRANCH   8  11
ENDBRANCH   3   7
BRANCH   5  18
HETATM   18  C   UNL     1       8.159  32.034  62.292  1.00  0.00     0.010 A 
HETATM   19  C   UNL     1       8.917  32.061  61.098  1.00  0.00     0.152 A 
HETATM   20  N   UNL     1       9.492  30.887  60.822  1.00  0.00    -0.187 NA
HETATM   21  N   UNL     1       9.106  30.103  61.839  1.00  0.00    -0.289 N 
HETATM   22  H   UNL     1       9.423  29.138  61.852  1.00  0.00     0.188 HD
HETATM   23  C   UNL     1       8.306  30.740  62.744  1.00  0.00     0.123 A 
ENDBRANCH   5  18
TORSDOF 4
ENDMDL
MODEL 10
REMARK VINA RESULT:      -7.5      8.352     13.865
REMARK  4 active torsions:
REMARK  status: ('A' for Active; 'I' for Inactive)
REMARK    1  A    between atoms: C_3  and  N_4 
REMARK       I    between atoms: N_4  and  C_5 
REMARK    2  A    between atoms: C_5  and  C_6 
REMARK    3  A    between atoms: C_7  and  C_8 
REMARK    4  A    between atoms: C_15  and  C_16 
ROOT
HETATM    1  C   UNL     1       4.338  35.592  65.611  1.00  0.00     0.003 A 
HETATM    2  C   UNL     1       4.908  34.872  64.558  1.00  0.00     0.029 A 
HETATM    3  C   UNL     1       5.988  34.022  64.788  1.00  0.00     0.035 A 
HETATM    4  C   UNL     1       6.493  33.904  66.094  1.00  0.00     0.042 A 
HETATM    5  C   UNL     1       5.927  34.619  67.162  1.00  0.00    -0.021 A 
HETATM    6  C   UNL     1       4.844  35.466  66.905  1.00  0.00     0.012 A 
ENDROOT
BRANCH   3   7
HETATM    7  N   UNL     1       6.618  33.255  63.783  1.00  0.00    -0.324 N 
HETATM    8  C   UNL     1       6.095  32.172  63.105  1.00  0.00     0.245 C 
HETATM    9  O   UNL     1       4.985  31.675  63.244  1.00  0.00    -0.268 OA
HETATM   10  H   UNL     1       7.561  33.534  63.551  1.00  0.00     0.169 HD
BRANCH   8  11
HETATM   11  C   UNL     1       7.065  31.613  62.124  1.00  0.00     0.077 C 
HETATM   12  C   UNL     1       7.305  32.273  60.983  1.00  0.00     0.042 C 
BRANCH  12  13
HETATM   13  C   UNL     1       8.221  31.759  60.024  1.00  0.00     0.075 A 
HETATM   14  O   UNL     1       9.265  32.480  59.486  1.00  0.00    -0.323 OA
HETATM   15  C   UNL     1       9.930  31.685  58.613  1.00  0.00     0.142 A 
HETATM   16  C   UNL     1       9.349  30.445  58.558  1.00  0.00     0.027 A 
HETATM   17  C   UNL     1       8.258  30.490  59.457  1.00  0.00     0.039 A 
ENDBRANCH  12  13
ENDBRANCH   8  11
ENDBRANCH   3   7
BRANCH   5  18
HETATM   18  C   UNL     1       6.469  34.478  68.504  1.00  0.00     0.010 A 
HETATM   19  C   UNL     1       7.716  34.871  69.044  1.00  0.00     0.152 A 
HETATM   20  N   UNL     1       7.850  34.543  70.332  1.00  0.00    -0.187 NA
HETATM   21  N   UNL     1       6.688  33.939  70.624  1.00  0.00    -0.289 N 
HETATM   22  H   UNL     1       6.548  33.591  71.567  1.00  0.00     0.188 HD
HETATM   23  C   UNL     1       5.829  33.873  69.564  1.00  0.00     0.123 A 
ENDBRANCH   5  18
TORSDOF 4
ENDMDL
