MODEL 1
REMARK VINA RESULT:      -9.5      0.000      0.000
REMARK  5 active torsions:
REMARK  status: ('A' for Active; 'I' for Inactive)
REMARK    1  A    between atoms: C_6  and  O_7 
REMARK    2  A    between atoms: O_7  and  C_8 
REMARK    3  A    between atoms: C_8  and  C_9 
REMARK       I    between atoms: C_9  and  N_10 
REMARK    4  A    between atoms: N_10  and  N_11 
REMARK    5  A    between atoms: C_12  and  C_13 
ROOT
HETATM    1  C   UNL     1       7.993  28.192  57.064  1.00  0.00     0.261 C 
HETATM    2  N   UNL     1       7.480  26.905  57.025  1.00  0.00    -0.246 N 
HETATM    3  O   UNL     1       8.769  28.673  56.240  1.00  0.00    -0.269 OA
HETATM    4  H   UNL     1       6.812  26.610  57.733  1.00  0.00     0.192 HD
ENDROOT
BRANCH   2   5
HETATM    5  N   UNL     1       7.883  26.057  56.039  1.00  0.00    -0.184 NA
HETATM    6  C   UNL     1       7.005  25.222  55.588  1.00  0.00     0.153 C 
BRANCH   6   7
HETATM    7  C   UNL     1       7.389  24.275  54.555  1.00  0.00     0.018 A 
HETATM    8  C   UNL     1       7.659  22.869  54.686  1.00  0.00     0.004 A 
HETATM    9  C   UNL     1       7.973  22.383  53.416  1.00  0.00     0.043 A 
HETATM   10  C   UNL     1       7.667  21.958  55.765  1.00  0.00     0.014 A 
HETATM   11  C   UNL     1       8.288  21.040  53.172  1.00  0.00     0.030 A 
HETATM   12  N   UNL     1       7.900  23.444  52.549  1.00  0.00    -0.358 N 
HETATM   13  C   UNL     1       8.286  20.163  54.260  1.00  0.00     0.002 A 
HETATM   14  C   UNL     1       7.981  20.612  55.540  1.00  0.00     0.001 A 
HETATM   15  H   UNL     1       8.078  23.373  51.556  1.00  0.00     0.166 HD
HETATM   16  C   UNL     1       7.549  24.594  53.212  1.00  0.00     0.018 A 
HETATM   17  C   UNL     1       7.392  25.881  52.485  1.00  0.00     0.069 C 
ENDBRANCH   6   7
ENDBRANCH   2   5
BRANCH   1  18
HETATM   18  C   UNL     1       7.585  28.974  58.308  1.00  0.00     0.280 C 
BRANCH  18  19
HETATM   19  O   UNL     1       8.158  30.279  58.346  1.00  0.00    -0.341 OA
BRANCH  19  20
HETATM   20  C   UNL     1       8.187  30.861  59.590  1.00  0.00     0.086 A 
HETATM   21  C   UNL     1       7.151  31.742  59.928  1.00  0.00     0.044 A 
HETATM   22  C   UNL     1       7.117  32.358  61.185  1.00  0.00     0.028 A 
HETATM   23 BR   UNL     1       5.768  32.157  58.692  1.00  0.00    -0.048 Br
HETATM   24  C   UNL     1       8.108  32.082  62.134  1.00  0.00    -0.061 A 
HETATM   25  C   UNL     1       8.102  32.759  63.474  1.00  0.00     0.048 C 
HETATM   26  C   UNL     1       9.137  31.196  61.801  1.00  0.00     0.009 A 
HETATM   27  C   UNL     1       9.172  30.584  60.545  1.00  0.00     0.039 A 
ENDBRANCH  19  20
ENDBRANCH  18  19
ENDBRANCH   1  18
TORSDOF 5
ENDMDL
MODEL 2
REMARK VINA RESULT:      -9.3      1.820      2.283
REMARK  5 active torsions:
REMARK  status: ('A' for Active; 'I' for Inactive)
REMARK    1  A    between atoms: C_6  and  O_7 
REMARK    2  A    between atoms: O_7  and  C_8 
REMARK    3  A    between atoms: C_8  and  C_9 
REMARK       I    between atoms: C_9  and  N_10 
REMARK    4  A    between atoms: N_10  and  N_11 
REMARK    5  A    between atoms: C_12  and  C_13 
ROOT
HETATM    1  C   UNL     1       5.338  27.782  55.979  1.00  0.00     0.261 C 
HETATM    2  N   UNL     1       5.916  26.630  56.491  1.00  0.00    -0.246 N 
HETATM    3  O   UNL     1       4.942  27.925  54.824  1.00  0.00    -0.269 OA
HETATM    4  H   UNL     1       6.179  26.595  57.473  1.00  0.00     0.192 HD
ENDROOT
BRANCH   2   5
HETATM    5  N   UNL     1       6.126  25.567  55.667  1.00  0.00    -0.184 NA
HETATM    6  C   UNL     1       7.354  25.231  55.443  1.00  0.00     0.153 C 
BRANCH   6   7
HETATM    7  C   UNL     1       7.636  24.122  54.548  1.00  0.00     0.018 A 
HETATM    8  C   UNL     1       7.898  22.748  54.881  1.00  0.00     0.004 A 
HETATM    9  C   UNL     1       8.097  22.058  53.685  1.00  0.00     0.043 A 
HETATM   10  C   UNL     1       7.984  22.021  56.088  1.00  0.00     0.014 A 
HETATM   11  C   UNL     1       8.372  20.685  53.635  1.00  0.00     0.030 A 
HETATM   12  N   UNL     1       7.965  22.969  52.667  1.00  0.00    -0.358 N 
HETATM   13  C   UNL     1       8.451  19.993  54.846  1.00  0.00     0.002 A 
HETATM   14  C   UNL     1       8.261  20.648  56.058  1.00  0.00     0.001 A 
HETATM   15  H   UNL     1       8.057  22.736  51.687  1.00  0.00     0.166 HD
HETATM   16  C   UNL     1       7.687  24.219  53.163  1.00  0.00     0.018 A 
HETATM   17  C   UNL     1       7.485  25.378  52.253  1.00  0.00     0.069 C 
ENDBRANCH   6   7
ENDBRANCH   2   5
BRANCH   1  18
HETATM   18  C   UNL     1       5.315  28.943  56.967  1.00  0.00     0.280 C 
BRANCH  18  19
HETATM   19  O   UNL     1       6.316  29.920  56.687  1.00  0.00    -0.341 OA
BRANCH  19  20
HETATM   20  C   UNL     1       6.948  30.432  57.794  1.00  0.00     0.086 A 
HETATM   21  C   UNL     1       8.223  29.942  58.107  1.00  0.00     0.044 A 
HETATM   22  C   UNL     1       8.925  30.432  59.216  1.00  0.00     0.028 A 
HETATM   23 BR   UNL     1       9.040  28.580  57.064  1.00  0.00    -0.048 Br
HETATM   24  C   UNL     1       8.372  31.440  60.013  1.00  0.00    -0.061 A 
HETATM   25  C   UNL     1       9.098  31.953  61.222  1.00  0.00     0.048 C 
HETATM   26  C   UNL     1       7.104  31.936  59.695  1.00  0.00     0.009 A 
HETATM   27  C   UNL     1       6.402  31.444  58.591  1.00  0.00     0.039 A 
ENDBRANCH  19  20
ENDBRANCH  18  19
ENDBRANCH   1  18
TORSDOF 5
ENDMDL
MODEL 3
REMARK VINA RESULT:      -9.3      1.284      1.521
REMARK  5 active torsions:
REMARK  status: ('A' for Active; 'I' for Inactive)
REMARK    1  A    between atoms: C_6  and  O_7 
REMARK    2  A    between atoms: O_7  and  C_8 
REMARK    3  A    between atoms: C_8  and  C_9 
REMARK       I    between atoms: C_9  and  N_10 
REMARK    4  A    between atoms: N_10  and  N_11 
REMARK    5  A    between atoms: C_12  and  C_13 
ROOT
HETATM    1  C   UNL     1       7.803  29.203  57.542  1.00  0.00     0.261 C 
HETATM    2  N   UNL     1       8.345  27.935  57.405  1.00  0.00    -0.246 N 
HETATM    3  O   UNL     1       7.030  29.736  56.747  1.00  0.00    -0.269 OA
HETATM    4  H   UNL     1       8.947  27.565  58.137  1.00  0.00     0.192 HD
ENDROOT
BRANCH   2   5
HETATM    5  N   UNL     1       8.064  27.207  56.289  1.00  0.00    -0.184 NA
HETATM    6  C   UNL     1       7.561  26.030  56.467  1.00  0.00     0.153 C 
BRANCH   6   7
HETATM    7  C   UNL     1       7.268  25.199  55.313  1.00  0.00     0.018 A 
HETATM    8  C   UNL     1       7.902  23.973  54.908  1.00  0.00     0.004 A 
HETATM    9  C   UNL     1       7.267  23.538  53.744  1.00  0.00     0.043 A 
HETATM   10  C   UNL     1       8.957  23.189  55.420  1.00  0.00     0.014 A 
HETATM   11  C   UNL     1       7.629  22.362  53.074  1.00  0.00     0.030 A 
HETATM   12  N   UNL     1       6.290  24.457  53.450  1.00  0.00    -0.358 N 
HETATM   13  C   UNL     1       8.677  21.606  53.606  1.00  0.00     0.002 A 
HETATM   14  C   UNL     1       9.335  22.011  54.763  1.00  0.00     0.001 A 
HETATM   15  H   UNL     1       5.671  24.384  52.654  1.00  0.00     0.166 HD
HETATM   16  C   UNL     1       6.272  25.466  54.381  1.00  0.00     0.018 A 
HETATM   17  C   UNL     1       5.290  26.578  54.288  1.00  0.00     0.069 C 
ENDBRANCH   6   7
ENDBRANCH   2   5
BRANCH   1  18
HETATM   18  C   UNL     1       8.330  29.965  58.753  1.00  0.00     0.280 C 
BRANCH  18  19
HETATM   19  O   UNL     1       7.653  31.203  58.959  1.00  0.00    -0.341 OA
BRANCH  19  20
HETATM   20  C   UNL     1       7.689  31.674  60.249  1.00  0.00     0.086 A 
HETATM   21  C   UNL     1       6.577  32.386  60.719  1.00  0.00     0.044 A 
HETATM   22  C   UNL     1       6.548  32.883  62.028  1.00  0.00     0.028 A 
HETATM   23 BR   UNL     1       5.081  32.731  59.599  1.00  0.00    -0.048 Br
HETATM   24  C   UNL     1       7.620  32.651  62.896  1.00  0.00    -0.061 A 
HETATM   25  C   UNL     1       7.617  33.204  64.291  1.00  0.00     0.048 C 
HETATM   26  C   UNL     1       8.725  31.933  62.430  1.00  0.00     0.009 A 
HETATM   27  C   UNL     1       8.756  31.440  61.122  1.00  0.00     0.039 A 
ENDBRANCH  19  20
ENDBRANCH  18  19
ENDBRANCH   1  18
TORSDOF 5
ENDMDL
MODEL 4
REMARK VINA RESULT:      -9.3      2.719      9.775
REMARK  5 active torsions:
REMARK  status: ('A' for Active; 'I' for Inactive)
REMARK    1  A    between atoms: C_6  and  O_7 
REMARK    2  A    between atoms: O_7  and  C_8 
REMARK    3  A    between atoms: C_8  and  C_9 
REMARK       I    between atoms: C_9  and  N_10 
REMARK    4  A    between atoms: N_10  and  N_11 
REMARK    5  A    between atoms: C_12  and  C_13 
ROOT
HETATM    1  C   UNL     1       5.750  27.525  55.666  1.00  0.00     0.261 C 
HETATM    2  N   UNL     1       6.764  27.869  56.547  1.00  0.00    -0.246 N 
HETATM    3  O   UNL     1       4.627  28.025  55.644  1.00  0.00    -0.269 OA
HETATM    4  H   UNL     1       7.675  27.424  56.461  1.00  0.00     0.192 HD
ENDROOT
BRANCH   2   5
HETATM    5  N   UNL     1       6.520  28.794  57.515  1.00  0.00    -0.184 NA
HETATM    6  C   UNL     1       7.197  29.894  57.459  1.00  0.00     0.153 C 
BRANCH   6   7
HETATM    7  C   UNL     1       6.998  30.905  58.483  1.00  0.00     0.018 A 
HETATM    8  C   UNL     1       7.733  31.101  59.703  1.00  0.00     0.004 A 
HETATM    9  C   UNL     1       7.181  32.207  60.351  1.00  0.00     0.043 A 
HETATM   10  C   UNL     1       8.818  30.444  60.322  1.00  0.00     0.014 A 
HETATM   11  C   UNL     1       7.660  32.688  61.576  1.00  0.00     0.030 A 
HETATM   12  N   UNL     1       6.154  32.665  59.564  1.00  0.00    -0.358 N 
HETATM   13  C   UNL     1       8.736  32.017  62.163  1.00  0.00     0.002 A 
HETATM   14  C   UNL     1       9.309  30.909  61.548  1.00  0.00     0.001 A 
HETATM   15  H   UNL     1       5.582  33.466  59.795  1.00  0.00     0.166 HD
HETATM   16  C   UNL     1       6.025  31.897  58.433  1.00  0.00     0.018 A 
HETATM   17  C   UNL     1       4.988  32.202  57.412  1.00  0.00     0.069 C 
ENDBRANCH   6   7
ENDBRANCH   2   5
BRANCH   1  18
HETATM   18  C   UNL     1       6.110  26.364  54.745  1.00  0.00     0.280 C 
BRANCH  18  19
HETATM   19  O   UNL     1       7.470  25.959  54.880  1.00  0.00    -0.341 OA
BRANCH  19  20
HETATM   20  C   UNL     1       7.740  24.685  54.444  1.00  0.00     0.086 A 
HETATM   21  C   UNL     1       8.317  23.788  55.353  1.00  0.00     0.044 A 
HETATM   22  C   UNL     1       8.605  22.471  54.973  1.00  0.00     0.028 A 
HETATM   23 BR   UNL     1       8.755  24.323  57.123  1.00  0.00    -0.048 Br
HETATM   24  C   UNL     1       8.297  22.024  53.684  1.00  0.00    -0.061 A 
HETATM   25  C   UNL     1       8.629  20.625  53.253  1.00  0.00     0.048 C 
HETATM   26  C   UNL     1       7.713  22.916  52.780  1.00  0.00     0.009 A 
HETATM   27  C   UNL     1       7.428  24.231  53.158  1.00  0.00     0.039 A 
ENDBRANCH  19  20
ENDBRANCH  18  19
ENDBRANCH   1  18
TORSDOF 5
ENDMDL
MODEL 5
REMARK VINA RESULT:      -9.0      5.242      9.346
REMARK  5 active torsions:
REMARK  status: ('A' for Active; 'I' for Inactive)
REMARK    1  A    between atoms: C_6  and  O_7 
REMARK    2  A    between atoms: O_7  and  C_8 
REMARK    3  A    between atoms: C_8  and  C_9 
REMARK       I    between atoms: C_9  and  N_10 
REMARK    4  A    between atoms: N_10  and  N_11 
REMARK    5  A    between atoms: C_12  and  C_13 
ROOT
HETATM    1  C   UNL     1       5.260  26.776  51.258  1.00  0.00     0.261 C 
HETATM    2  N   UNL     1       6.255  25.811  51.259  1.00  0.00    -0.246 N 
HETATM    3  O   UNL     1       4.487  27.001  52.188  1.00  0.00    -0.269 OA
HETATM    4  H   UNL     1       6.871  25.725  50.454  1.00  0.00     0.192 HD
ENDROOT
BRANCH   2   5
HETATM    5  N   UNL     1       6.387  24.991  52.338  1.00  0.00    -0.184 NA
HETATM    6  C   UNL     1       7.521  25.016  52.959  1.00  0.00     0.153 C 
BRANCH   6   7
HETATM    7  C   UNL     1       7.726  24.142  54.100  1.00  0.00     0.018 A 
HETATM    8  C   UNL     1       7.974  22.725  54.109  1.00  0.00     0.004 A 
HETATM    9  C   UNL     1       8.120  22.335  55.441  1.00  0.00     0.043 A 
HETATM   10  C   UNL     1       8.090  21.734  53.111  1.00  0.00     0.014 A 
HETATM   11  C   UNL     1       8.379  21.011  55.821  1.00  0.00     0.030 A 
HETATM   12  N   UNL     1       7.967  23.460  56.211  1.00  0.00    -0.358 N 
HETATM   13  C   UNL     1       8.489  20.053  54.810  1.00  0.00     0.002 A 
HETATM   14  C   UNL     1       8.346  20.406  53.472  1.00  0.00     0.001 A 
HETATM   15  H   UNL     1       8.029  23.465  57.220  1.00  0.00     0.166 HD
HETATM   16  C   UNL     1       7.729  24.561  55.425  1.00  0.00     0.018 A 
HETATM   17  C   UNL     1       7.541  25.907  56.028  1.00  0.00     0.069 C 
ENDBRANCH   6   7
ENDBRANCH   2   5
BRANCH   1  18
HETATM   18  C   UNL     1       5.121  27.508  49.928  1.00  0.00     0.280 C 
BRANCH  18  19
HETATM   19  O   UNL     1       4.000  28.388  49.902  1.00  0.00    -0.341 OA
BRANCH  19  20
HETATM   20  C   UNL     1       3.064  28.106  48.936  1.00  0.00     0.086 A 
HETATM   21  C   UNL     1       1.916  28.907  48.880  1.00  0.00     0.044 A 
HETATM   22  C   UNL     1       0.931  28.677  47.912  1.00  0.00     0.028 A 
HETATM   23 BR   UNL     1       1.633  30.314  50.126  1.00  0.00    -0.048 Br
HETATM   24  C   UNL     1       1.093  27.658  46.966  1.00  0.00    -0.061 A 
HETATM   25  C   UNL     1       0.032  27.380  45.942  1.00  0.00     0.048 C 
HETATM   26  C   UNL     1       2.244  26.865  47.016  1.00  0.00     0.009 A 
HETATM   27  C   UNL     1       3.225  27.093  47.985  1.00  0.00     0.039 A 
ENDBRANCH  19  20
ENDBRANCH  18  19
ENDBRANCH   1  18
TORSDOF 5
ENDMDL
MODEL 6
REMARK VINA RESULT:      -9.0      1.806      2.857
REMARK  5 active torsions:
REMARK  status: ('A' for Active; 'I' for Inactive)
REMARK    1  A    between atoms: C_6  and  O_7 
REMARK    2  A    between atoms: O_7  and  C_8 
REMARK    3  A    between atoms: C_8  and  C_9 
REMARK       I    between atoms: C_9  and  N_10 
REMARK    4  A    between atoms: N_10  and  N_11 
REMARK    5  A    between atoms: C_12  and  C_13 
ROOT
HETATM    1  C   UNL     1       9.304  29.882  57.770  1.00  0.00     0.261 C 
HETATM    2  N   UNL     1       8.292  28.961  57.546  1.00  0.00    -0.246 N 
HETATM    3  O   UNL     1      10.463  29.776  57.374  1.00  0.00    -0.269 OA
HETATM    4  H   UNL     1       7.353  29.157  57.882  1.00  0.00     0.192 HD
ENDROOT
BRANCH   2   5
HETATM    5  N   UNL     1       8.577  27.808  56.880  1.00  0.00    -0.184 NA
HETATM    6  C   UNL     1       7.586  27.019  56.623  1.00  0.00     0.153 C 
BRANCH   6   7
HETATM    7  C   UNL     1       7.837  25.762  55.940  1.00  0.00     0.018 A 
HETATM    8  C   UNL     1       7.657  25.447  54.548  1.00  0.00     0.004 A 
HETATM    9  C   UNL     1       8.045  24.120  54.365  1.00  0.00     0.043 A 
HETATM   10  C   UNL     1       7.200  26.166  53.422  1.00  0.00     0.014 A 
HETATM   11  C   UNL     1       8.004  23.480  53.119  1.00  0.00     0.030 A 
HETATM   12  N   UNL     1       8.443  23.643  55.589  1.00  0.00    -0.358 N 
HETATM   13  C   UNL     1       7.548  24.218  52.024  1.00  0.00     0.002 A 
HETATM   14  C   UNL     1       7.150  25.543  52.170  1.00  0.00     0.001 A 
HETATM   15  H   UNL     1       8.780  22.703  55.745  1.00  0.00     0.166 HD
HETATM   16  C   UNL     1       8.327  24.615  56.553  1.00  0.00     0.018 A 
HETATM   17  C   UNL     1       8.711  24.345  57.964  1.00  0.00     0.069 C 
ENDBRANCH   6   7
ENDBRANCH   2   5
BRANCH   1  18
HETATM   18  C   UNL     1       8.884  31.043  58.666  1.00  0.00     0.280 C 
BRANCH  18  19
HETATM   19  O   UNL     1       7.746  30.733  59.466  1.00  0.00    -0.341 OA
BRANCH  19  20
HETATM   20  C   UNL     1       7.711  31.359  60.689  1.00  0.00     0.086 A 
HETATM   21  C   UNL     1       6.700  32.302  60.916  1.00  0.00     0.044 A 
HETATM   22  C   UNL     1       6.604  32.965  62.145  1.00  0.00     0.028 A 
HETATM   23 BR   UNL     1       5.438  32.739  59.564  1.00  0.00    -0.048 Br
HETATM   24  C   UNL     1       7.504  32.676  63.177  1.00  0.00    -0.061 A 
HETATM   25  C   UNL     1       7.432  33.401  64.489  1.00  0.00     0.048 C 
HETATM   26  C   UNL     1       8.507  31.728  62.954  1.00  0.00     0.009 A 
HETATM   27  C   UNL     1       8.605  31.068  61.726  1.00  0.00     0.039 A 
ENDBRANCH  19  20
ENDBRANCH  18  19
ENDBRANCH   1  18
TORSDOF 5
ENDMDL
MODEL 7
REMARK VINA RESULT:      -8.9      2.864     10.017
REMARK  5 active torsions:
REMARK  status: ('A' for Active; 'I' for Inactive)
REMARK    1  A    between atoms: C_6  and  O_7 
REMARK    2  A    between atoms: O_7  and  C_8 
REMARK    3  A    between atoms: C_8  and  C_9 
REMARK       I    between atoms: C_9  and  N_10 
REMARK    4  A    between atoms: N_10  and  N_11 
REMARK    5  A    between atoms: C_12  and  C_13 
ROOT
HETATM    1  C   UNL     1       7.071  27.384  56.706  1.00  0.00     0.261 C 
HETATM    2  N   UNL     1       6.616  28.691  56.615  1.00  0.00    -0.246 N 
HETATM    3  O   UNL     1       7.299  26.782  57.754  1.00  0.00    -0.269 OA
HETATM    4  H   UNL     1       6.420  29.090  55.700  1.00  0.00     0.192 HD
ENDROOT
BRANCH   2   5
HETATM    5  N   UNL     1       6.444  29.417  57.753  1.00  0.00    -0.184 NA
HETATM    6  C   UNL     1       6.778  30.665  57.709  1.00  0.00     0.153 C 
BRANCH   6   7
HETATM    7  C   UNL     1       6.642  31.481  58.903  1.00  0.00     0.018 A 
HETATM    8  C   UNL     1       7.474  31.498  60.075  1.00  0.00     0.004 A 
HETATM    9  C   UNL     1       6.954  32.456  60.945  1.00  0.00     0.043 A 
HETATM   10  C   UNL     1       8.625  30.789  60.482  1.00  0.00     0.014 A 
HETATM   11  C   UNL     1       7.525  32.742  62.192  1.00  0.00     0.030 A 
HETATM   12  N   UNL     1       5.852  33.000  60.334  1.00  0.00    -0.358 N 
HETATM   13  C   UNL     1       8.664  32.025  62.566  1.00  0.00     0.002 A 
HETATM   14  C   UNL     1       9.209  31.060  61.726  1.00  0.00     0.001 A 
HETATM   15  H   UNL     1       5.282  33.727  60.744  1.00  0.00     0.166 HD
HETATM   16  C   UNL     1       5.644  32.428  59.102  1.00  0.00     0.018 A 
HETATM   17  C   UNL     1       4.516  32.860  58.237  1.00  0.00     0.069 C 
ENDBRANCH   6   7
ENDBRANCH   2   5
BRANCH   1  18
HETATM   18  C   UNL     1       7.374  26.748  55.354  1.00  0.00     0.280 C 
BRANCH  18  19
HETATM   19  O   UNL     1       6.374  25.814  54.952  1.00  0.00    -0.341 OA
BRANCH  19  20
HETATM   20  C   UNL     1       6.851  24.583  54.572  1.00  0.00     0.086 A 
HETATM   21  C   UNL     1       7.022  24.340  53.202  1.00  0.00     0.044 A 
HETATM   22  C   UNL     1       7.516  23.110  52.751  1.00  0.00     0.028 A 
HETATM   23 BR   UNL     1       6.569  25.651  51.903  1.00  0.00    -0.048 Br
HETATM   24  C   UNL     1       7.871  22.113  53.666  1.00  0.00    -0.061 A 
HETATM   25  C   UNL     1       8.373  20.778  53.196  1.00  0.00     0.048 C 
HETATM   26  C   UNL     1       7.710  22.359  55.033  1.00  0.00     0.009 A 
HETATM   27  C   UNL     1       7.214  23.586  55.482  1.00  0.00     0.039 A 
ENDBRANCH  19  20
ENDBRANCH  18  19
ENDBRANCH   1  18
TORSDOF 5
ENDMDL
MODEL 8
REMARK VINA RESULT:      -8.8      4.771      8.425
REMARK  5 active torsions:
REMARK  status: ('A' for Active; 'I' for Inactive)
REMARK    1  A    between atoms: C_6  and  O_7 
REMARK    2  A    between atoms: O_7  and  C_8 
REMARK    3  A    between atoms: C_8  and  C_9 
REMARK       I    between atoms: C_9  and  N_10 
REMARK    4  A    between atoms: N_10  and  N_11 
REMARK    5  A    between atoms: C_12  and  C_13 
ROOT
HETATM    1  C   UNL     1       5.247  27.599  53.571  1.00  0.00     0.261 C 
HETATM    2  N   UNL     1       6.095  26.537  53.296  1.00  0.00    -0.246 N 
HETATM    3  O   UNL     1       4.702  27.813  54.653  1.00  0.00    -0.269 OA
HETATM    4  H   UNL     1       6.527  26.466  52.378  1.00  0.00     0.192 HD
ENDROOT
BRANCH   2   5
HETATM    5  N   UNL     1       6.329  25.605  54.260  1.00  0.00    -0.184 NA
HETATM    6  C   UNL     1       7.548  25.198  54.398  1.00  0.00     0.153 C 
BRANCH   6   7
HETATM    7  C   UNL     1       7.851  24.183  55.393  1.00  0.00     0.018 A 
HETATM    8  C   UNL     1       8.002  22.765  55.209  1.00  0.00     0.004 A 
HETATM    9  C   UNL     1       8.305  22.211  56.453  1.00  0.00     0.043 A 
HETATM   10  C   UNL     1       7.913  21.896  54.100  1.00  0.00     0.014 A 
HETATM   11  C   UNL     1       8.524  20.840  56.642  1.00  0.00     0.030 A 
HETATM   12  N   UNL     1       8.334  23.243  57.358  1.00  0.00    -0.358 N 
HETATM   13  C   UNL     1       8.429  20.006  55.525  1.00  0.00     0.002 A 
HETATM   14  C   UNL     1       8.127  20.523  54.270  1.00  0.00     0.001 A 
HETATM   15  H   UNL     1       8.536  23.124  58.341  1.00  0.00     0.166 HD
HETATM   16  C   UNL     1       8.065  24.441  56.742  1.00  0.00     0.018 A 
HETATM   17  C   UNL     1       8.052  25.713  57.511  1.00  0.00     0.069 C 
ENDBRANCH   6   7
ENDBRANCH   2   5
BRANCH   1  18
HETATM   18  C   UNL     1       4.946  28.470  52.356  1.00  0.00     0.280 C 
BRANCH  18  19
HETATM   19  O   UNL     1       5.723  28.108  51.217  1.00  0.00    -0.341 OA
BRANCH  19  20
HETATM   20  C   UNL     1       5.010  27.546  50.185  1.00  0.00     0.086 A 
HETATM   21  C   UNL     1       4.683  28.361  49.093  1.00  0.00     0.044 A 
HETATM   22  C   UNL     1       3.968  27.845  48.005  1.00  0.00     0.028 A 
HETATM   23 BR   UNL     1       5.169  30.198  49.052  1.00  0.00    -0.048 Br
HETATM   24  C   UNL     1       3.592  26.497  47.982  1.00  0.00    -0.061 A 
HETATM   25  C   UNL     1       2.799  25.937  46.837  1.00  0.00     0.048 C 
HETATM   26  C   UNL     1       3.927  25.682  49.067  1.00  0.00     0.009 A 
HETATM   27  C   UNL     1       4.637  26.198  50.155  1.00  0.00     0.039 A 
ENDBRANCH  19  20
ENDBRANCH  18  19
ENDBRANCH   1  18
TORSDOF 5
ENDMDL
MODEL 9
REMARK VINA RESULT:      -8.8      2.577      3.333
REMARK  5 active torsions:
REMARK  status: ('A' for Active; 'I' for Inactive)
REMARK    1  A    between atoms: C_6  and  O_7 
REMARK    2  A    between atoms: O_7  and  C_8 
REMARK    3  A    between atoms: C_8  and  C_9 
REMARK       I    between atoms: C_9  and  N_10 
REMARK    4  A    between atoms: N_10  and  N_11 
REMARK    5  A    between atoms: C_12  and  C_13 
ROOT
HETATM    1  C   UNL     1       5.603  26.987  56.736  1.00  0.00     0.261 C 
HETATM    2  N   UNL     1       6.740  26.259  57.053  1.00  0.00    -0.246 N 
HETATM    3  O   UNL     1       4.732  26.634  55.942  1.00  0.00    -0.269 OA
HETATM    4  H   UNL     1       7.386  26.618  57.752  1.00  0.00     0.192 HD
ENDROOT
BRANCH   2   5
HETATM    5  N   UNL     1       6.973  25.077  56.419  1.00  0.00    -0.184 NA
HETATM    6  C   UNL     1       7.571  25.133  55.275  1.00  0.00     0.153 C 
BRANCH   6   7
HETATM    7  C   UNL     1       7.819  23.904  54.541  1.00  0.00     0.018 A 
HETATM    8  C   UNL     1       8.065  22.586  55.059  1.00  0.00     0.004 A 
HETATM    9  C   UNL     1       8.231  21.731  53.969  1.00  0.00     0.043 A 
HETATM   10  C   UNL     1       8.162  22.034  56.355  1.00  0.00     0.014 A 
HETATM   11  C   UNL     1       8.483  20.360  54.109  1.00  0.00     0.030 A 
HETATM   12  N   UNL     1       8.094  22.492  52.835  1.00  0.00    -0.358 N 
HETATM   13  C   UNL     1       8.573  19.843  55.404  1.00  0.00     0.002 A 
HETATM   14  C   UNL     1       8.416  20.666  56.514  1.00  0.00     0.001 A 
HETATM   15  H   UNL     1       8.164  22.122  51.897  1.00  0.00     0.166 HD
HETATM   16  C   UNL     1       7.845  23.804  53.155  1.00  0.00     0.018 A 
HETATM   17  C   UNL     1       7.645  24.827  52.095  1.00  0.00     0.069 C 
ENDBRANCH   6   7
ENDBRANCH   2   5
BRANCH   1  18
HETATM   18  C   UNL     1       5.554  28.360  57.396  1.00  0.00     0.280 C 
BRANCH  18  19
HETATM   19  O   UNL     1       6.182  29.369  56.609  1.00  0.00    -0.341 OA
BRANCH  19  20
HETATM   20  C   UNL     1       7.517  29.559  56.872  1.00  0.00     0.086 A 
HETATM   21  C   UNL     1       8.440  29.202  55.879  1.00  0.00     0.044 A 
HETATM   22  C   UNL     1       9.813  29.382  56.081  1.00  0.00     0.028 A 
HETATM   23 BR   UNL     1       7.872  28.437  54.234  1.00  0.00    -0.048 Br
HETATM   24  C   UNL     1      10.284  29.948  57.271  1.00  0.00    -0.061 A 
HETATM   25  C   UNL     1      11.755  30.119  57.515  1.00  0.00     0.048 C 
HETATM   26  C   UNL     1       9.364  30.313  58.258  1.00  0.00     0.009 A 
HETATM   27  C   UNL     1       7.993  30.130  58.057  1.00  0.00     0.039 A 
ENDBRANCH  19  20
ENDBRANCH  18  19
ENDBRANCH   1  18
TORSDOF 5
ENDMDL
MODEL 10
REMARK VINA RESULT:      -8.8      1.804      2.347
REMARK  5 active torsions:
REMARK  status: ('A' for Active; 'I' for Inactive)
REMARK    1  A    between atoms: C_6  and  O_7 
REMARK    2  A    between atoms: O_7  and  C_8 
REMARK    3  A    between atoms: C_8  and  C_9 
REMARK       I    between atoms: C_9  and  N_10 
REMARK    4  A    between atoms: N_10  and  N_11 
REMARK    5  A    between atoms: C_12  and  C_13 
ROOT
HETATM    1  C   UNL     1       6.604  29.772  57.022  1.00  0.00     0.261 C 
HETATM    2  N   UNL     1       5.671  29.029  56.316  1.00  0.00    -0.246 N 
HETATM    3  O   UNL     1       7.820  29.587  57.006  1.00  0.00    -0.269 OA
HETATM    4  H   UNL     1       4.687  29.283  56.364  1.00  0.00     0.192 HD
ENDROOT
BRANCH   2   5
HETATM    5  N   UNL     1       6.089  27.968  55.572  1.00  0.00    -0.184 NA
HETATM    6  C   UNL     1       5.617  26.807  55.887  1.00  0.00     0.153 C 
BRANCH   6   7
HETATM    7  C   UNL     1       6.051  25.637  55.145  1.00  0.00     0.018 A 
HETATM    8  C   UNL     1       6.912  24.571  55.579  1.00  0.00     0.004 A 
HETATM    9  C   UNL     1       7.024  23.667  54.522  1.00  0.00     0.043 A 
HETATM   10  C   UNL     1       7.610  24.285  56.772  1.00  0.00     0.014 A 
HETATM   11  C   UNL     1       7.791  22.496  54.599  1.00  0.00     0.030 A 
HETATM   12  N   UNL     1       6.268  24.159  53.488  1.00  0.00    -0.358 N 
HETATM   13  C   UNL     1       8.469  22.241  55.794  1.00  0.00     0.002 A 
HETATM   14  C   UNL     1       8.383  23.121  56.868  1.00  0.00     0.001 A 
HETATM   15  H   UNL     1       6.167  23.697  52.594  1.00  0.00     0.166 HD
HETATM   16  C   UNL     1       5.671  25.344  53.840  1.00  0.00     0.018 A 
HETATM   17  C   UNL     1       4.786  26.070  52.891  1.00  0.00     0.069 C 
ENDBRANCH   6   7
ENDBRANCH   2   5
BRANCH   1  18
HETATM   18  C   UNL     1       5.983  30.821  57.938  1.00  0.00     0.280 C 
BRANCH  18  19
HETATM   19  O   UNL     1       6.887  31.877  58.253  1.00  0.00    -0.341 OA
BRANCH  19  20
HETATM   20  C   UNL     1       7.088  32.085  59.596  1.00  0.00     0.086 A 
HETATM   21  C   UNL     1       8.402  32.035  60.079  1.00  0.00     0.044 A 
HETATM   22  C   UNL     1       8.674  32.250  61.436  1.00  0.00     0.028 A 
HETATM   23 BR   UNL     1       9.863  31.649  58.926  1.00  0.00    -0.048 Br
HETATM   24  C   UNL     1       7.636  32.544  62.326  1.00  0.00    -0.061 A 
HETATM   25  C   UNL     1       7.908  32.746  63.789  1.00  0.00     0.048 C 
HETATM   26  C   UNL     1       6.325  32.604  61.843  1.00  0.00     0.009 A 
HETATM   27  C   UNL     1       6.054  32.386  60.489  1.00  0.00     0.039 A 
ENDBRANCH  19  20
ENDBRANCH  18  19
ENDBRANCH   1  18
TORSDOF 5
ENDMDL
