MODEL 1
REMARK VINA RESULT:     -11.5      0.000      0.000
REMARK  7 active torsions:
REMARK  status: ('A' for Active; 'I' for Inactive)
REMARK    1  A    between atoms: C_4  and  N_5 
REMARK       I    between atoms: N_5  and  C_6 
REMARK    2  A    between atoms: C_6  and  C_7 
REMARK    3  A    between atoms: C_7  and  N_8 
REMARK    4  A    between atoms: N_11  and  C_12 
REMARK    5  A    between atoms: C_12  and  C_13 
REMARK    6  A    between atoms: C_28  and  C_29 
REMARK       I    between atoms: C_29  and  N_30 
REMARK    7  A    between atoms: N_30  and  C_31 
ROOT
HETATM    1  N   UNL     1       6.729  26.978  53.726  1.00  0.00    -0.290 N 
HETATM    2  C   UNL     1       6.921  27.284  55.071  1.00  0.00     0.332 C 
HETATM    3  O   UNL     1       7.923  26.866  55.660  1.00  0.00    -0.246 OA
HETATM    4  N   UNL     1       5.931  28.016  55.707  1.00  0.00    -0.261 N 
HETATM    5  C   UNL     1       4.724  28.341  55.101  1.00  0.00     0.264 C 
HETATM    6  O   UNL     1       3.694  28.627  55.704  1.00  0.00    -0.267 OA
HETATM    7  C   UNL     1       4.673  28.248  53.636  1.00  0.00     0.059 A 
HETATM    8  C   UNL     1       5.665  27.534  52.968  1.00  0.00     0.056 A 
HETATM    9  C   UNL     1       3.578  28.783  52.951  1.00  0.00     0.020 A 
HETATM   10  C   UNL     1       3.448  28.570  51.582  1.00  0.00     0.018 A 
HETATM   11  C   UNL     1       4.413  27.830  50.883  1.00  0.00     0.034 A 
HETATM   12  C   UNL     1       5.540  27.351  51.577  1.00  0.00     0.048 A 
ENDROOT
BRANCH   1  13
HETATM   13  C   UNL     1       7.574  25.920  53.165  1.00  0.00     0.237 C 
BRANCH  13  14
HETATM   14  C   UNL     1       7.180  24.499  53.568  1.00  0.00     0.240 C 
HETATM   15  N   UNL     1       8.258  23.750  54.007  1.00  0.00    -0.325 N 
HETATM   16  H   UNL     1       9.178  24.127  53.777  1.00  0.00     0.169 HD
HETATM   17  O   UNL     1       6.006  24.140  53.505  1.00  0.00    -0.271 OA
BRANCH  15  18
HETATM   18  C   UNL     1       8.238  22.550  54.752  1.00  0.00     0.041 A 
HETATM   19  C   UNL     1       8.302  22.548  56.152  1.00  0.00     0.037 A 
HETATM   20  C   UNL     1       8.386  21.348  56.875  1.00  0.00    -0.060 A 
HETATM   21  C   UNL     1       8.529  21.357  58.369  1.00  0.00     0.048 C 
HETATM   22  C   UNL     1       8.402  20.136  56.183  1.00  0.00     0.007 A 
HETATM   23  C   UNL     1       8.321  20.123  54.791  1.00  0.00     0.009 A 
HETATM   24  C   UNL     1       8.237  21.320  54.061  1.00  0.00    -0.035 A 
HETATM   25  C   UNL     1       8.160  21.238  52.560  1.00  0.00     0.050 C 
ENDBRANCH  15  18
ENDBRANCH  13  14
ENDBRANCH   1  13
BRANCH   4  26
HETATM   26  C   UNL     1       5.976  28.074  57.166  1.00  0.00     0.175 C 
BRANCH  26  27
HETATM   27  C   UNL     1       6.640  29.310  57.737  1.00  0.00    -0.037 A 
HETATM   28  C   UNL     1       7.959  29.262  58.213  1.00  0.00     0.048 A 
HETATM   29  C   UNL     1       8.487  30.410  58.772  1.00  0.00     0.105 A 
HETATM   30  C   UNL     1       7.765  31.578  58.856  1.00  0.00     0.105 A 
HETATM   31  O   UNL     1       9.733  30.535  59.302  1.00  0.00    -0.323 OA
HETATM   32  O   UNL     1       8.465  32.583  59.447  1.00  0.00    -0.323 OA
HETATM   33  C   UNL     1       6.477  31.670  58.387  1.00  0.00     0.040 A 
HETATM   34  C   UNL     1       9.705  31.909  59.744  1.00  0.00     0.352 A 
HETATM   35  C   UNL     1       5.912  30.523  57.827  1.00  0.00     0.012 A 
ENDBRANCH  26  27
ENDBRANCH   4  26
BRANCH  11  36
HETATM   36  C   UNL     1       4.106  27.504  49.454  1.00  0.00     0.252 C 
HETATM   37  N   UNL     1       3.021  28.117  48.858  1.00  0.00    -0.352 N 
HETATM   38  H   UNL     1       2.435  28.745  49.384  1.00  0.00     0.163 HD
HETATM   39  O   UNL     1       4.865  26.765  48.832  1.00  0.00    -0.268 OA
BRANCH  37  40
HETATM   40  C   UNL     1       2.941  28.227  47.401  1.00  0.00     0.084 C 
HETATM   41  C   UNL     1       2.009  27.164  46.810  1.00  0.00     0.025 C 
HETATM   42  C   UNL     1       0.534  27.428  47.109  1.00  0.00     0.002 C 
HETATM   43  C   UNL     1       0.115  28.840  46.711  1.00  0.00     0.000 C 
HETATM   44  C   UNL     1       1.019  29.897  47.337  1.00  0.00     0.002 C 
HETATM   45  C   UNL     1       2.491  29.643  47.008  1.00  0.00     0.025 C 
ENDBRANCH  37  40
ENDBRANCH  11  36
TORSDOF 7
ENDMDL
MODEL 2
REMARK VINA RESULT:     -11.0      1.335      2.045
REMARK  7 active torsions:
REMARK  status: ('A' for Active; 'I' for Inactive)
REMARK    1  A    between atoms: C_4  and  N_5 
REMARK       I    between atoms: N_5  and  C_6 
REMARK    2  A    between atoms: C_6  and  C_7 
REMARK    3  A    between atoms: C_7  and  N_8 
REMARK    4  A    between atoms: N_11  and  C_12 
REMARK    5  A    between atoms: C_12  and  C_13 
REMARK    6  A    between atoms: C_28  and  C_29 
REMARK       I    between atoms: C_29  and  N_30 
REMARK    7  A    between atoms: N_30  and  C_31 
ROOT
HETATM    1  N   UNL     1       5.034  27.546  54.210  1.00  0.00    -0.290 N 
HETATM    2  C   UNL     1       5.041  28.013  55.522  1.00  0.00     0.332 C 
HETATM    3  O   UNL     1       5.285  27.236  56.451  1.00  0.00    -0.246 OA
HETATM    4  N   UNL     1       4.717  29.345  55.728  1.00  0.00    -0.261 N 
HETATM    5  C   UNL     1       4.274  30.180  54.711  1.00  0.00     0.264 C 
HETATM    6  O   UNL     1       3.623  31.206  54.884  1.00  0.00    -0.267 OA
HETATM    7  C   UNL     1       4.540  29.745  53.334  1.00  0.00     0.059 A 
HETATM    8  C   UNL     1       4.884  28.416  53.098  1.00  0.00     0.056 A 
HETATM    9  C   UNL     1       4.336  30.639  52.278  1.00  0.00     0.020 A 
HETATM   10  C   UNL     1       4.441  30.193  50.965  1.00  0.00     0.018 A 
HETATM   11  C   UNL     1       4.758  28.854  50.691  1.00  0.00     0.034 A 
HETATM   12  C   UNL     1       5.019  27.983  51.764  1.00  0.00     0.048 A 
ENDROOT
BRANCH   1  13
HETATM   13  C   UNL     1       5.015  26.092  54.029  1.00  0.00     0.237 C 
BRANCH  13  14
HETATM   14  C   UNL     1       6.390  25.423  54.041  1.00  0.00     0.240 C 
HETATM   15  N   UNL     1       6.419  24.277  54.817  1.00  0.00    -0.325 N 
HETATM   16  H   UNL     1       5.638  24.163  55.463  1.00  0.00     0.169 HD
HETATM   17  O   UNL     1       7.316  25.898  53.388  1.00  0.00    -0.271 OA
BRANCH  15  18
HETATM   18  C   UNL     1       7.382  23.243  54.804  1.00  0.00     0.041 A 
HETATM   19  C   UNL     1       7.497  22.353  53.726  1.00  0.00     0.037 A 
HETATM   20  C   UNL     1       8.385  21.268  53.770  1.00  0.00    -0.060 A 
HETATM   21  C   UNL     1       8.447  20.278  52.643  1.00  0.00     0.048 C 
HETATM   22  C   UNL     1       9.169  21.075  54.908  1.00  0.00     0.007 A 
HETATM   23  C   UNL     1       9.078  21.962  55.980  1.00  0.00     0.009 A 
HETATM   24  C   UNL     1       8.191  23.051  55.943  1.00  0.00    -0.035 A 
HETATM   25  C   UNL     1       8.134  23.967  57.137  1.00  0.00     0.050 C 
ENDBRANCH  15  18
ENDBRANCH  13  14
ENDBRANCH   1  13
BRANCH   4  26
HETATM   26  C   UNL     1       4.425  29.757  57.099  1.00  0.00     0.175 C 
BRANCH  26  27
HETATM   27  C   UNL     1       5.521  30.556  57.773  1.00  0.00    -0.037 A 
HETATM   28  C   UNL     1       6.865  30.168  57.663  1.00  0.00     0.048 A 
HETATM   29  C   UNL     1       7.810  30.907  58.348  1.00  0.00     0.105 A 
HETATM   30  C   UNL     1       7.468  32.001  59.109  1.00  0.00     0.105 A 
HETATM   31  O   UNL     1       9.147  30.661  58.373  1.00  0.00    -0.323 OA
HETATM   32  O   UNL     1       8.544  32.580  59.705  1.00  0.00    -0.323 OA
HETATM   33  C   UNL     1       6.165  32.422  59.230  1.00  0.00     0.040 A 
HETATM   34  C   UNL     1       9.603  31.713  59.249  1.00  0.00     0.352 A 
HETATM   35  C   UNL     1       5.186  31.688  58.558  1.00  0.00     0.012 A 
ENDBRANCH  26  27
ENDBRANCH   4  26
BRANCH  11  36
HETATM   36  C   UNL     1       4.680  28.423  49.259  1.00  0.00     0.252 C 
HETATM   37  N   UNL     1       3.461  27.999  48.766  1.00  0.00    -0.352 N 
HETATM   38  H   UNL     1       2.654  27.953  49.366  1.00  0.00     0.163 HD
HETATM   39  O   UNL     1       5.675  28.529  48.547  1.00  0.00    -0.268 OA
BRANCH  37  40
HETATM   40  C   UNL     1       3.197  28.022  47.327  1.00  0.00     0.084 C 
HETATM   41  C   UNL     1       2.195  26.936  46.924  1.00  0.00     0.025 C 
HETATM   42  C   UNL     1       0.770  27.232  47.391  1.00  0.00     0.002 C 
HETATM   43  C   UNL     1       0.307  28.622  46.965  1.00  0.00     0.000 C 
HETATM   44  C   UNL     1       1.286  29.705  47.407  1.00  0.00     0.002 C 
HETATM   45  C   UNL     1       2.704  29.417  46.909  1.00  0.00     0.025 C 
ENDBRANCH  37  40
ENDBRANCH  11  36
TORSDOF 7
ENDMDL
MODEL 3
REMARK VINA RESULT:     -11.0      2.265      7.923
REMARK  7 active torsions:
REMARK  status: ('A' for Active; 'I' for Inactive)
REMARK    1  A    between atoms: C_4  and  N_5 
REMARK       I    between atoms: N_5  and  C_6 
REMARK    2  A    between atoms: C_6  and  C_7 
REMARK    3  A    between atoms: C_7  and  N_8 
REMARK    4  A    between atoms: N_11  and  C_12 
REMARK    5  A    between atoms: C_12  and  C_13 
REMARK    6  A    between atoms: C_28  and  C_29 
REMARK       I    between atoms: C_29  and  N_30 
REMARK    7  A    between atoms: N_30  and  C_31 
ROOT
HETATM    1  N   UNL     1       5.477  28.804  56.978  1.00  0.00    -0.290 N 
HETATM    2  C   UNL     1       5.768  29.972  57.678  1.00  0.00     0.332 C 
HETATM    3  O   UNL     1       4.890  30.826  57.845  1.00  0.00    -0.246 OA
HETATM    4  N   UNL     1       7.071  30.145  58.119  1.00  0.00    -0.261 N 
HETATM    5  C   UNL     1       8.101  29.276  57.788  1.00  0.00     0.264 C 
HETATM    6  O   UNL     1       9.294  29.565  57.810  1.00  0.00    -0.267 OA
HETATM    7  C   UNL     1       7.714  27.945  57.298  1.00  0.00     0.059 A 
HETATM    8  C   UNL     1       6.407  27.738  56.865  1.00  0.00     0.056 A 
HETATM    9  C   UNL     1       8.687  26.948  57.174  1.00  0.00     0.020 A 
HETATM   10  C   UNL     1       8.361  25.737  56.573  1.00  0.00     0.018 A 
HETATM   11  C   UNL     1       7.061  25.505  56.099  1.00  0.00     0.034 A 
HETATM   12  C   UNL     1       6.080  26.496  56.287  1.00  0.00     0.048 A 
ENDROOT
BRANCH   1  13
HETATM   13  C   UNL     1       4.227  28.791  56.213  1.00  0.00     0.237 C 
BRANCH  13  14
HETATM   14  C   UNL     1       4.352  29.272  54.767  1.00  0.00     0.240 C 
HETATM   15  N   UNL     1       4.262  28.238  53.851  1.00  0.00    -0.325 N 
HETATM   16  H   UNL     1       4.380  27.299  54.234  1.00  0.00     0.169 HD
HETATM   17  O   UNL     1       4.491  30.468  54.522  1.00  0.00    -0.271 OA
BRANCH  15  18
HETATM   18  C   UNL     1       4.005  28.325  52.464  1.00  0.00     0.041 A 
HETATM   19  C   UNL     1       2.924  29.058  51.957  1.00  0.00     0.037 A 
HETATM   20  C   UNL     1       2.618  29.052  50.587  1.00  0.00    -0.060 A 
HETATM   21  C   UNL     1       1.414  29.780  50.064  1.00  0.00     0.048 C 
HETATM   22  C   UNL     1       3.410  28.302  49.717  1.00  0.00     0.007 A 
HETATM   23  C   UNL     1       4.500  27.582  50.205  1.00  0.00     0.009 A 
HETATM   24  C   UNL     1       4.811  27.584  51.575  1.00  0.00    -0.035 A 
HETATM   25  C   UNL     1       5.996  26.779  52.039  1.00  0.00     0.050 C 
ENDBRANCH  15  18
ENDBRANCH  13  14
ENDBRANCH   1  13
BRANCH   4  26
HETATM   26  C   UNL     1       7.451  31.480  58.575  1.00  0.00     0.175 C 
BRANCH  26  27
HETATM   27  C   UNL     1       7.481  31.658  60.078  1.00  0.00    -0.037 A 
HETATM   28  C   UNL     1       6.445  32.329  60.744  1.00  0.00     0.048 A 
HETATM   29  C   UNL     1       6.560  32.506  62.109  1.00  0.00     0.105 A 
HETATM   30  C   UNL     1       7.642  32.036  62.816  1.00  0.00     0.105 A 
HETATM   31  O   UNL     1       5.666  33.151  62.905  1.00  0.00    -0.323 OA
HETATM   32  O   UNL     1       7.564  32.323  64.143  1.00  0.00    -0.323 OA
HETATM   33  C   UNL     1       8.671  31.361  62.203  1.00  0.00     0.040 A 
HETATM   34  C   UNL     1       6.318  33.047  64.189  1.00  0.00     0.352 A 
HETATM   35  C   UNL     1       8.587  31.175  60.822  1.00  0.00     0.012 A 
ENDBRANCH  26  27
ENDBRANCH   4  26
BRANCH  11  36
HETATM   36  C   UNL     1       6.845  24.248  55.315  1.00  0.00     0.252 C 
HETATM   37  N   UNL     1       7.619  23.143  55.616  1.00  0.00    -0.352 N 
HETATM   38  H   UNL     1       8.331  23.196  56.327  1.00  0.00     0.163 HD
HETATM   39  O   UNL     1       5.942  24.209  54.483  1.00  0.00    -0.268 OA
BRANCH  37  40
HETATM   40  C   UNL     1       7.165  21.800  55.254  1.00  0.00     0.084 C 
HETATM   41  C   UNL     1       7.621  21.417  53.843  1.00  0.00     0.025 C 
HETATM   42  C   UNL     1       9.122  21.148  53.751  1.00  0.00     0.002 C 
HETATM   43  C   UNL     1       9.586  20.138  54.795  1.00  0.00     0.000 C 
HETATM   44  C   UNL     1       9.168  20.546  56.204  1.00  0.00     0.002 C 
HETATM   45  C   UNL     1       7.659  20.783  56.295  1.00  0.00     0.025 C 
ENDBRANCH  37  40
ENDBRANCH  11  36
TORSDOF 7
ENDMDL
MODEL 4
REMARK VINA RESULT:     -10.7      4.867      9.314
REMARK  7 active torsions:
REMARK  status: ('A' for Active; 'I' for Inactive)
REMARK    1  A    between atoms: C_4  and  N_5 
REMARK       I    between atoms: N_5  and  C_6 
REMARK    2  A    between atoms: C_6  and  C_7 
REMARK    3  A    between atoms: C_7  and  N_8 
REMARK    4  A    between atoms: N_11  and  C_12 
REMARK    5  A    between atoms: C_12  and  C_13 
REMARK    6  A    between atoms: C_28  and  C_29 
REMARK       I    between atoms: C_29  and  N_30 
REMARK    7  A    between atoms: N_30  and  C_31 
ROOT
HETATM    1  N   UNL     1       7.149  29.782  57.538  1.00  0.00    -0.290 N 
HETATM    2  C   UNL     1       6.341  30.887  57.279  1.00  0.00     0.332 C 
HETATM    3  O   UNL     1       6.739  32.021  57.568  1.00  0.00    -0.246 OA
HETATM    4  N   UNL     1       5.085  30.650  56.744  1.00  0.00    -0.261 N 
HETATM    5  C   UNL     1       4.564  29.373  56.579  1.00  0.00     0.264 C 
HETATM    6  O   UNL     1       3.368  29.113  56.488  1.00  0.00    -0.267 OA
HETATM    7  C   UNL     1       5.522  28.259  56.599  1.00  0.00     0.059 A 
HETATM    8  C   UNL     1       6.798  28.473  57.114  1.00  0.00     0.056 A 
HETATM    9  C   UNL     1       5.104  26.985  56.204  1.00  0.00     0.020 A 
HETATM   10  C   UNL     1       5.958  25.898  56.361  1.00  0.00     0.018 A 
HETATM   11  C   UNL     1       7.239  26.073  56.904  1.00  0.00     0.034 A 
HETATM   12  C   UNL     1       7.666  27.371  57.239  1.00  0.00     0.048 A 
ENDROOT
BRANCH   1  13
HETATM   13  C   UNL     1       8.298  30.000  58.421  1.00  0.00     0.237 C 
BRANCH  13  14
HETATM   14  C   UNL     1       8.228  31.270  59.268  1.00  0.00     0.240 C 
HETATM   15  N   UNL     1       7.307  31.176  60.297  1.00  0.00    -0.325 N 
HETATM   16  H   UNL     1       6.633  30.413  60.216  1.00  0.00     0.169 HD
HETATM   17  O   UNL     1       8.961  32.224  59.016  1.00  0.00    -0.271 OA
BRANCH  15  18
HETATM   18  C   UNL     1       7.203  31.987  61.449  1.00  0.00     0.041 A 
HETATM   19  C   UNL     1       6.493  33.196  61.440  1.00  0.00     0.037 A 
HETATM   20  C   UNL     1       6.484  34.043  62.559  1.00  0.00    -0.060 A 
HETATM   21  C   UNL     1       5.783  35.370  62.515  1.00  0.00     0.048 C 
HETATM   22  C   UNL     1       7.194  33.670  63.701  1.00  0.00     0.007 A 
HETATM   23  C   UNL     1       7.889  32.462  63.730  1.00  0.00     0.009 A 
HETATM   24  C   UNL     1       7.903  31.609  62.614  1.00  0.00    -0.035 A 
HETATM   25  C   UNL     1       8.680  30.323  62.706  1.00  0.00     0.050 C 
ENDBRANCH  15  18
ENDBRANCH  13  14
ENDBRANCH   1  13
BRANCH   4  26
HETATM   26  C   UNL     1       4.132  31.757  56.759  1.00  0.00     0.175 C 
BRANCH  26  27
HETATM   27  C   UNL     1       3.715  32.224  58.138  1.00  0.00    -0.037 A 
HETATM   28  C   UNL     1       3.464  33.581  58.392  1.00  0.00     0.048 A 
HETATM   29  C   UNL     1       3.141  33.948  59.684  1.00  0.00     0.105 A 
HETATM   30  C   UNL     1       3.050  33.028  60.702  1.00  0.00     0.105 A 
HETATM   31  O   UNL     1       2.890  35.215  60.111  1.00  0.00    -0.323 OA
HETATM   32  O   UNL     1       2.731  33.597  61.895  1.00  0.00    -0.323 OA
HETATM   33  C   UNL     1       3.275  31.688  60.491  1.00  0.00     0.040 A 
HETATM   34  C   UNL     1       2.650  34.986  61.516  1.00  0.00     0.352 A 
HETATM   35  C   UNL     1       3.613  31.287  59.197  1.00  0.00     0.012 A 
ENDBRANCH  26  27
ENDBRANCH   4  26
BRANCH  11  36
HETATM   36  C   UNL     1       8.022  24.830  57.196  1.00  0.00     0.252 C 
HETATM   37  N   UNL     1       7.857  23.739  56.365  1.00  0.00    -0.352 N 
HETATM   38  H   UNL     1       7.202  23.772  55.601  1.00  0.00     0.163 HD
HETATM   39  O   UNL     1       8.839  24.839  58.113  1.00  0.00    -0.268 OA
BRANCH  37  40
HETATM   40  C   UNL     1       8.889  22.704  56.289  1.00  0.00     0.084 C 
HETATM   41  C   UNL     1       8.372  21.358  56.804  1.00  0.00     0.025 C 
HETATM   42  C   UNL     1       7.365  20.701  55.860  1.00  0.00     0.002 C 
HETATM   43  C   UNL     1       7.901  20.599  54.436  1.00  0.00     0.000 C 
HETATM   44  C   UNL     1       8.375  21.951  53.910  1.00  0.00     0.002 C 
HETATM   45  C   UNL     1       9.405  22.587  54.845  1.00  0.00     0.025 C 
ENDBRANCH  37  40
ENDBRANCH  11  36
TORSDOF 7
ENDMDL
MODEL 5
REMARK VINA RESULT:     -10.7      2.271      3.084
REMARK  7 active torsions:
REMARK  status: ('A' for Active; 'I' for Inactive)
REMARK    1  A    between atoms: C_4  and  N_5 
REMARK       I    between atoms: N_5  and  C_6 
REMARK    2  A    between atoms: C_6  and  C_7 
REMARK    3  A    between atoms: C_7  and  N_8 
REMARK    4  A    between atoms: N_11  and  C_12 
REMARK    5  A    between atoms: C_12  and  C_13 
REMARK    6  A    between atoms: C_28  and  C_29 
REMARK       I    between atoms: C_29  and  N_30 
REMARK    7  A    between atoms: N_30  and  C_31 
ROOT
HETATM    1  N   UNL     1       6.393  28.572  55.487  1.00  0.00    -0.290 N 
HETATM    2  C   UNL     1       6.216  29.352  56.627  1.00  0.00     0.332 C 
HETATM    3  O   UNL     1       7.063  29.328  57.527  1.00  0.00    -0.246 OA
HETATM    4  N   UNL     1       5.049  30.094  56.719  1.00  0.00    -0.261 N 
HETATM    5  C   UNL     1       4.016  29.994  55.797  1.00  0.00     0.264 C 
HETATM    6  O   UNL     1       2.850  30.306  56.017  1.00  0.00    -0.267 OA
HETATM    7  C   UNL     1       4.344  29.391  54.498  1.00  0.00     0.059 A 
HETATM    8  C   UNL     1       5.520  28.654  54.371  1.00  0.00     0.056 A 
HETATM    9  C   UNL     1       3.424  29.475  53.449  1.00  0.00     0.020 A 
HETATM   10  C   UNL     1       3.660  28.782  52.266  1.00  0.00     0.018 A 
HETATM   11  C   UNL     1       4.819  28.006  52.115  1.00  0.00     0.034 A 
HETATM   12  C   UNL     1       5.764  27.983  53.157  1.00  0.00     0.048 A 
ENDROOT
BRANCH   1  13
HETATM   13  C   UNL     1       7.423  27.532  55.555  1.00  0.00     0.237 C 
BRANCH  13  14
HETATM   14  C   UNL     1       6.906  26.101  55.401  1.00  0.00     0.240 C 
HETATM   15  N   UNL     1       7.730  25.317  54.613  1.00  0.00    -0.325 N 
HETATM   16  H   UNL     1       8.409  25.826  54.044  1.00  0.00     0.169 HD
HETATM   17  O   UNL     1       5.873  25.752  55.967  1.00  0.00    -0.271 OA
BRANCH  15  18
HETATM   18  C   UNL     1       7.761  23.908  54.519  1.00  0.00     0.041 A 
HETATM   19  C   UNL     1       7.859  23.094  55.656  1.00  0.00     0.037 A 
HETATM   20  C   UNL     1       7.994  21.702  55.545  1.00  0.00    -0.060 A 
HETATM   21  C   UNL     1       8.174  20.845  56.765  1.00  0.00     0.048 C 
HETATM   22  C   UNL     1       8.026  21.120  54.277  1.00  0.00     0.007 A 
HETATM   23  C   UNL     1       7.911  21.916  53.138  1.00  0.00     0.009 A 
HETATM   24  C   UNL     1       7.777  23.310  53.242  1.00  0.00    -0.035 A 
HETATM   25  C   UNL     1       7.666  24.114  51.974  1.00  0.00     0.050 C 
ENDBRANCH  15  18
ENDBRANCH  13  14
ENDBRANCH   1  13
BRANCH   4  26
HETATM   26  C   UNL     1       4.720  30.662  58.024  1.00  0.00     0.175 C 
BRANCH  26  27
HETATM   27  C   UNL     1       4.507  32.161  58.034  1.00  0.00    -0.037 A 
HETATM   28  C   UNL     1       5.039  32.970  57.018  1.00  0.00     0.048 A 
HETATM   29  C   UNL     1       4.856  34.336  57.115  1.00  0.00     0.105 A 
HETATM   30  C   UNL     1       4.165  34.905  58.159  1.00  0.00     0.105 A 
HETATM   31  O   UNL     1       5.322  35.265  56.238  1.00  0.00    -0.323 OA
HETATM   32  O   UNL     1       4.108  36.262  58.069  1.00  0.00    -0.323 OA
HETATM   33  C   UNL     1       3.616  34.148  59.165  1.00  0.00     0.040 A 
HETATM   34  C   UNL     1       4.860  36.483  56.859  1.00  0.00     0.352 A 
HETATM   35  C   UNL     1       3.793  32.765  59.100  1.00  0.00     0.012 A 
ENDBRANCH  26  27
ENDBRANCH   4  26
BRANCH  11  36
HETATM   36  C   UNL     1       4.908  27.160  50.883  1.00  0.00     0.252 C 
HETATM   37  N   UNL     1       3.848  27.177  49.996  1.00  0.00    -0.352 N 
HETATM   38  H   UNL     1       3.025  27.723  50.193  1.00  0.00     0.163 HD
HETATM   39  O   UNL     1       5.942  26.538  50.657  1.00  0.00    -0.268 OA
BRANCH  37  40
HETATM   40  C   UNL     1       4.044  26.782  48.601  1.00  0.00     0.084 C 
HETATM   41  C   UNL     1       2.820  26.042  48.052  1.00  0.00     0.025 C 
HETATM   42  C   UNL     1       1.616  26.957  47.830  1.00  0.00     0.002 C 
HETATM   43  C   UNL     1       1.974  28.175  46.984  1.00  0.00     0.000 C 
HETATM   44  C   UNL     1       3.166  28.934  47.560  1.00  0.00     0.002 C 
HETATM   45  C   UNL     1       4.376  28.018  47.750  1.00  0.00     0.025 C 
ENDBRANCH  37  40
ENDBRANCH  11  36
TORSDOF 7
ENDMDL
MODEL 6
REMARK VINA RESULT:     -10.7      2.504      7.979
REMARK  7 active torsions:
REMARK  status: ('A' for Active; 'I' for Inactive)
REMARK    1  A    between atoms: C_4  and  N_5 
REMARK       I    between atoms: N_5  and  C_6 
REMARK    2  A    between atoms: C_6  and  C_7 
REMARK    3  A    between atoms: C_7  and  N_8 
REMARK    4  A    between atoms: N_11  and  C_12 
REMARK    5  A    between atoms: C_12  and  C_13 
REMARK    6  A    between atoms: C_28  and  C_29 
REMARK       I    between atoms: C_29  and  N_30 
REMARK    7  A    between atoms: N_30  and  C_31 
ROOT
HETATM    1  N   UNL     1       4.992  27.577  54.677  1.00  0.00    -0.290 N 
HETATM    2  C   UNL     1       4.404  28.839  54.642  1.00  0.00     0.332 C 
HETATM    3  O   UNL     1       3.433  29.045  53.905  1.00  0.00    -0.246 OA
HETATM    4  N   UNL     1       4.981  29.835  55.414  1.00  0.00    -0.261 N 
HETATM    5  C   UNL     1       6.171  29.659  56.107  1.00  0.00     0.264 C 
HETATM    6  O   UNL     1       6.910  30.569  56.470  1.00  0.00    -0.267 OA
HETATM    7  C   UNL     1       6.602  28.274  56.342  1.00  0.00     0.059 A 
HETATM    8  C   UNL     1       6.027  27.250  55.593  1.00  0.00     0.056 A 
HETATM    9  C   UNL     1       7.652  28.022  57.230  1.00  0.00     0.020 A 
HETATM   10  C   UNL     1       8.165  26.733  57.345  1.00  0.00     0.018 A 
HETATM   11  C   UNL     1       7.629  25.684  56.584  1.00  0.00     0.034 A 
HETATM   12  C   UNL     1       6.532  25.943  55.742  1.00  0.00     0.048 A 
ENDROOT
BRANCH   1  13
HETATM   13  C   UNL     1       4.618  26.646  53.609  1.00  0.00     0.237 C 
BRANCH  13  14
HETATM   14  C   UNL     1       5.246  26.942  52.247  1.00  0.00     0.240 C 
HETATM   15  N   UNL     1       4.323  27.400  51.322  1.00  0.00    -0.325 N 
HETATM   16  H   UNL     1       3.343  27.245  51.564  1.00  0.00     0.169 HD
HETATM   17  O   UNL     1       6.452  26.789  52.074  1.00  0.00    -0.271 OA
BRANCH  15  18
HETATM   18  C   UNL     1       4.571  28.071  50.104  1.00  0.00     0.041 A 
HETATM   19  C   UNL     1       4.965  29.416  50.068  1.00  0.00     0.037 A 
HETATM   20  C   UNL     1       5.108  30.100  48.851  1.00  0.00    -0.060 A 
HETATM   21  C   UNL     1       5.457  31.560  48.825  1.00  0.00     0.048 C 
HETATM   22  C   UNL     1       4.856  29.424  47.656  1.00  0.00     0.007 A 
HETATM   23  C   UNL     1       4.481  28.081  47.676  1.00  0.00     0.009 A 
HETATM   24  C   UNL     1       4.336  27.390  48.891  1.00  0.00    -0.035 A 
HETATM   25  C   UNL     1       3.921  25.944  48.844  1.00  0.00     0.050 C 
ENDBRANCH  15  18
ENDBRANCH  13  14
ENDBRANCH   1  13
BRANCH   4  26
HETATM   26  C   UNL     1       4.566  31.210  55.148  1.00  0.00     0.175 C 
BRANCH  26  27
HETATM   27  C   UNL     1       4.366  32.067  56.381  1.00  0.00    -0.037 A 
HETATM   28  C   UNL     1       3.700  31.561  57.508  1.00  0.00     0.048 A 
HETATM   29  C   UNL     1       3.502  32.411  58.579  1.00  0.00     0.105 A 
HETATM   30  C   UNL     1       3.947  33.713  58.567  1.00  0.00     0.105 A 
HETATM   31  O   UNL     1       2.859  32.097  59.735  1.00  0.00    -0.323 OA
HETATM   32  O   UNL     1       3.643  34.379  59.713  1.00  0.00    -0.323 OA
HETATM   33  C   UNL     1       4.617  34.241  57.489  1.00  0.00     0.040 A 
HETATM   34  C   UNL     1       2.936  33.354  60.440  1.00  0.00     0.352 A 
HETATM   35  C   UNL     1       4.823  33.409  56.388  1.00  0.00     0.012 A 
ENDBRANCH  26  27
ENDBRANCH   4  26
BRANCH  11  36
HETATM   36  C   UNL     1       8.351  24.373  56.643  1.00  0.00     0.252 C 
HETATM   37  N   UNL     1       8.175  23.479  55.605  1.00  0.00    -0.352 N 
HETATM   38  H   UNL     1       7.552  23.694  54.843  1.00  0.00     0.163 HD
HETATM   39  O   UNL     1       9.132  24.161  57.567  1.00  0.00    -0.268 OA
BRANCH  37  40
HETATM   40  C   UNL     1       9.168  22.435  55.351  1.00  0.00     0.084 C 
HETATM   41  C   UNL     1       8.757  21.104  55.989  1.00  0.00     0.025 C 
HETATM   42  C   UNL     1       7.582  20.436  55.275  1.00  0.00     0.002 C 
HETATM   43  C   UNL     1       7.829  20.298  53.776  1.00  0.00     0.000 C 
HETATM   44  C   UNL     1       8.196  21.634  53.137  1.00  0.00     0.002 C 
HETATM   45  C   UNL     1       9.391  22.282  53.838  1.00  0.00     0.025 C 
ENDBRANCH  37  40
ENDBRANCH  11  36
TORSDOF 7
ENDMDL
MODEL 7
REMARK VINA RESULT:     -10.6      1.223      2.091
REMARK  7 active torsions:
REMARK  status: ('A' for Active; 'I' for Inactive)
REMARK    1  A    between atoms: C_4  and  N_5 
REMARK       I    between atoms: N_5  and  C_6 
REMARK    2  A    between atoms: C_6  and  C_7 
REMARK    3  A    between atoms: C_7  and  N_8 
REMARK    4  A    between atoms: N_11  and  C_12 
REMARK    5  A    between atoms: C_12  and  C_13 
REMARK    6  A    between atoms: C_28  and  C_29 
REMARK       I    between atoms: C_29  and  N_30 
REMARK    7  A    between atoms: N_30  and  C_31 
ROOT
HETATM    1  N   UNL     1       6.656  27.872  53.529  1.00  0.00    -0.290 N 
HETATM    2  C   UNL     1       6.905  28.037  54.889  1.00  0.00     0.332 C 
HETATM    3  O   UNL     1       8.017  27.756  55.350  1.00  0.00    -0.246 OA
HETATM    4  N   UNL     1       5.855  28.469  55.683  1.00  0.00    -0.261 N 
HETATM    5  C   UNL     1       4.560  28.620  55.206  1.00  0.00     0.264 C 
HETATM    6  O   UNL     1       3.552  28.616  55.906  1.00  0.00    -0.267 OA
HETATM    7  C   UNL     1       4.397  28.707  53.748  1.00  0.00     0.059 A 
HETATM    8  C   UNL     1       5.443  28.295  52.925  1.00  0.00     0.056 A 
HETATM    9  C   UNL     1       3.164  29.094  53.215  1.00  0.00     0.020 A 
HETATM   10  C   UNL     1       2.956  29.035  51.841  1.00  0.00     0.018 A 
HETATM   11  C   UNL     1       3.978  28.598  50.985  1.00  0.00     0.034 A 
HETATM   12  C   UNL     1       5.232  28.270  51.532  1.00  0.00     0.048 A 
ENDROOT
BRANCH   1  13
HETATM   13  C   UNL     1       7.633  27.085  52.772  1.00  0.00     0.237 C 
BRANCH  13  14
HETATM   14  C   UNL     1       7.401  25.574  52.797  1.00  0.00     0.240 C 
HETATM   15  N   UNL     1       8.283  24.913  53.636  1.00  0.00    -0.325 N 
HETATM   16  H   UNL     1       9.104  25.447  53.920  1.00  0.00     0.169 HD
HETATM   17  O   UNL     1       6.494  25.075  52.136  1.00  0.00    -0.271 OA
BRANCH  15  18
HETATM   18  C   UNL     1       8.169  23.606  54.160  1.00  0.00     0.041 A 
HETATM   19  C   UNL     1       8.494  22.473  53.401  1.00  0.00     0.037 A 
HETATM   20  C   UNL     1       8.279  21.178  53.896  1.00  0.00    -0.060 A 
HETATM   21  C   UNL     1       8.560  19.973  53.047  1.00  0.00     0.048 C 
HETATM   22  C   UNL     1       7.734  21.019  55.171  1.00  0.00     0.007 A 
HETATM   23  C   UNL     1       7.423  22.136  55.945  1.00  0.00     0.009 A 
HETATM   24  C   UNL     1       7.635  23.436  55.455  1.00  0.00    -0.035 A 
HETATM   25  C   UNL     1       7.271  24.600  56.337  1.00  0.00     0.050 C 
ENDBRANCH  15  18
ENDBRANCH  13  14
ENDBRANCH   1  13
BRANCH   4  26
HETATM   26  C   UNL     1       6.018  28.349  57.130  1.00  0.00     0.175 C 
BRANCH  26  27
HETATM   27  C   UNL     1       6.654  29.547  57.803  1.00  0.00    -0.037 A 
HETATM   28  C   UNL     1       7.914  29.444  58.412  1.00  0.00     0.048 A 
HETATM   29  C   UNL     1       8.414  30.559  59.057  1.00  0.00     0.105 A 
HETATM   30  C   UNL     1       7.722  31.746  59.101  1.00  0.00     0.105 A 
HETATM   31  O   UNL     1       9.601  30.630  59.717  1.00  0.00    -0.323 OA
HETATM   32  O   UNL     1       8.385  32.713  59.792  1.00  0.00    -0.323 OA
HETATM   33  C   UNL     1       6.492  31.892  58.505  1.00  0.00     0.040 A 
HETATM   34  C   UNL     1       9.567  31.992  60.195  1.00  0.00     0.352 A 
HETATM   35  C   UNL     1       5.956  30.780  57.854  1.00  0.00     0.012 A 
ENDBRANCH  26  27
ENDBRANCH   4  26
BRANCH  11  36
HETATM   36  C   UNL     1       3.613  28.402  49.546  1.00  0.00     0.252 C 
HETATM   37  N   UNL     1       3.171  29.494  48.825  1.00  0.00    -0.352 N 
HETATM   38  H   UNL     1       3.069  30.393  49.268  1.00  0.00     0.163 HD
HETATM   39  O   UNL     1       3.786  27.301  49.030  1.00  0.00    -0.268 OA
BRANCH  37  40
HETATM   40  C   UNL     1       3.254  29.499  47.364  1.00  0.00     0.084 C 
HETATM   41  C   UNL     1       2.093  30.279  46.740  1.00  0.00     0.025 C 
HETATM   42  C   UNL     1       2.204  31.789  46.949  1.00  0.00     0.002 C 
HETATM   43  C   UNL     1       3.560  32.328  46.501  1.00  0.00     0.000 C 
HETATM   44  C   UNL     1       4.714  31.576  47.159  1.00  0.00     0.002 C 
HETATM   45  C   UNL     1       4.610  30.069  46.920  1.00  0.00     0.025 C 
ENDBRANCH  37  40
ENDBRANCH  11  36
TORSDOF 7
ENDMDL
MODEL 8
REMARK VINA RESULT:     -10.6      2.206      9.059
REMARK  7 active torsions:
REMARK  status: ('A' for Active; 'I' for Inactive)
REMARK    1  A    between atoms: C_4  and  N_5 
REMARK       I    between atoms: N_5  and  C_6 
REMARK    2  A    between atoms: C_6  and  C_7 
REMARK    3  A    between atoms: C_7  and  N_8 
REMARK    4  A    between atoms: N_11  and  C_12 
REMARK    5  A    between atoms: C_12  and  C_13 
REMARK    6  A    between atoms: C_28  and  C_29 
REMARK       I    between atoms: C_29  and  N_30 
REMARK    7  A    between atoms: N_30  and  C_31 
ROOT
HETATM    1  N   UNL     1       5.206  27.969  51.088  1.00  0.00    -0.290 N 
HETATM    2  C   UNL     1       4.800  28.076  49.761  1.00  0.00     0.332 C 
HETATM    3  O   UNL     1       5.308  27.350  48.900  1.00  0.00    -0.246 OA
HETATM    4  N   UNL     1       3.860  29.049  49.457  1.00  0.00    -0.261 N 
HETATM    5  C   UNL     1       3.414  29.982  50.383  1.00  0.00     0.264 C 
HETATM    6  O   UNL     1       2.909  31.064  50.097  1.00  0.00    -0.267 OA
HETATM    7  C   UNL     1       3.645  29.672  51.800  1.00  0.00     0.059 A 
HETATM    8  C   UNL     1       4.571  28.687  52.135  1.00  0.00     0.056 A 
HETATM    9  C   UNL     1       3.017  30.442  52.784  1.00  0.00     0.020 A 
HETATM   10  C   UNL     1       3.345  30.253  54.123  1.00  0.00     0.018 A 
HETATM   11  C   UNL     1       4.294  29.289  54.493  1.00  0.00     0.034 A 
HETATM   12  C   UNL     1       4.871  28.481  53.496  1.00  0.00     0.048 A 
ENDROOT
BRANCH   1  13
HETATM   13  C   UNL     1       6.436  27.211  51.341  1.00  0.00     0.237 C 
BRANCH  13  14
HETATM   14  C   UNL     1       6.221  25.788  51.856  1.00  0.00     0.240 C 
HETATM   15  N   UNL     1       7.389  25.205  52.315  1.00  0.00    -0.325 N 
HETATM   16  H   UNL     1       8.253  25.668  52.032  1.00  0.00     0.169 HD
HETATM   17  O   UNL     1       5.097  25.290  51.852  1.00  0.00    -0.271 OA
BRANCH  15  18
HETATM   18  C   UNL     1       7.527  24.069  53.144  1.00  0.00     0.041 A 
HETATM   19  C   UNL     1       7.959  22.834  52.640  1.00  0.00     0.037 A 
HETATM   20  C   UNL     1       7.992  21.689  53.450  1.00  0.00    -0.060 A 
HETATM   21  C   UNL     1       8.386  20.356  52.883  1.00  0.00     0.048 C 
HETATM   22  C   UNL     1       7.589  21.785  54.783  1.00  0.00     0.007 A 
HETATM   23  C   UNL     1       7.174  23.011  55.302  1.00  0.00     0.009 A 
HETATM   24  C   UNL     1       7.138  24.161  54.497  1.00  0.00    -0.035 A 
HETATM   25  C   UNL     1       6.671  25.452  55.116  1.00  0.00     0.050 C 
ENDBRANCH  15  18
ENDBRANCH  13  14
ENDBRANCH   1  13
BRANCH   4  26
HETATM   26  C   UNL     1       3.663  29.369  48.045  1.00  0.00     0.175 C 
BRANCH  26  27
HETATM   27  C   UNL     1       2.335  28.924  47.469  1.00  0.00    -0.037 A 
HETATM   28  C   UNL     1       1.365  29.863  47.089  1.00  0.00     0.048 A 
HETATM   29  C   UNL     1       0.154  29.390  46.622  1.00  0.00     0.105 A 
HETATM   30  C   UNL     1      -0.109  28.045  46.511  1.00  0.00     0.105 A 
HETATM   31  O   UNL     1      -0.903  30.154  46.235  1.00  0.00    -0.323 OA
HETATM   32  O   UNL     1      -1.360  27.793  46.040  1.00  0.00    -0.323 OA
HETATM   33  C   UNL     1       0.820  27.093  46.859  1.00  0.00     0.040 A 
HETATM   34  C   UNL     1      -1.864  29.135  45.886  1.00  0.00     0.352 A 
HETATM   35  C   UNL     1       2.050  27.540  47.344  1.00  0.00     0.012 A 
ENDBRANCH  26  27
ENDBRANCH   4  26
BRANCH  11  36
HETATM   36  C   UNL     1       4.711  29.273  55.932  1.00  0.00     0.252 C 
HETATM   37  N   UNL     1       5.854  28.578  56.277  1.00  0.00    -0.352 N 
HETATM   38  H   UNL     1       6.375  28.071  55.581  1.00  0.00     0.163 HD
HETATM   39  O   UNL     1       4.074  29.934  56.747  1.00  0.00    -0.268 OA
BRANCH  37  40
HETATM   40  C   UNL     1       6.569  28.897  57.514  1.00  0.00     0.084 C 
HETATM   41  C   UNL     1       7.385  27.701  58.013  1.00  0.00     0.025 C 
HETATM   42  C   UNL     1       8.610  27.408  57.148  1.00  0.00     0.002 C 
HETATM   43  C   UNL     1       9.477  28.648  56.949  1.00  0.00     0.000 C 
HETATM   44  C   UNL     1       8.669  29.824  56.409  1.00  0.00     0.002 C 
HETATM   45  C   UNL     1       7.462  30.130  57.298  1.00  0.00     0.025 C 
ENDBRANCH  37  40
ENDBRANCH  11  36
TORSDOF 7
ENDMDL
MODEL 9
REMARK VINA RESULT:     -10.5      2.257      9.251
REMARK  7 active torsions:
REMARK  status: ('A' for Active; 'I' for Inactive)
REMARK    1  A    between atoms: C_4  and  N_5 
REMARK       I    between atoms: N_5  and  C_6 
REMARK    2  A    between atoms: C_6  and  C_7 
REMARK    3  A    between atoms: C_7  and  N_8 
REMARK    4  A    between atoms: N_11  and  C_12 
REMARK    5  A    between atoms: C_12  and  C_13 
REMARK    6  A    between atoms: C_28  and  C_29 
REMARK       I    between atoms: C_29  and  N_30 
REMARK    7  A    between atoms: N_30  and  C_31 
ROOT
HETATM    1  N   UNL     1       4.396  28.261  53.036  1.00  0.00    -0.290 N 
HETATM    2  C   UNL     1       3.767  28.883  51.961  1.00  0.00     0.332 C 
HETATM    3  O   UNL     1       3.039  29.862  52.156  1.00  0.00    -0.246 OA
HETATM    4  N   UNL     1       3.953  28.329  50.704  1.00  0.00    -0.261 N 
HETATM    5  C   UNL     1       4.625  27.132  50.499  1.00  0.00     0.264 C 
HETATM    6  O   UNL     1       4.491  26.415  49.511  1.00  0.00    -0.267 OA
HETATM    7  C   UNL     1       5.492  26.664  51.589  1.00  0.00     0.059 A 
HETATM    8  C   UNL     1       5.339  27.215  52.859  1.00  0.00     0.056 A 
HETATM    9  C   UNL     1       6.373  25.603  51.360  1.00  0.00     0.020 A 
HETATM   10  C   UNL     1       7.087  25.056  52.421  1.00  0.00     0.018 A 
HETATM   11  C   UNL     1       6.936  25.568  53.719  1.00  0.00     0.034 A 
HETATM   12  C   UNL     1       6.091  26.675  53.921  1.00  0.00     0.048 A 
ENDROOT
BRANCH   1  13
HETATM   13  C   UNL     1       3.916  28.616  54.375  1.00  0.00     0.237 C 
BRANCH  13  14
HETATM   14  C   UNL     1       4.756  29.665  55.104  1.00  0.00     0.240 C 
HETATM   15  N   UNL     1       5.485  29.130  56.153  1.00  0.00    -0.325 N 
HETATM   16  H   UNL     1       5.192  28.204  56.464  1.00  0.00     0.169 HD
HETATM   17  O   UNL     1       4.752  30.834  54.726  1.00  0.00    -0.271 OA
BRANCH  15  18
HETATM   18  C   UNL     1       6.591  29.699  56.822  1.00  0.00     0.041 A 
HETATM   19  C   UNL     1       7.909  29.330  56.518  1.00  0.00     0.037 A 
HETATM   20  C   UNL     1       8.993  29.824  57.259  1.00  0.00    -0.060 A 
HETATM   21  C   UNL     1      10.393  29.365  56.974  1.00  0.00     0.048 C 
HETATM   22  C   UNL     1       8.751  30.702  58.317  1.00  0.00     0.007 A 
HETATM   23  C   UNL     1       7.447  31.091  58.619  1.00  0.00     0.009 A 
HETATM   24  C   UNL     1       6.357  30.600  57.881  1.00  0.00    -0.035 A 
HETATM   25  C   UNL     1       4.973  31.054  58.264  1.00  0.00     0.050 C 
ENDBRANCH  15  18
ENDBRANCH  13  14
ENDBRANCH   1  13
BRANCH   4  26
HETATM   26  C   UNL     1       3.064  28.781  49.636  1.00  0.00     0.175 C 
BRANCH  26  27
HETATM   27  C   UNL     1       3.687  29.751  48.654  1.00  0.00    -0.037 A 
HETATM   28  C   UNL     1       4.615  30.711  49.083  1.00  0.00     0.048 A 
HETATM   29  C   UNL     1       5.104  31.602  48.147  1.00  0.00     0.105 A 
HETATM   30  C   UNL     1       4.717  31.558  46.828  1.00  0.00     0.105 A 
HETATM   31  O   UNL     1       5.988  32.607  48.391  1.00  0.00    -0.323 OA
HETATM   32  O   UNL     1       5.307  32.527  46.077  1.00  0.00    -0.323 OA
HETATM   33  C   UNL     1       3.821  30.624  46.365  1.00  0.00     0.040 A 
HETATM   34  C   UNL     1       6.097  33.200  47.079  1.00  0.00     0.352 A 
HETATM   35  C   UNL     1       3.302  29.717  47.290  1.00  0.00     0.012 A 
ENDBRANCH  26  27
ENDBRANCH   4  26
BRANCH  11  36
HETATM   36  C   UNL     1       7.607  24.811  54.823  1.00  0.00     0.252 C 
HETATM   37  N   UNL     1       7.844  23.462  54.647  1.00  0.00    -0.352 N 
HETATM   38  H   UNL     1       7.543  22.995  53.806  1.00  0.00     0.163 HD
HETATM   39  O   UNL     1       7.994  25.421  55.817  1.00  0.00    -0.268 OA
BRANCH  37  40
HETATM   40  C   UNL     1       8.878  22.783  55.428  1.00  0.00     0.084 C 
HETATM   41  C   UNL     1       8.271  21.983  56.584  1.00  0.00     0.025 C 
HETATM   42  C   UNL     1       7.524  20.733  56.120  1.00  0.00     0.002 C 
HETATM   43  C   UNL     1       8.382  19.860  55.210  1.00  0.00     0.000 C 
HETATM   44  C   UNL     1       8.949  20.652  54.036  1.00  0.00     0.002 C 
HETATM   45  C   UNL     1       9.721  21.884  54.510  1.00  0.00     0.025 C 
ENDBRANCH  37  40
ENDBRANCH  11  36
TORSDOF 7
ENDMDL
MODEL 10
REMARK VINA RESULT:     -10.5      4.250      9.425
REMARK  7 active torsions:
REMARK  status: ('A' for Active; 'I' for Inactive)
REMARK    1  A    between atoms: C_4  and  N_5 
REMARK       I    between atoms: N_5  and  C_6 
REMARK    2  A    between atoms: C_6  and  C_7 
REMARK    3  A    between atoms: C_7  and  N_8 
REMARK    4  A    between atoms: N_11  and  C_12 
REMARK    5  A    between atoms: C_12  and  C_13 
REMARK    6  A    between atoms: C_28  and  C_29 
REMARK       I    between atoms: C_29  and  N_30 
REMARK    7  A    between atoms: N_30  and  C_31 
ROOT
HETATM    1  N   UNL     1       5.901  30.666  57.122  1.00  0.00    -0.290 N 
HETATM    2  C   UNL     1       6.285  31.648  58.032  1.00  0.00     0.332 C 
HETATM    3  O   UNL     1       5.734  32.754  58.013  1.00  0.00    -0.246 OA
HETATM    4  N   UNL     1       7.324  31.346  58.899  1.00  0.00    -0.261 N 
HETATM    5  C   UNL     1       8.062  30.173  58.812  1.00  0.00     0.264 C 
HETATM    6  O   UNL     1       9.193  30.023  59.267  1.00  0.00    -0.267 OA
HETATM    7  C   UNL     1       7.466  29.070  58.045  1.00  0.00     0.059 A 
HETATM    8  C   UNL     1       6.410  29.341  57.179  1.00  0.00     0.056 A 
HETATM    9  C   UNL     1       8.038  27.796  58.115  1.00  0.00     0.020 A 
HETATM   10  C   UNL     1       7.574  26.784  57.281  1.00  0.00     0.018 A 
HETATM   11  C   UNL     1       6.531  27.031  56.376  1.00  0.00     0.034 A 
HETATM   12  C   UNL     1       5.926  28.301  56.362  1.00  0.00     0.048 A 
ENDROOT
BRANCH   1  13
HETATM   13  C   UNL     1       5.077  31.103  55.992  1.00  0.00     0.237 C 
BRANCH  13  14
HETATM   14  C   UNL     1       3.696  31.640  56.372  1.00  0.00     0.240 C 
HETATM   15  N   UNL     1       3.463  32.911  55.873  1.00  0.00    -0.325 N 
HETATM   16  H   UNL     1       4.290  33.416  55.552  1.00  0.00     0.169 HD
HETATM   17  O   UNL     1       2.922  30.951  57.031  1.00  0.00    -0.271 OA
BRANCH  15  18
HETATM   18  C   UNL     1       2.225  33.577  55.735  1.00  0.00     0.041 A 
HETATM   19  C   UNL     1       1.279  33.187  54.776  1.00  0.00     0.037 A 
HETATM   20  C   UNL     1       0.099  33.920  54.578  1.00  0.00    -0.060 A 
HETATM   21  C   UNL     1      -0.872  33.538  53.499  1.00  0.00     0.048 C 
HETATM   22  C   UNL     1      -0.135  35.056  55.355  1.00  0.00     0.007 A 
HETATM   23  C   UNL     1       0.788  35.444  56.324  1.00  0.00     0.009 A 
HETATM   24  C   UNL     1       1.972  34.716  56.527  1.00  0.00    -0.035 A 
HETATM   25  C   UNL     1       2.932  35.193  57.584  1.00  0.00     0.050 C 
ENDBRANCH  15  18
ENDBRANCH  13  14
ENDBRANCH   1  13
BRANCH   4  26
HETATM   26  C   UNL     1       7.927  32.456  59.632  1.00  0.00     0.175 C 
BRANCH  26  27
HETATM   27  C   UNL     1       7.474  32.593  61.070  1.00  0.00    -0.037 A 
HETATM   28  C   UNL     1       6.186  33.056  61.377  1.00  0.00     0.048 A 
HETATM   29  C   UNL     1       5.854  33.211  62.709  1.00  0.00     0.105 A 
HETATM   30  C   UNL     1       6.739  32.914  63.720  1.00  0.00     0.105 A 
HETATM   31  O   UNL     1       4.665  33.668  63.185  1.00  0.00    -0.323 OA
HETATM   32  O   UNL     1       6.219  33.146  64.955  1.00  0.00    -0.323 OA
HETATM   33  C   UNL     1       8.005  32.445  63.461  1.00  0.00     0.040 A 
HETATM   34  C   UNL     1       4.910  33.641  64.607  1.00  0.00     0.352 A 
HETATM   35  C   UNL     1       8.373  32.287  62.124  1.00  0.00     0.012 A 
ENDBRANCH  26  27
ENDBRANCH   4  26
BRANCH  11  36
HETATM   36  C   UNL     1       6.214  25.939  55.401  1.00  0.00     0.252 C 
HETATM   37  N   UNL     1       7.110  24.897  55.266  1.00  0.00    -0.352 N 
HETATM   38  H   UNL     1       7.970  24.890  55.791  1.00  0.00     0.163 HD
HETATM   39  O   UNL     1       5.139  25.961  54.807  1.00  0.00    -0.268 OA
BRANCH  37  40
HETATM   40  C   UNL     1       6.673  23.610  54.725  1.00  0.00     0.084 C 
HETATM   41  C   UNL     1       6.891  23.535  53.211  1.00  0.00     0.025 C 
HETATM   42  C   UNL     1       8.365  23.420  52.823  1.00  0.00     0.002 C 
HETATM   43  C   UNL     1       9.061  22.278  53.558  1.00  0.00     0.000 C 
HETATM   44  C   UNL     1       8.878  22.381  55.069  1.00  0.00     0.002 C 
HETATM   45  C   UNL     1       7.399  22.465  55.450  1.00  0.00     0.025 C 
ENDBRANCH  37  40
ENDBRANCH  11  36
TORSDOF 7
ENDMDL
