MODEL 1
REMARK VINA RESULT:      -9.2      0.000      0.000
REMARK  7 active torsions:
REMARK  status: ('A' for Active; 'I' for Inactive)
REMARK    1  A    between atoms: C_2  and  C_3 
REMARK       I    between atoms: C_3  and  N_4 
REMARK    2  A    between atoms: N_4  and  C_5 
REMARK    3  A    between atoms: C_7  and  C_8 
REMARK       I    between atoms: C_8  and  N_9 
REMARK    4  A    between atoms: N_9  and  C_10 
REMARK    5  A    between atoms: C_10  and  C_11 
REMARK    6  A    between atoms: C_13  and  O_14 
REMARK    7  A    between atoms: O_14  and  C_15 
ROOT
HETATM    1  C   UNL     1       6.629  26.931  55.175  1.00  0.00     0.252 C 
HETATM    2  N   UNL     1       7.505  27.497  56.076  1.00  0.00    -0.353 N 
HETATM    3  O   UNL     1       5.468  27.307  55.050  1.00  0.00    -0.268 OA
HETATM    4  H   UNL     1       8.440  27.134  56.193  1.00  0.00     0.163 HD
ENDROOT
BRANCH   1   5
HETATM    5  C   UNL     1       7.133  25.802  54.339  1.00  0.00     0.034 A 
HETATM    6  C   UNL     1       7.558  24.581  54.885  1.00  0.00     0.046 A 
HETATM    7  C   UNL     1       8.025  23.556  54.054  1.00  0.00     0.035 A 
HETATM    8  C   UNL     1       8.090  23.774  52.672  1.00  0.00     0.029 A 
HETATM    9  C   UNL     1       7.686  24.991  52.123  1.00  0.00     0.003 A 
HETATM   10  C   UNL     1       7.209  26.001  52.954  1.00  0.00     0.017 A 
BRANCH   7  11
HETATM   11  N   UNL     1       8.455  22.297  54.522  1.00  0.00    -0.327 N 
HETATM   12  C   UNL     1       8.188  21.054  53.969  1.00  0.00     0.221 C 
HETATM   13  O   UNL     1       7.553  20.838  52.944  1.00  0.00    -0.273 OA
HETATM   14  H   UNL     1       9.058  22.308  55.335  1.00  0.00     0.169 HD
BRANCH  12  15
HETATM   15  C   UNL     1       8.817  19.938  54.791  1.00  0.00     0.098 C 
HETATM   16  C   UNL     1       8.849  20.252  56.276  1.00  0.00     0.014 C 
ENDBRANCH  12  15
ENDBRANCH   7  11
ENDBRANCH   1   5
BRANCH   2  17
HETATM   17  C   UNL     1       7.127  28.624  56.903  1.00  0.00     0.161 C 
BRANCH  17  18
HETATM   18  C   UNL     1       8.301  29.523  57.186  1.00  0.00    -0.035 A 
HETATM   19  C   UNL     1       8.246  30.481  58.203  1.00  0.00     0.066 A 
HETATM   20  C   UNL     1       9.357  31.277  58.430  1.00  0.00     0.164 A 
HETATM   21  N   UNL     1      10.515  31.172  57.747  1.00  0.00    -0.237 NA
HETATM   22  C   UNL     1      10.559  30.223  56.788  1.00  0.00     0.120 A 
HETATM   23  C   UNL     1       9.496  29.388  56.474  1.00  0.00     0.028 A 
BRANCH  20  24
HETATM   24  O   UNL     1       9.240  32.234  59.420  1.00  0.00    -0.329 OA
BRANCH  24  25
HETATM   25  C   UNL     1       8.558  31.822  60.624  1.00  0.00     0.130 C 
HETATM   26  C   UNL     1       9.376  31.856  61.943  1.00  0.00     0.032 C 
HETATM   27  C   UNL     1       8.116  32.400  62.639  1.00  0.00     0.005 C 
HETATM   28  C   UNL     1       7.660  32.914  61.263  1.00  0.00     0.032 C 
ENDBRANCH  24  25
ENDBRANCH  20  24
ENDBRANCH  17  18
ENDBRANCH   2  17
TORSDOF 7
ENDMDL
MODEL 2
REMARK VINA RESULT:      -9.2      1.540      9.282
REMARK  7 active torsions:
REMARK  status: ('A' for Active; 'I' for Inactive)
REMARK    1  A    between atoms: C_2  and  C_3 
REMARK       I    between atoms: C_3  and  N_4 
REMARK    2  A    between atoms: N_4  and  C_5 
REMARK    3  A    between atoms: C_7  and  C_8 
REMARK       I    between atoms: C_8  and  N_9 
REMARK    4  A    between atoms: N_9  and  C_10 
REMARK    5  A    between atoms: C_10  and  C_11 
REMARK    6  A    between atoms: C_13  and  O_14 
REMARK    7  A    between atoms: O_14  and  C_15 
ROOT
HETATM    1  C   UNL     1       7.548  27.627  56.996  1.00  0.00     0.252 C 
HETATM    2  N   UNL     1       6.756  27.859  55.892  1.00  0.00    -0.353 N 
HETATM    3  O   UNL     1       7.535  26.567  57.614  1.00  0.00    -0.268 OA
HETATM    4  H   UNL     1       6.751  28.759  55.434  1.00  0.00     0.163 HD
ENDROOT
BRANCH   1   5
HETATM    5  C   UNL     1       8.439  28.734  57.452  1.00  0.00     0.034 A 
HETATM    6  C   UNL     1       8.173  29.504  58.595  1.00  0.00     0.046 A 
HETATM    7  C   UNL     1       9.042  30.533  58.975  1.00  0.00     0.035 A 
HETATM    8  C   UNL     1      10.166  30.805  58.184  1.00  0.00     0.029 A 
HETATM    9  C   UNL     1      10.428  30.057  57.037  1.00  0.00     0.003 A 
HETATM   10  C   UNL     1       9.567  29.024  56.673  1.00  0.00     0.017 A 
BRANCH   7  11
HETATM   11  N   UNL     1       8.853  31.341  60.116  1.00  0.00    -0.327 N 
HETATM   12  C   UNL     1       9.065  30.993  61.441  1.00  0.00     0.221 C 
HETATM   13  O   UNL     1       9.491  29.920  61.850  1.00  0.00    -0.273 OA
HETATM   14  H   UNL     1       8.566  32.296  59.941  1.00  0.00     0.169 HD
BRANCH  12  15
HETATM   15  C   UNL     1       8.721  32.144  62.375  1.00  0.00     0.098 C 
HETATM   16  C   UNL     1       7.234  32.447  62.409  1.00  0.00     0.014 C 
ENDBRANCH  12  15
ENDBRANCH   7  11
ENDBRANCH   1   5
BRANCH   2  17
HETATM   17  C   UNL     1       5.890  26.837  55.346  1.00  0.00     0.161 C 
BRANCH  17  18
HETATM   18  C   UNL     1       6.644  25.890  54.450  1.00  0.00    -0.035 A 
HETATM   19  C   UNL     1       6.624  24.510  54.680  1.00  0.00     0.066 A 
HETATM   20  C   UNL     1       7.327  23.682  53.821  1.00  0.00     0.164 A 
HETATM   21  N   UNL     1       8.017  24.117  52.747  1.00  0.00    -0.237 NA
HETATM   22  C   UNL     1       8.001  25.448  52.525  1.00  0.00     0.120 A 
HETATM   23  C   UNL     1       7.342  26.361  53.335  1.00  0.00     0.028 A 
BRANCH  20  24
HETATM   24  O   UNL     1       7.308  22.331  54.112  1.00  0.00    -0.329 OA
BRANCH  24  25
HETATM   25  C   UNL     1       7.884  21.946  55.379  1.00  0.00     0.130 C 
HETATM   26  C   UNL     1       7.630  20.490  55.854  1.00  0.00     0.032 C 
HETATM   27  C   UNL     1       9.088  20.461  56.345  1.00  0.00     0.005 C 
HETATM   28  C   UNL     1       9.386  21.564  55.315  1.00  0.00     0.032 C 
ENDBRANCH  24  25
ENDBRANCH  20  24
ENDBRANCH  17  18
ENDBRANCH   2  17
TORSDOF 7
ENDMDL
MODEL 3
REMARK VINA RESULT:      -8.9      3.606      7.020
REMARK  7 active torsions:
REMARK  status: ('A' for Active; 'I' for Inactive)
REMARK    1  A    between atoms: C_2  and  C_3 
REMARK       I    between atoms: C_3  and  N_4 
REMARK    2  A    between atoms: N_4  and  C_5 
REMARK    3  A    between atoms: C_7  and  C_8 
REMARK       I    between atoms: C_8  and  N_9 
REMARK    4  A    between atoms: N_9  and  C_10 
REMARK    5  A    between atoms: C_10  and  C_11 
REMARK    6  A    between atoms: C_13  and  O_14 
REMARK    7  A    between atoms: O_14  and  C_15 
ROOT
HETATM    1  C   UNL     1       9.093  31.496  59.785  1.00  0.00     0.252 C 
HETATM    2  N   UNL     1       9.059  31.097  61.103  1.00  0.00    -0.353 N 
HETATM    3  O   UNL     1       9.099  32.676  59.446  1.00  0.00    -0.268 OA
HETATM    4  H   UNL     1       9.005  30.119  61.351  1.00  0.00     0.163 HD
ENDROOT
BRANCH   1   5
HETATM    5  C   UNL     1       9.106  30.430  58.740  1.00  0.00     0.034 A 
HETATM    6  C   UNL     1       8.090  29.469  58.622  1.00  0.00     0.046 A 
HETATM    7  C   UNL     1       8.154  28.489  57.625  1.00  0.00     0.035 A 
HETATM    8  C   UNL     1       9.259  28.460  56.764  1.00  0.00     0.029 A 
HETATM    9  C   UNL     1      10.282  29.401  56.887  1.00  0.00     0.003 A 
HETATM   10  C   UNL     1      10.204  30.383  57.872  1.00  0.00     0.017 A 
BRANCH   7  11
HETATM   11  N   UNL     1       7.168  27.498  57.430  1.00  0.00    -0.327 N 
HETATM   12  C   UNL     1       5.882  27.672  56.943  1.00  0.00     0.221 C 
HETATM   13  O   UNL     1       5.387  28.725  56.561  1.00  0.00    -0.273 OA
HETATM   14  H   UNL     1       7.448  26.547  57.636  1.00  0.00     0.169 HD
BRANCH  12  15
HETATM   15  C   UNL     1       5.123  26.353  56.908  1.00  0.00     0.098 C 
HETATM   16  C   UNL     1       6.028  25.164  56.637  1.00  0.00     0.014 C 
ENDBRANCH  12  15
ENDBRANCH   7  11
ENDBRANCH   1   5
BRANCH   2  17
HETATM   17  C   UNL     1       9.087  32.052  62.191  1.00  0.00     0.161 C 
BRANCH  17  18
HETATM   18  C   UNL     1       7.737  32.191  62.843  1.00  0.00    -0.035 A 
HETATM   19  C   UNL     1       7.546  33.051  63.929  1.00  0.00     0.066 A 
HETATM   20  C   UNL     1       6.282  33.149  64.487  1.00  0.00     0.164 A 
HETATM   21  N   UNL     1       5.200  32.485  64.031  1.00  0.00    -0.237 NA
HETATM   22  C   UNL     1       5.398  31.681  62.965  1.00  0.00     0.120 A 
HETATM   23  C   UNL     1       6.626  31.502  62.346  1.00  0.00     0.028 A 
BRANCH  20  24
HETATM   24  O   UNL     1       6.153  33.983  65.582  1.00  0.00    -0.329 OA
BRANCH  24  25
HETATM   25  C   UNL     1       4.803  34.256  66.015  1.00  0.00     0.130 C 
HETATM   26  C   UNL     1       4.635  34.968  67.384  1.00  0.00     0.032 C 
HETATM   27  C   UNL     1       3.506  35.796  66.746  1.00  0.00     0.005 C 
HETATM   28  C   UNL     1       4.167  35.523  65.384  1.00  0.00     0.032 C 
ENDBRANCH  24  25
ENDBRANCH  20  24
ENDBRANCH  17  18
ENDBRANCH   2  17
TORSDOF 7
ENDMDL
MODEL 4
REMARK VINA RESULT:      -8.9      2.242      3.915
REMARK  7 active torsions:
REMARK  status: ('A' for Active; 'I' for Inactive)
REMARK    1  A    between atoms: C_2  and  C_3 
REMARK       I    between atoms: C_3  and  N_4 
REMARK    2  A    between atoms: N_4  and  C_5 
REMARK    3  A    between atoms: C_7  and  C_8 
REMARK       I    between atoms: C_8  and  N_9 
REMARK    4  A    between atoms: N_9  and  C_10 
REMARK    5  A    between atoms: C_10  and  C_11 
REMARK    6  A    between atoms: C_13  and  O_14 
REMARK    7  A    between atoms: O_14  and  C_15 
ROOT
HETATM    1  C   UNL     1       7.333  26.077  56.013  1.00  0.00     0.252 C 
HETATM    2  N   UNL     1       7.856  27.328  56.255  1.00  0.00    -0.353 N 
HETATM    3  O   UNL     1       6.870  25.366  56.900  1.00  0.00    -0.268 OA
HETATM    4  H   UNL     1       8.276  27.870  55.513  1.00  0.00     0.163 HD
ENDROOT
BRANCH   1   5
HETATM    5  C   UNL     1       7.360  25.577  54.607  1.00  0.00     0.034 A 
HETATM    6  C   UNL     1       6.734  26.251  53.547  1.00  0.00     0.046 A 
HETATM    7  C   UNL     1       6.787  25.735  52.248  1.00  0.00     0.035 A 
HETATM    8  C   UNL     1       7.449  24.521  52.021  1.00  0.00     0.029 A 
HETATM    9  C   UNL     1       8.058  23.835  53.072  1.00  0.00     0.003 A 
HETATM   10  C   UNL     1       8.014  24.363  54.360  1.00  0.00     0.017 A 
BRANCH   7  11
HETATM   11  N   UNL     1       6.198  26.359  51.128  1.00  0.00    -0.327 N 
HETATM   12  C   UNL     1       5.106  27.214  51.115  1.00  0.00     0.221 C 
HETATM   13  O   UNL     1       4.481  27.606  52.092  1.00  0.00    -0.273 OA
HETATM   14  H   UNL     1       6.649  26.190  50.237  1.00  0.00     0.169 HD
BRANCH  12  15
HETATM   15  C   UNL     1       4.768  27.654  49.698  1.00  0.00     0.098 C 
HETATM   16  C   UNL     1       4.606  26.483  48.744  1.00  0.00     0.014 C 
ENDBRANCH  12  15
ENDBRANCH   7  11
ENDBRANCH   1   5
BRANCH   2  17
HETATM   17  C   UNL     1       7.839  27.920  57.575  1.00  0.00     0.161 C 
BRANCH  17  18
HETATM   18  C   UNL     1       8.748  29.118  57.659  1.00  0.00    -0.035 A 
HETATM   19  C   UNL     1       8.481  30.165  58.547  1.00  0.00     0.066 A 
HETATM   20  C   UNL     1       9.353  31.240  58.592  1.00  0.00     0.164 A 
HETATM   21  N   UNL     1      10.474  31.335  57.848  1.00  0.00    -0.237 NA
HETATM   22  C   UNL     1      10.730  30.303  57.017  1.00  0.00     0.120 A 
HETATM   23  C   UNL     1       9.911  29.191  56.887  1.00  0.00     0.028 A 
BRANCH  20  24
HETATM   24  O   UNL     1       9.025  32.267  59.457  1.00  0.00    -0.329 OA
BRANCH  24  25
HETATM   25  C   UNL     1       8.346  31.881  60.671  1.00  0.00     0.130 C 
HETATM   26  C   UNL     1       9.187  31.874  61.976  1.00  0.00     0.032 C 
HETATM   27  C   UNL     1       7.964  32.470  62.695  1.00  0.00     0.005 C 
HETATM   28  C   UNL     1       7.508  33.009  61.328  1.00  0.00     0.032 C 
ENDBRANCH  24  25
ENDBRANCH  20  24
ENDBRANCH  17  18
ENDBRANCH   2  17
TORSDOF 7
ENDMDL
MODEL 5
REMARK VINA RESULT:      -8.6      2.195      9.632
REMARK  7 active torsions:
REMARK  status: ('A' for Active; 'I' for Inactive)
REMARK    1  A    between atoms: C_2  and  C_3 
REMARK       I    between atoms: C_3  and  N_4 
REMARK    2  A    between atoms: N_4  and  C_5 
REMARK    3  A    between atoms: C_7  and  C_8 
REMARK       I    between atoms: C_8  and  N_9 
REMARK    4  A    between atoms: N_9  and  C_10 
REMARK    5  A    between atoms: C_10  and  C_11 
REMARK    6  A    between atoms: C_13  and  O_14 
REMARK    7  A    between atoms: O_14  and  C_15 
ROOT
HETATM    1  C   UNL     1       5.882  29.882  55.861  1.00  0.00     0.252 C 
HETATM    2  N   UNL     1       7.069  29.206  55.682  1.00  0.00    -0.353 N 
HETATM    3  O   UNL     1       4.894  29.691  55.159  1.00  0.00    -0.268 OA
HETATM    4  H   UNL     1       7.881  29.420  56.243  1.00  0.00     0.163 HD
ENDROOT
BRANCH   1   5
HETATM    5  C   UNL     1       5.825  30.900  56.952  1.00  0.00     0.034 A 
HETATM    6  C   UNL     1       6.549  30.776  58.148  1.00  0.00     0.046 A 
HETATM    7  C   UNL     1       6.455  31.760  59.139  1.00  0.00     0.035 A 
HETATM    8  C   UNL     1       5.607  32.856  58.935  1.00  0.00     0.029 A 
HETATM    9  C   UNL     1       4.870  32.977  57.757  1.00  0.00     0.003 A 
HETATM   10  C   UNL     1       4.980  32.003  56.769  1.00  0.00     0.017 A 
BRANCH   7  11
HETATM   11  N   UNL     1       7.160  31.717  60.360  1.00  0.00    -0.327 N 
HETATM   12  C   UNL     1       8.437  32.193  60.614  1.00  0.00     0.221 C 
HETATM   13  O   UNL     1       9.167  32.772  59.819  1.00  0.00    -0.273 OA
HETATM   14  H   UNL     1       6.659  31.326  61.148  1.00  0.00     0.169 HD
BRANCH  12  15
HETATM   15  C   UNL     1       8.845  31.932  62.057  1.00  0.00     0.098 C 
HETATM   16  C   UNL     1       7.872  32.529  63.058  1.00  0.00     0.014 C 
ENDBRANCH  12  15
ENDBRANCH   7  11
ENDBRANCH   1   5
BRANCH   2  17
HETATM   17  C   UNL     1       7.214  28.171  54.681  1.00  0.00     0.161 C 
BRANCH  17  18
HETATM   18  C   UNL     1       7.366  26.810  55.308  1.00  0.00    -0.035 A 
HETATM   19  C   UNL     1       7.111  25.646  54.575  1.00  0.00     0.066 A 
HETATM   20  C   UNL     1       7.274  24.419  55.195  1.00  0.00     0.164 A 
HETATM   21  N   UNL     1       7.696  24.264  56.466  1.00  0.00    -0.237 NA
HETATM   22  C   UNL     1       7.964  25.397  57.149  1.00  0.00     0.120 A 
HETATM   23  C   UNL     1       7.817  26.672  56.624  1.00  0.00     0.028 A 
BRANCH  20  24
HETATM   24  O   UNL     1       6.973  23.300  54.440  1.00  0.00    -0.329 OA
BRANCH  24  25
HETATM   25  C   UNL     1       8.032  22.331  54.292  1.00  0.00     0.130 C 
HETATM   26  C   UNL     1       7.858  20.979  55.035  1.00  0.00     0.032 C 
HETATM   27  C   UNL     1       8.442  20.289  53.791  1.00  0.00     0.005 C 
HETATM   28  C   UNL     1       7.974  21.508  52.978  1.00  0.00     0.032 C 
ENDBRANCH  24  25
ENDBRANCH  20  24
ENDBRANCH  17  18
ENDBRANCH   2  17
TORSDOF 7
ENDMDL
MODEL 6
REMARK VINA RESULT:      -8.4      2.645     10.274
REMARK  7 active torsions:
REMARK  status: ('A' for Active; 'I' for Inactive)
REMARK    1  A    between atoms: C_2  and  C_3 
REMARK       I    between atoms: C_3  and  N_4 
REMARK    2  A    between atoms: N_4  and  C_5 
REMARK    3  A    between atoms: C_7  and  C_8 
REMARK       I    between atoms: C_8  and  N_9 
REMARK    4  A    between atoms: N_9  and  C_10 
REMARK    5  A    between atoms: C_10  and  C_11 
REMARK    6  A    between atoms: C_13  and  O_14 
REMARK    7  A    between atoms: O_14  and  C_15 
ROOT
HETATM    1  C   UNL     1       8.920  30.347  58.886  1.00  0.00     0.252 C 
HETATM    2  N   UNL     1       8.125  29.307  58.456  1.00  0.00    -0.353 N 
HETATM    3  O   UNL     1       9.971  30.656  58.332  1.00  0.00    -0.268 OA
HETATM    4  H   UNL     1       7.292  29.044  58.962  1.00  0.00     0.163 HD
ENDROOT
BRANCH   1   5
HETATM    5  C   UNL     1       8.473  31.106  60.092  1.00  0.00     0.034 A 
HETATM    6  C   UNL     1       7.171  31.611  60.233  1.00  0.00     0.046 A 
HETATM    7  C   UNL     1       6.806  32.319  61.384  1.00  0.00     0.035 A 
HETATM    8  C   UNL     1       7.764  32.543  62.381  1.00  0.00     0.029 A 
HETATM    9  C   UNL     1       9.065  32.059  62.240  1.00  0.00     0.003 A 
HETATM   10  C   UNL     1       9.417  31.343  61.099  1.00  0.00     0.017 A 
BRANCH   7  11
HETATM   11  N   UNL     1       5.517  32.846  61.609  1.00  0.00    -0.327 N 
HETATM   12  C   UNL     1       4.570  32.400  62.519  1.00  0.00     0.221 C 
HETATM   13  O   UNL     1       4.707  31.482  63.318  1.00  0.00    -0.273 OA
HETATM   14  H   UNL     1       5.272  33.666  61.068  1.00  0.00     0.169 HD
BRANCH  12  15
HETATM   15  C   UNL     1       3.294  33.225  62.434  1.00  0.00     0.098 C 
HETATM   16  C   UNL     1       3.173  34.235  63.561  1.00  0.00     0.014 C 
ENDBRANCH  12  15
ENDBRANCH   7  11
ENDBRANCH   1   5
BRANCH   2  17
HETATM   17  C   UNL     1       8.449  28.538  57.274  1.00  0.00     0.161 C 
BRANCH  17  18
HETATM   18  C   UNL     1       7.215  28.182  56.488  1.00  0.00    -0.035 A 
HETATM   19  C   UNL     1       7.292  27.359  55.359  1.00  0.00     0.066 A 
HETATM   20  C   UNL     1       6.126  27.054  54.677  1.00  0.00     0.164 A 
HETATM   21  N   UNL     1       4.900  27.478  55.047  1.00  0.00    -0.237 NA
HETATM   22  C   UNL     1       4.843  28.248  56.154  1.00  0.00     0.120 A 
HETATM   23  C   UNL     1       5.953  28.622  56.896  1.00  0.00     0.028 A 
BRANCH  20  24
HETATM   24  O   UNL     1       6.258  26.269  53.547  1.00  0.00    -0.329 OA
BRANCH  24  25
HETATM   25  C   UNL     1       7.342  25.317  53.559  1.00  0.00     0.130 C 
HETATM   26  C   UNL     1       6.979  23.842  53.879  1.00  0.00     0.032 C 
HETATM   27  C   UNL     1       7.982  23.423  52.789  1.00  0.00     0.005 C 
HETATM   28  C   UNL     1       7.771  24.809  52.157  1.00  0.00     0.032 C 
ENDBRANCH  24  25
ENDBRANCH  20  24
ENDBRANCH  17  18
ENDBRANCH   2  17
TORSDOF 7
ENDMDL
MODEL 7
REMARK VINA RESULT:      -8.3      2.952     10.390
REMARK  7 active torsions:
REMARK  status: ('A' for Active; 'I' for Inactive)
REMARK    1  A    between atoms: C_2  and  C_3 
REMARK       I    between atoms: C_3  and  N_4 
REMARK    2  A    between atoms: N_4  and  C_5 
REMARK    3  A    between atoms: C_7  and  C_8 
REMARK       I    between atoms: C_8  and  N_9 
REMARK    4  A    between atoms: N_9  and  C_10 
REMARK    5  A    between atoms: C_10  and  C_11 
REMARK    6  A    between atoms: C_13  and  O_14 
REMARK    7  A    between atoms: O_14  and  C_15 
ROOT
HETATM    1  C   UNL     1       8.592  30.744  59.076  1.00  0.00     0.252 C 
HETATM    2  N   UNL     1       8.036  29.527  58.749  1.00  0.00    -0.353 N 
HETATM    3  O   UNL     1       9.445  31.294  58.387  1.00  0.00    -0.268 OA
HETATM    4  H   UNL     1       7.372  29.075  59.361  1.00  0.00     0.163 HD
ENDROOT
BRANCH   1   5
HETATM    5  C   UNL     1       8.134  31.395  60.339  1.00  0.00     0.034 A 
HETATM    6  C   UNL     1       6.889  32.031  60.460  1.00  0.00     0.046 A 
HETATM    7  C   UNL     1       6.512  32.629  61.668  1.00  0.00     0.035 A 
HETATM    8  C   UNL     1       7.404  32.611  62.747  1.00  0.00     0.029 A 
HETATM    9  C   UNL     1       8.652  31.997  62.630  1.00  0.00     0.003 A 
HETATM   10  C   UNL     1       9.014  31.391  61.430  1.00  0.00     0.017 A 
BRANCH   7  11
HETATM   11  N   UNL     1       5.274  33.273  61.875  1.00  0.00    -0.327 N 
HETATM   12  C   UNL     1       4.064  32.688  62.215  1.00  0.00     0.221 C 
HETATM   13  O   UNL     1       3.869  31.498  62.431  1.00  0.00    -0.273 OA
HETATM   14  H   UNL     1       5.281  34.283  61.802  1.00  0.00     0.169 HD
BRANCH  12  15
HETATM   15  C   UNL     1       2.959  33.729  62.321  1.00  0.00     0.098 C 
HETATM   16  C   UNL     1       3.018  34.516  63.619  1.00  0.00     0.014 C 
ENDBRANCH  12  15
ENDBRANCH   7  11
ENDBRANCH   1   5
BRANCH   2  17
HETATM   17  C   UNL     1       8.381  28.835  57.525  1.00  0.00     0.161 C 
BRANCH  17  18
HETATM   18  C   UNL     1       7.468  27.663  57.274  1.00  0.00    -0.035 A 
HETATM   19  C   UNL     1       7.971  26.360  57.205  1.00  0.00     0.066 A 
HETATM   20  C   UNL     1       7.089  25.317  56.981  1.00  0.00     0.164 A 
HETATM   21  N   UNL     1       5.755  25.468  56.851  1.00  0.00    -0.237 NA
HETATM   22  C   UNL     1       5.285  26.730  56.947  1.00  0.00     0.120 A 
HETATM   23  C   UNL     1       6.087  27.842  57.154  1.00  0.00     0.028 A 
BRANCH  20  24
HETATM   24  O   UNL     1       7.639  24.052  56.884  1.00  0.00    -0.329 OA
BRANCH  24  25
HETATM   25  C   UNL     1       8.394  23.779  55.684  1.00  0.00     0.130 C 
HETATM   26  C   UNL     1       8.718  22.292  55.380  1.00  0.00     0.032 C 
HETATM   27  C   UNL     1       8.425  22.594  53.900  1.00  0.00     0.005 C 
HETATM   28  C   UNL     1       7.551  23.764  54.381  1.00  0.00     0.032 C 
ENDBRANCH  24  25
ENDBRANCH  20  24
ENDBRANCH  17  18
ENDBRANCH   2  17
TORSDOF 7
ENDMDL
MODEL 8
REMARK VINA RESULT:      -8.3      2.707     10.467
REMARK  7 active torsions:
REMARK  status: ('A' for Active; 'I' for Inactive)
REMARK    1  A    between atoms: C_2  and  C_3 
REMARK       I    between atoms: C_3  and  N_4 
REMARK    2  A    between atoms: N_4  and  C_5 
REMARK    3  A    between atoms: C_7  and  C_8 
REMARK       I    between atoms: C_8  and  N_9 
REMARK    4  A    between atoms: N_9  and  C_10 
REMARK    5  A    between atoms: C_10  and  C_11 
REMARK    6  A    between atoms: C_13  and  O_14 
REMARK    7  A    between atoms: O_14  and  C_15 
ROOT
HETATM    1  C   UNL     1       7.211  31.186  58.622  1.00  0.00     0.252 C 
HETATM    2  N   UNL     1       7.707  30.031  58.058  1.00  0.00    -0.353 N 
HETATM    3  O   UNL     1       6.475  31.960  58.018  1.00  0.00    -0.268 OA
HETATM    4  H   UNL     1       8.351  29.439  58.562  1.00  0.00     0.163 HD
ENDROOT
BRANCH   1   5
HETATM    5  C   UNL     1       7.616  31.499  60.025  1.00  0.00     0.034 A 
HETATM    6  C   UNL     1       6.873  32.348  60.860  1.00  0.00     0.046 A 
HETATM    7  C   UNL     1       7.301  32.609  62.166  1.00  0.00     0.035 A 
HETATM    8  C   UNL     1       8.495  32.036  62.622  1.00  0.00     0.029 A 
HETATM    9  C   UNL     1       9.248  31.206  61.792  1.00  0.00     0.003 A 
HETATM   10  C   UNL     1       8.809  30.938  60.499  1.00  0.00     0.017 A 
BRANCH   7  11
HETATM   11  N   UNL     1       6.605  33.438  63.072  1.00  0.00    -0.327 N 
HETATM   12  C   UNL     1       5.474  33.120  63.809  1.00  0.00     0.221 C 
HETATM   13  O   UNL     1       4.899  32.039  63.825  1.00  0.00    -0.273 OA
HETATM   14  H   UNL     1       7.000  34.357  63.227  1.00  0.00     0.169 HD
BRANCH  12  15
HETATM   15  C   UNL     1       5.016  34.301  64.652  1.00  0.00     0.098 C 
HETATM   16  C   UNL     1       4.592  33.892  66.052  1.00  0.00     0.014 C 
ENDBRANCH  12  15
ENDBRANCH   7  11
ENDBRANCH   1   5
BRANCH   2  17
HETATM   17  C   UNL     1       7.341  29.618  56.720  1.00  0.00     0.161 C 
BRANCH  17  18
HETATM   18  C   UNL     1       7.343  28.118  56.582  1.00  0.00    -0.035 A 
HETATM   19  C   UNL     1       6.519  27.479  55.651  1.00  0.00     0.066 A 
HETATM   20  C   UNL     1       6.566  26.098  55.557  1.00  0.00     0.164 A 
HETATM   21  N   UNL     1       7.384  25.317  56.293  1.00  0.00    -0.237 NA
HETATM   22  C   UNL     1       8.192  25.954  57.166  1.00  0.00     0.120 A 
HETATM   23  C   UNL     1       8.208  27.329  57.346  1.00  0.00     0.028 A 
BRANCH  20  24
HETATM   24  O   UNL     1       5.705  25.510  54.649  1.00  0.00    -0.329 OA
BRANCH  24  25
HETATM   25  C   UNL     1       6.228  25.306  53.320  1.00  0.00     0.130 C 
HETATM   26  C   UNL     1       7.650  25.857  53.031  1.00  0.00     0.032 C 
HETATM   27  C   UNL     1       7.918  24.573  52.226  1.00  0.00     0.005 C 
HETATM   28  C   UNL     1       6.826  23.896  53.072  1.00  0.00     0.032 C 
ENDBRANCH  24  25
ENDBRANCH  20  24
ENDBRANCH  17  18
ENDBRANCH   2  17
TORSDOF 7
ENDMDL
MODEL 9
REMARK VINA RESULT:      -8.3      2.440     10.367
REMARK  7 active torsions:
REMARK  status: ('A' for Active; 'I' for Inactive)
REMARK    1  A    between atoms: C_2  and  C_3 
REMARK       I    between atoms: C_3  and  N_4 
REMARK    2  A    between atoms: N_4  and  C_5 
REMARK    3  A    between atoms: C_7  and  C_8 
REMARK       I    between atoms: C_8  and  N_9 
REMARK    4  A    between atoms: N_9  and  C_10 
REMARK    5  A    between atoms: C_10  and  C_11 
REMARK    6  A    between atoms: C_13  and  O_14 
REMARK    7  A    between atoms: O_14  and  C_15 
ROOT
HETATM    1  C   UNL     1       8.420  30.040  58.305  1.00  0.00     0.252 C 
HETATM    2  N   UNL     1       7.846  28.814  58.046  1.00  0.00    -0.353 N 
HETATM    3  O   UNL     1       9.554  30.335  57.942  1.00  0.00    -0.268 OA
HETATM    4  H   UNL     1       6.930  28.583  58.401  1.00  0.00     0.163 HD
ENDROOT
BRANCH   1   5
HETATM    5  C   UNL     1       7.614  31.031  59.079  1.00  0.00     0.034 A 
HETATM    6  C   UNL     1       7.990  31.491  60.350  1.00  0.00     0.046 A 
HETATM    7  C   UNL     1       7.195  32.418  61.033  1.00  0.00     0.035 A 
HETATM    8  C   UNL     1       6.003  32.860  60.445  1.00  0.00     0.029 A 
HETATM    9  C   UNL     1       5.613  32.394  59.189  1.00  0.00     0.003 A 
HETATM   10  C   UNL     1       6.417  31.483  58.509  1.00  0.00     0.017 A 
BRANCH   7  11
HETATM   11  N   UNL     1       7.510  32.939  62.306  1.00  0.00    -0.327 N 
HETATM   12  C   UNL     1       6.778  32.811  63.476  1.00  0.00     0.221 C 
HETATM   13  O   UNL     1       5.734  32.184  63.614  1.00  0.00    -0.273 OA
HETATM   14  H   UNL     1       8.392  33.432  62.377  1.00  0.00     0.169 HD
BRANCH  12  15
HETATM   15  C   UNL     1       7.449  33.542  64.629  1.00  0.00     0.098 C 
HETATM   16  C   UNL     1       6.492  33.843  65.769  1.00  0.00     0.014 C 
ENDBRANCH  12  15
ENDBRANCH   7  11
ENDBRANCH   1   5
BRANCH   2  17
HETATM   17  C   UNL     1       8.528  27.802  57.268  1.00  0.00     0.161 C 
BRANCH  17  18
HETATM   18  C   UNL     1       7.575  27.057  56.371  1.00  0.00    -0.035 A 
HETATM   19  C   UNL     1       7.569  25.659  56.329  1.00  0.00     0.066 A 
HETATM   20  C   UNL     1       6.667  25.022  55.493  1.00  0.00     0.164 A 
HETATM   21  N   UNL     1       5.762  25.664  54.727  1.00  0.00    -0.237 NA
HETATM   22  C   UNL     1       5.764  27.012  54.801  1.00  0.00     0.120 A 
HETATM   23  C   UNL     1       6.637  27.742  55.594  1.00  0.00     0.028 A 
BRANCH  20  24
HETATM   24  O   UNL     1       6.725  23.641  55.459  1.00  0.00    -0.329 OA
BRANCH  24  25
HETATM   25  C   UNL     1       7.808  23.071  54.694  1.00  0.00     0.130 C 
HETATM   26  C   UNL     1       7.899  21.522  54.651  1.00  0.00     0.032 C 
HETATM   27  C   UNL     1       8.275  21.646  53.164  1.00  0.00     0.005 C 
HETATM   28  C   UNL     1       7.554  23.005  53.165  1.00  0.00     0.032 C 
ENDBRANCH  24  25
ENDBRANCH  20  24
ENDBRANCH  17  18
ENDBRANCH   2  17
TORSDOF 7
ENDMDL
MODEL 10
REMARK VINA RESULT:      -8.2      4.608      8.740
REMARK  7 active torsions:
REMARK  status: ('A' for Active; 'I' for Inactive)
REMARK    1  A    between atoms: C_2  and  C_3 
REMARK       I    between atoms: C_3  and  N_4 
REMARK    2  A    between atoms: N_4  and  C_5 
REMARK    3  A    between atoms: C_7  and  C_8 
REMARK       I    between atoms: C_8  and  N_9 
REMARK    4  A    between atoms: N_9  and  C_10 
REMARK    5  A    between atoms: C_10  and  C_11 
REMARK    6  A    between atoms: C_13  and  O_14 
REMARK    7  A    between atoms: O_14  and  C_15 
ROOT
HETATM    1  C   UNL     1       5.160  27.037  54.188  1.00  0.00     0.252 C 
HETATM    2  N   UNL     1       4.983  25.788  54.742  1.00  0.00    -0.353 N 
HETATM    3  O   UNL     1       5.392  28.037  54.859  1.00  0.00    -0.268 OA
HETATM    4  H   UNL     1       4.743  24.992  54.168  1.00  0.00     0.163 HD
ENDROOT
BRANCH   1   5
HETATM    5  C   UNL     1       5.041  27.157  52.704  1.00  0.00     0.034 A 
HETATM    6  C   UNL     1       4.762  28.372  52.059  1.00  0.00     0.046 A 
HETATM    7  C   UNL     1       4.657  28.427  50.665  1.00  0.00     0.035 A 
HETATM    8  C   UNL     1       4.807  27.249  49.921  1.00  0.00     0.029 A 
HETATM    9  C   UNL     1       5.067  26.035  50.556  1.00  0.00     0.003 A 
HETATM   10  C   UNL     1       5.184  25.990  51.943  1.00  0.00     0.017 A 
BRANCH   7  11
HETATM   11  N   UNL     1       4.395  29.609  49.941  1.00  0.00    -0.327 N 
HETATM   12  C   UNL     1       5.292  30.613  49.608  1.00  0.00     0.221 C 
HETATM   13  O   UNL     1       6.491  30.626  49.860  1.00  0.00    -0.273 OA
HETATM   14  H   UNL     1       3.449  29.717  49.594  1.00  0.00     0.169 HD
BRANCH  12  15
HETATM   15  C   UNL     1       4.606  31.733  48.841  1.00  0.00     0.098 C 
HETATM   16  C   UNL     1       3.344  32.226  49.527  1.00  0.00     0.014 C 
ENDBRANCH  12  15
ENDBRANCH   7  11
ENDBRANCH   1   5
BRANCH   2  17
HETATM   17  C   UNL     1       5.119  25.559  56.164  1.00  0.00     0.161 C 
BRANCH  17  18
HETATM   18  C   UNL     1       6.504  25.084  56.520  1.00  0.00    -0.035 A 
HETATM   19  C   UNL     1       7.092  24.008  55.846  1.00  0.00     0.066 A 
HETATM   20  C   UNL     1       8.371  23.617  56.205  1.00  0.00     0.164 A 
HETATM   21  N   UNL     1       9.111  24.227  57.153  1.00  0.00    -0.237 NA
HETATM   22  C   UNL     1       8.537  25.280  57.773  1.00  0.00     0.120 A 
HETATM   23  C   UNL     1       7.258  25.739  57.498  1.00  0.00     0.028 A 
BRANCH  20  24
HETATM   24  O   UNL     1       8.894  22.526  55.536  1.00  0.00    -0.329 OA
BRANCH  24  25
HETATM   25  C   UNL     1       7.982  21.813  54.674  1.00  0.00     0.130 C 
HETATM   26  C   UNL     1       8.174  21.993  53.144  1.00  0.00     0.032 C 
HETATM   27  C   UNL     1       7.877  20.491  52.992  1.00  0.00     0.005 C 
HETATM   28  C   UNL     1       8.340  20.320  54.448  1.00  0.00     0.032 C 
ENDBRANCH  24  25
ENDBRANCH  20  24
ENDBRANCH  17  18
ENDBRANCH   2  17
TORSDOF 7
ENDMDL
