MODEL 1
REMARK VINA RESULT:     -11.1      0.000      0.000
REMARK  6 active torsions:
REMARK  status: ('A' for Active; 'I' for Inactive)
REMARK    1  A    between atoms: C_4  and  C_5 
REMARK    2  A    between atoms: C_5  and  C_6 
REMARK    3  A    between atoms: C_8  and  C_9 
REMARK    4  A    between atoms: C_9  and  C_10 
REMARK       I    between atoms: C_10  and  N_11 
REMARK    5  A    between atoms: N_11  and  N_12 
REMARK       I    between atoms: N_12  and  C_13 
REMARK       I    between atoms: C_13  and  N_14 
REMARK    6  A    between atoms: N_14  and  C_15 
ROOT
HETATM    1  C   UNL     1       8.727  29.077  55.294  1.00  0.00     0.238 C 
HETATM    2  N   UNL     1       8.616  29.552  56.584  1.00  0.00    -0.266 N 
HETATM    3  O   UNL     1       9.657  29.402  54.557  1.00  0.00    -0.272 OA
HETATM    4  H   UNL     1       7.980  29.110  57.238  1.00  0.00     0.190 HD
ENDROOT
BRANCH   1   5
HETATM    5  C   UNL     1       7.575  28.227  54.780  1.00  0.00     0.139 C 
BRANCH   5   6
HETATM    6  C   UNL     1       7.352  26.865  55.437  1.00  0.00     0.185 C 
HETATM    7  N   UNL     1       7.689  25.802  54.494  1.00  0.00    -0.363 N 
HETATM    8  C   UNL     1       6.741  24.967  53.965  1.00  0.00     0.125 C 
HETATM    9  H   UNL     1       8.669  25.550  54.411  1.00  0.00     0.161 HD
HETATM   10  N   UNL     1       5.469  25.048  54.243  1.00  0.00    -0.159 NA
HETATM   11  N   UNL     1       5.086  25.915  55.233  1.00  0.00    -0.244 N 
HETATM   12  C   UNL     1       5.930  26.718  55.973  1.00  0.00     0.261 C 
HETATM   13  H   UNL     1       4.132  25.824  55.575  1.00  0.00     0.192 HD
HETATM   14  O   UNL     1       5.523  27.346  56.948  1.00  0.00    -0.269 OA
BRANCH   8  15
HETATM   15  C   UNL     1       7.192  23.906  52.968  1.00  0.00     0.118 C 
BRANCH  15  16
HETATM   16  C   UNL     1       7.616  22.623  53.641  1.00  0.00    -0.051 A 
HETATM   17  C   UNL     1       7.505  22.481  55.032  1.00  0.00     0.007 A 
HETATM   18  C   UNL     1       7.870  21.286  55.654  1.00  0.00     0.001 A 
HETATM   19  C   UNL     1       8.343  20.220  54.893  1.00  0.00     0.000 A 
HETATM   20  C   UNL     1       8.453  20.348  53.509  1.00  0.00     0.001 A 
HETATM   21  C   UNL     1       8.089  21.543  52.884  1.00  0.00     0.007 A 
ENDBRANCH  15  16
ENDBRANCH   8  15
ENDBRANCH   5   6
ENDBRANCH   1   5
BRANCH   2  22
HETATM   22  N   UNL     1       9.743  30.198  57.122  1.00  0.00    -0.249 N 
HETATM   23  C   UNL     1       9.701  30.934  58.287  1.00  0.00     0.339 C 
HETATM   24  N   UNL     1       8.723  30.549  59.177  1.00  0.00    -0.308 N 
HETATM   25  O   UNL     1      10.518  31.834  58.455  1.00  0.00    -0.245 OA
HETATM   26  H   UNL     1       8.371  29.609  59.054  1.00  0.00     0.170 HD
HETATM   27  H   UNL     1      10.420  30.524  56.430  1.00  0.00     0.192 HD
BRANCH  24  28
HETATM   28  C   UNL     1       8.365  31.201  60.376  1.00  0.00     0.038 A 
HETATM   29  C   UNL     1       7.402  32.212  60.456  1.00  0.00     0.055 A 
HETATM   30  C   UNL     1       7.089  32.805  61.687  1.00  0.00     0.058 A 
HETATM   31 CL   UNL     1       5.892  34.054  61.699  1.00  0.00    -0.082 Cl
HETATM   32  C   UNL     1       7.733  32.381  62.853  1.00  0.00     0.055 A 
HETATM   33 CL   UNL     1       7.393  33.059  64.404  1.00  0.00    -0.083 Cl
HETATM   34  C   UNL     1       8.689  31.366  62.781  1.00  0.00     0.028 A 
HETATM   35  C   UNL     1       9.004  30.783  61.550  1.00  0.00     0.031 A 
ENDBRANCH  24  28
ENDBRANCH   2  22
TORSDOF 6
ENDMDL
MODEL 2
REMARK VINA RESULT:     -10.9      4.316     10.007
REMARK  6 active torsions:
REMARK  status: ('A' for Active; 'I' for Inactive)
REMARK    1  A    between atoms: C_4  and  C_5 
REMARK    2  A    between atoms: C_5  and  C_6 
REMARK    3  A    between atoms: C_8  and  C_9 
REMARK    4  A    between atoms: C_9  and  C_10 
REMARK       I    between atoms: C_10  and  N_11 
REMARK    5  A    between atoms: N_11  and  N_12 
REMARK       I    between atoms: N_12  and  C_13 
REMARK       I    between atoms: C_13  and  N_14 
REMARK    6  A    between atoms: N_14  and  C_15 
ROOT
HETATM    1  C   UNL     1       5.255  28.580  55.645  1.00  0.00     0.238 C 
HETATM    2  N   UNL     1       5.652  27.818  54.567  1.00  0.00    -0.266 N 
HETATM    3  O   UNL     1       4.093  28.583  56.050  1.00  0.00    -0.272 OA
HETATM    4  H   UNL     1       6.637  27.658  54.389  1.00  0.00     0.190 HD
ENDROOT
BRANCH   1   5
HETATM    5  C   UNL     1       6.297  29.518  56.237  1.00  0.00     0.139 C 
BRANCH   5   6
HETATM    6  C   UNL     1       7.125  29.003  57.415  1.00  0.00     0.185 C 
HETATM    7  N   UNL     1       7.677  30.133  58.158  1.00  0.00    -0.363 N 
HETATM    8  C   UNL     1       9.019  30.403  58.184  1.00  0.00     0.125 C 
HETATM    9  H   UNL     1       7.070  30.580  58.839  1.00  0.00     0.161 HD
HETATM   10  N   UNL     1       9.913  29.696  57.550  1.00  0.00    -0.159 NA
HETATM   11  N   UNL     1       9.501  28.533  56.954  1.00  0.00    -0.244 N 
HETATM   12  C   UNL     1       8.214  28.033  56.964  1.00  0.00     0.261 C 
HETATM   13  H   UNL     1      10.230  27.898  56.641  1.00  0.00     0.192 HD
HETATM   14  O   UNL     1       7.962  26.906  56.544  1.00  0.00    -0.269 OA
BRANCH   8  15
HETATM   15  C   UNL     1       9.491  31.622  58.969  1.00  0.00     0.118 C 
BRANCH  15  16
HETATM   16  C   UNL     1       8.917  31.670  60.364  1.00  0.00    -0.051 A 
HETATM   17  C   UNL     1       9.256  30.687  61.305  1.00  0.00     0.007 A 
HETATM   18  C   UNL     1       8.748  30.745  62.604  1.00  0.00     0.001 A 
HETATM   19  C   UNL     1       7.903  31.786  62.977  1.00  0.00     0.000 A 
HETATM   20  C   UNL     1       7.563  32.772  62.051  1.00  0.00     0.001 A 
HETATM   21  C   UNL     1       8.069  32.716  60.750  1.00  0.00     0.007 A 
ENDBRANCH  15  16
ENDBRANCH   8  15
ENDBRANCH   5   6
ENDBRANCH   1   5
BRANCH   2  22
HETATM   22  N   UNL     1       4.752  26.835  54.119  1.00  0.00    -0.249 N 
HETATM   23  C   UNL     1       5.128  25.533  53.862  1.00  0.00     0.339 C 
HETATM   24  N   UNL     1       6.216  25.096  54.584  1.00  0.00    -0.308 N 
HETATM   25  O   UNL     1       4.482  24.873  53.055  1.00  0.00    -0.245 OA
HETATM   26  H   UNL     1       6.416  25.618  55.427  1.00  0.00     0.170 HD
HETATM   27  H   UNL     1       3.989  27.186  53.536  1.00  0.00     0.192 HD
BRANCH  24  28
HETATM   28  C   UNL     1       6.897  23.869  54.430  1.00  0.00     0.038 A 
HETATM   29  C   UNL     1       7.198  23.006  55.488  1.00  0.00     0.055 A 
HETATM   30  C   UNL     1       7.865  21.796  55.256  1.00  0.00     0.058 A 
HETATM   31 CL   UNL     1       8.207  20.789  56.621  1.00  0.00    -0.082 Cl
HETATM   32  C   UNL     1       8.227  21.433  53.956  1.00  0.00     0.055 A 
HETATM   33 CL   UNL     1       9.043  19.956  53.594  1.00  0.00    -0.083 Cl
HETATM   34  C   UNL     1       7.922  22.286  52.894  1.00  0.00     0.028 A 
HETATM   35  C   UNL     1       7.263  23.496  53.130  1.00  0.00     0.031 A 
ENDBRANCH  24  28
ENDBRANCH   2  22
TORSDOF 6
ENDMDL
MODEL 3
REMARK VINA RESULT:     -10.7      4.348     10.041
REMARK  6 active torsions:
REMARK  status: ('A' for Active; 'I' for Inactive)
REMARK    1  A    between atoms: C_4  and  C_5 
REMARK    2  A    between atoms: C_5  and  C_6 
REMARK    3  A    between atoms: C_8  and  C_9 
REMARK    4  A    between atoms: C_9  and  C_10 
REMARK       I    between atoms: C_10  and  N_11 
REMARK    5  A    between atoms: N_11  and  N_12 
REMARK       I    between atoms: N_12  and  C_13 
REMARK       I    between atoms: C_13  and  N_14 
REMARK    6  A    between atoms: N_14  and  C_15 
ROOT
HETATM    1  C   UNL     1       7.704  28.696  55.418  1.00  0.00     0.238 C 
HETATM    2  N   UNL     1       7.557  28.379  54.084  1.00  0.00    -0.266 N 
HETATM    3  O   UNL     1       6.805  28.504  56.236  1.00  0.00    -0.272 OA
HETATM    4  H   UNL     1       8.368  28.337  53.477  1.00  0.00     0.190 HD
ENDROOT
BRANCH   1   5
HETATM    5  C   UNL     1       8.986  29.414  55.810  1.00  0.00     0.139 C 
BRANCH   5   6
HETATM    6  C   UNL     1       9.347  29.457  57.295  1.00  0.00     0.185 C 
HETATM    7  N   UNL     1       8.230  30.010  58.057  1.00  0.00    -0.363 N 
HETATM    8  C   UNL     1       8.303  31.228  58.679  1.00  0.00     0.125 C 
HETATM    9  H   UNL     1       7.479  29.373  58.305  1.00  0.00     0.161 HD
HETATM   10  N   UNL     1       9.354  31.999  58.641  1.00  0.00    -0.159 NA
HETATM   11  N   UNL     1      10.496  31.493  58.079  1.00  0.00    -0.244 N 
HETATM   12  C   UNL     1      10.640  30.228  57.544  1.00  0.00     0.261 C 
HETATM   13  H   UNL     1      11.353  32.019  58.233  1.00  0.00     0.192 HD
HETATM   14  O   UNL     1      11.741  29.798  57.206  1.00  0.00    -0.269 OA
BRANCH   8  15
HETATM   15  C   UNL     1       7.072  31.727  59.428  1.00  0.00     0.118 C 
BRANCH  15  16
HETATM   16  C   UNL     1       7.361  32.035  60.876  1.00  0.00    -0.051 A 
HETATM   17  C   UNL     1       6.785  33.155  61.492  1.00  0.00     0.007 A 
HETATM   18  C   UNL     1       7.028  33.427  62.840  1.00  0.00     0.001 A 
HETATM   19  C   UNL     1       7.844  32.581  63.585  1.00  0.00     0.000 A 
HETATM   20  C   UNL     1       8.420  31.462  62.985  1.00  0.00     0.001 A 
HETATM   21  C   UNL     1       8.178  31.188  61.636  1.00  0.00     0.007 A 
ENDBRANCH  15  16
ENDBRANCH   8  15
ENDBRANCH   5   6
ENDBRANCH   1   5
BRANCH   2  22
HETATM   22  N   UNL     1       6.456  27.574  53.740  1.00  0.00    -0.249 N 
HETATM   23  C   UNL     1       6.478  26.198  53.822  1.00  0.00     0.339 C 
HETATM   24  N   UNL     1       7.348  25.690  54.760  1.00  0.00    -0.308 N 
HETATM   25  O   UNL     1       5.735  25.545  53.095  1.00  0.00    -0.245 OA
HETATM   26  H   UNL     1       7.622  26.334  55.491  1.00  0.00     0.170 HD
HETATM   27  H   UNL     1       5.864  27.953  52.998  1.00  0.00     0.192 HD
BRANCH  24  28
HETATM   28  C   UNL     1       7.674  24.332  54.966  1.00  0.00     0.038 A 
HETATM   29  C   UNL     1       7.762  23.388  53.939  1.00  0.00     0.055 A 
HETATM   30  C   UNL     1       8.105  22.057  54.219  1.00  0.00     0.058 A 
HETATM   31 CL   UNL     1       8.185  20.950  52.893  1.00  0.00    -0.082 Cl
HETATM   32  C   UNL     1       8.373  21.665  55.532  1.00  0.00     0.055 A 
HETATM   33 CL   UNL     1       8.809  20.047  55.951  1.00  0.00    -0.083 Cl
HETATM   34  C   UNL     1       8.295  22.605  56.562  1.00  0.00     0.028 A 
HETATM   35  C   UNL     1       7.945  23.929  56.280  1.00  0.00     0.031 A 
ENDBRANCH  24  28
ENDBRANCH   2  22
TORSDOF 6
ENDMDL
MODEL 4
REMARK VINA RESULT:     -10.6      1.483      2.243
REMARK  6 active torsions:
REMARK  status: ('A' for Active; 'I' for Inactive)
REMARK    1  A    between atoms: C_4  and  C_5 
REMARK    2  A    between atoms: C_5  and  C_6 
REMARK    3  A    between atoms: C_8  and  C_9 
REMARK    4  A    between atoms: C_9  and  C_10 
REMARK       I    between atoms: C_10  and  N_11 
REMARK    5  A    between atoms: N_11  and  N_12 
REMARK       I    between atoms: N_12  and  C_13 
REMARK       I    between atoms: C_13  and  N_14 
REMARK    6  A    between atoms: N_14  and  C_15 
ROOT
HETATM    1  C   UNL     1       9.000  29.143  56.697  1.00  0.00     0.238 C 
HETATM    2  N   UNL     1       8.807  29.504  58.014  1.00  0.00    -0.266 N 
HETATM    3  O   UNL     1       9.655  29.837  55.919  1.00  0.00    -0.272 OA
HETATM    4  H   UNL     1       8.462  28.826  58.684  1.00  0.00     0.190 HD
ENDROOT
BRANCH   1   5
HETATM    5  C   UNL     1       8.259  27.905  56.214  1.00  0.00     0.139 C 
BRANCH   5   6
HETATM    6  C   UNL     1       7.564  27.041  57.267  1.00  0.00     0.185 C 
HETATM    7  N   UNL     1       8.144  25.701  57.263  1.00  0.00    -0.363 N 
HETATM    8  C   UNL     1       7.439  24.602  56.848  1.00  0.00     0.125 C 
HETATM    9  H   UNL     1       9.003  25.566  57.786  1.00  0.00     0.161 HD
HETATM   10  N   UNL     1       6.209  24.651  56.415  1.00  0.00    -0.159 NA
HETATM   11  N   UNL     1       5.541  25.842  56.529  1.00  0.00    -0.244 N 
HETATM   12  C   UNL     1       6.051  27.006  57.066  1.00  0.00     0.261 C 
HETATM   13  H   UNL     1       4.535  25.816  56.377  1.00  0.00     0.192 HD
HETATM   14  O   UNL     1       5.334  27.982  57.277  1.00  0.00    -0.269 OA
BRANCH   8  15
HETATM   15  C   UNL     1       8.144  23.250  56.858  1.00  0.00     0.118 C 
BRANCH  15  16
HETATM   16  C   UNL     1       8.115  22.573  55.510  1.00  0.00    -0.051 A 
HETATM   17  C   UNL     1       7.850  21.199  55.411  1.00  0.00     0.007 A 
HETATM   18  C   UNL     1       7.795  20.575  54.164  1.00  0.00     0.001 A 
HETATM   19  C   UNL     1       8.000  21.317  53.004  1.00  0.00     0.000 A 
HETATM   20  C   UNL     1       8.261  22.684  53.089  1.00  0.00     0.001 A 
HETATM   21  C   UNL     1       8.317  23.310  54.336  1.00  0.00     0.007 A 
ENDBRANCH  15  16
ENDBRANCH   8  15
ENDBRANCH   5   6
ENDBRANCH   1   5
BRANCH   2  22
HETATM   22  N   UNL     1       9.611  30.545  58.511  1.00  0.00    -0.249 N 
HETATM   23  C   UNL     1       9.145  31.499  59.391  1.00  0.00     0.339 C 
HETATM   24  N   UNL     1       8.101  31.085  60.189  1.00  0.00    -0.308 N 
HETATM   25  O   UNL     1       9.682  32.602  59.416  1.00  0.00    -0.245 OA
HETATM   26  H   UNL     1       8.004  30.084  60.290  1.00  0.00     0.170 HD
HETATM   27  H   UNL     1      10.338  30.869  57.870  1.00  0.00     0.192 HD
BRANCH  24  28
HETATM   28  C   UNL     1       7.346  31.882  61.075  1.00  0.00     0.038 A 
HETATM   29  C   UNL     1       7.752  32.203  62.374  1.00  0.00     0.055 A 
HETATM   30  C   UNL     1       6.953  33.013  63.193  1.00  0.00     0.058 A 
HETATM   31 CL   UNL     1       7.524  33.357  64.789  1.00  0.00    -0.082 Cl
HETATM   32  C   UNL     1       5.743  33.518  62.712  1.00  0.00     0.055 A 
HETATM   33 CL   UNL     1       4.711  34.528  63.660  1.00  0.00    -0.083 Cl
HETATM   34  C   UNL     1       5.335  33.209  61.412  1.00  0.00     0.028 A 
HETATM   35  C   UNL     1       6.131  32.394  60.601  1.00  0.00     0.031 A 
ENDBRANCH  24  28
ENDBRANCH   2  22
TORSDOF 6
ENDMDL
MODEL 5
REMARK VINA RESULT:     -10.2      4.510      9.582
REMARK  6 active torsions:
REMARK  status: ('A' for Active; 'I' for Inactive)
REMARK    1  A    between atoms: C_4  and  C_5 
REMARK    2  A    between atoms: C_5  and  C_6 
REMARK    3  A    between atoms: C_8  and  C_9 
REMARK    4  A    between atoms: C_9  and  C_10 
REMARK       I    between atoms: C_10  and  N_11 
REMARK    5  A    between atoms: N_11  and  N_12 
REMARK       I    between atoms: N_12  and  C_13 
REMARK       I    between atoms: C_13  and  N_14 
REMARK    6  A    between atoms: N_14  and  C_15 
ROOT
HETATM    1  C   UNL     1       6.371  28.514  54.545  1.00  0.00     0.238 C 
HETATM    2  N   UNL     1       5.767  27.675  53.633  1.00  0.00    -0.266 N 
HETATM    3  O   UNL     1       7.595  28.582  54.658  1.00  0.00    -0.272 OA
HETATM    4  H   UNL     1       4.787  27.792  53.402  1.00  0.00     0.190 HD
ENDROOT
BRANCH   1   5
HETATM    5  C   UNL     1       5.450  29.262  55.496  1.00  0.00     0.139 C 
BRANCH   5   6
HETATM    6  C   UNL     1       5.611  28.997  56.994  1.00  0.00     0.185 C 
HETATM    7  N   UNL     1       6.625  29.892  57.545  1.00  0.00    -0.363 N 
HETATM    8  C   UNL     1       7.831  29.434  58.003  1.00  0.00     0.125 C 
HETATM    9  H   UNL     1       6.328  30.832  57.791  1.00  0.00     0.161 HD
HETATM   10  N   UNL     1       8.186  28.179  57.981  1.00  0.00    -0.159 NA
HETATM   11  N   UNL     1       7.240  27.256  57.621  1.00  0.00    -0.244 N 
HETATM   12  C   UNL     1       5.932  27.532  57.279  1.00  0.00     0.261 C 
HETATM   13  H   UNL     1       7.465  26.280  57.799  1.00  0.00     0.192 HD
HETATM   14  O   UNL     1       5.107  26.633  57.127  1.00  0.00    -0.269 OA
BRANCH   8  15
HETATM   15  C   UNL     1       8.831  30.454  58.537  1.00  0.00     0.118 C 
BRANCH  15  16
HETATM   16  C   UNL     1       8.444  30.989  59.893  1.00  0.00    -0.051 A 
HETATM   17  C   UNL     1       9.042  30.479  61.055  1.00  0.00     0.007 A 
HETATM   18  C   UNL     1       8.706  30.991  62.309  1.00  0.00     0.001 A 
HETATM   19  C   UNL     1       7.775  32.021  62.415  1.00  0.00     0.000 A 
HETATM   20  C   UNL     1       7.177  32.539  61.267  1.00  0.00     0.001 A 
HETATM   21  C   UNL     1       7.511  32.028  60.011  1.00  0.00     0.007 A 
ENDBRANCH  15  16
ENDBRANCH   8  15
ENDBRANCH   5   6
ENDBRANCH   1   5
BRANCH   2  22
HETATM   22  N   UNL     1       6.594  27.107  52.648  1.00  0.00    -0.249 N 
HETATM   23  C   UNL     1       7.230  25.894  52.809  1.00  0.00     0.339 C 
HETATM   24  N   UNL     1       6.596  25.021  53.665  1.00  0.00    -0.308 N 
HETATM   25  O   UNL     1       8.266  25.675  52.188  1.00  0.00    -0.245 OA
HETATM   26  H   UNL     1       5.613  25.204  53.822  1.00  0.00     0.170 HD
HETATM   27  H   UNL     1       7.097  27.783  52.068  1.00  0.00     0.192 HD
BRANCH  24  28
HETATM   28  C   UNL     1       7.082  23.776  54.118  1.00  0.00     0.038 A 
HETATM   29  C   UNL     1       7.450  22.728  53.270  1.00  0.00     0.055 A 
HETATM   30  C   UNL     1       7.939  21.522  53.793  1.00  0.00     0.058 A 
HETATM   31 CL   UNL     1       8.364  20.272  52.676  1.00  0.00    -0.082 Cl
HETATM   32  C   UNL     1       8.073  21.362  55.174  1.00  0.00     0.055 A 
HETATM   33 CL   UNL     1       8.675  19.910  55.890  1.00  0.00    -0.083 Cl
HETATM   34  C   UNL     1       7.716  22.409  56.027  1.00  0.00     0.028 A 
HETATM   35  C   UNL     1       7.222  23.606  55.502  1.00  0.00     0.031 A 
ENDBRANCH  24  28
ENDBRANCH   2  22
TORSDOF 6
ENDMDL
MODEL 6
REMARK VINA RESULT:     -10.0      2.456      3.288
REMARK  6 active torsions:
REMARK  status: ('A' for Active; 'I' for Inactive)
REMARK    1  A    between atoms: C_4  and  C_5 
REMARK    2  A    between atoms: C_5  and  C_6 
REMARK    3  A    between atoms: C_8  and  C_9 
REMARK    4  A    between atoms: C_9  and  C_10 
REMARK       I    between atoms: C_10  and  N_11 
REMARK    5  A    between atoms: N_11  and  N_12 
REMARK       I    between atoms: N_12  and  C_13 
REMARK       I    between atoms: C_13  and  N_14 
REMARK    6  A    between atoms: N_14  and  C_15 
ROOT
HETATM    1  C   UNL     1       5.663  28.406  55.196  1.00  0.00     0.238 C 
HETATM    2  N   UNL     1       6.676  29.256  54.805  1.00  0.00    -0.266 N 
HETATM    3  O   UNL     1       5.889  27.351  55.789  1.00  0.00    -0.272 OA
HETATM    4  H   UNL     1       6.464  30.206  54.522  1.00  0.00     0.190 HD
ENDROOT
BRANCH   1   5
HETATM    5  C   UNL     1       4.256  28.771  54.747  1.00  0.00     0.139 C 
BRANCH   5   6
HETATM    6  C   UNL     1       3.797  28.268  53.378  1.00  0.00     0.185 C 
HETATM    7  N   UNL     1       3.969  26.820  53.304  1.00  0.00    -0.363 N 
HETATM    8  C   UNL     1       4.891  26.236  52.477  1.00  0.00     0.125 C 
HETATM    9  H   UNL     1       3.236  26.245  53.709  1.00  0.00     0.161 HD
HETATM   10  N   UNL     1       5.695  26.908  51.699  1.00  0.00    -0.159 NA
HETATM   11  N   UNL     1       5.498  28.260  51.594  1.00  0.00    -0.244 N 
HETATM   12  C   UNL     1       4.517  28.985  52.239  1.00  0.00     0.261 C 
HETATM   13  H   UNL     1       5.993  28.736  50.844  1.00  0.00     0.192 HD
HETATM   14  O   UNL     1       4.309  30.165  51.965  1.00  0.00    -0.269 OA
BRANCH   8  15
HETATM   15  C   UNL     1       5.010  24.716  52.491  1.00  0.00     0.118 C 
BRANCH  15  16
HETATM   16  C   UNL     1       6.226  24.238  53.246  1.00  0.00    -0.051 A 
HETATM   17  C   UNL     1       6.284  24.351  54.642  1.00  0.00     0.007 A 
HETATM   18  C   UNL     1       7.396  23.884  55.345  1.00  0.00     0.001 A 
HETATM   19  C   UNL     1       8.456  23.295  54.662  1.00  0.00     0.000 A 
HETATM   20  C   UNL     1       8.407  23.173  53.274  1.00  0.00     0.001 A 
HETATM   21  C   UNL     1       7.296  23.640  52.568  1.00  0.00     0.007 A 
ENDBRANCH  15  16
ENDBRANCH   8  15
ENDBRANCH   5   6
ENDBRANCH   1   5
BRANCH   2  22
HETATM   22  N   UNL     1       7.950  29.017  55.349  1.00  0.00    -0.249 N 
HETATM   23  C   UNL     1       8.370  29.562  56.544  1.00  0.00     0.339 C 
HETATM   24  N   UNL     1       7.359  29.847  57.434  1.00  0.00    -0.308 N 
HETATM   25  O   UNL     1       9.571  29.733  56.734  1.00  0.00    -0.245 OA
HETATM   26  H   UNL     1       6.492  29.350  57.279  1.00  0.00     0.170 HD
HETATM   27  H   UNL     1       8.690  28.870  54.660  1.00  0.00     0.192 HD
BRANCH  24  28
HETATM   28  C   UNL     1       7.481  30.526  58.666  1.00  0.00     0.038 A 
HETATM   29  C   UNL     1       8.380  30.161  59.672  1.00  0.00     0.055 A 
HETATM   30  C   UNL     1       8.454  30.893  60.865  1.00  0.00     0.058 A 
HETATM   31 CL   UNL     1       9.587  30.370  62.063  1.00  0.00    -0.082 Cl
HETATM   32  C   UNL     1       7.633  32.007  61.055  1.00  0.00     0.055 A 
HETATM   33 CL   UNL     1       7.674  32.961  62.494  1.00  0.00    -0.083 Cl
HETATM   34  C   UNL     1       6.739  32.383  60.050  1.00  0.00     0.028 A 
HETATM   35  C   UNL     1       6.662  31.646  58.865  1.00  0.00     0.031 A 
ENDBRANCH  24  28
ENDBRANCH   2  22
TORSDOF 6
ENDMDL
MODEL 7
REMARK VINA RESULT:      -9.9      4.889      8.806
REMARK  6 active torsions:
REMARK  status: ('A' for Active; 'I' for Inactive)
REMARK    1  A    between atoms: C_4  and  C_5 
REMARK    2  A    between atoms: C_5  and  C_6 
REMARK    3  A    between atoms: C_8  and  C_9 
REMARK    4  A    between atoms: C_9  and  C_10 
REMARK       I    between atoms: C_10  and  N_11 
REMARK    5  A    between atoms: N_11  and  N_12 
REMARK       I    between atoms: N_12  and  C_13 
REMARK       I    between atoms: C_13  and  N_14 
REMARK    6  A    between atoms: N_14  and  C_15 
ROOT
HETATM    1  C   UNL     1       4.012  28.958  53.320  1.00  0.00     0.238 C 
HETATM    2  N   UNL     1       4.820  27.841  53.322  1.00  0.00    -0.266 N 
HETATM    3  O   UNL     1       2.905  28.962  52.780  1.00  0.00    -0.272 OA
HETATM    4  H   UNL     1       5.614  27.786  53.948  1.00  0.00     0.190 HD
ENDROOT
BRANCH   1   5
HETATM    5  C   UNL     1       4.606  30.229  53.908  1.00  0.00     0.139 C 
BRANCH   5   6
HETATM    6  C   UNL     1       4.946  30.227  55.399  1.00  0.00     0.185 C 
HETATM    7  N   UNL     1       6.278  29.663  55.598  1.00  0.00    -0.363 N 
HETATM    8  C   UNL     1       6.475  28.461  56.224  1.00  0.00     0.125 C 
HETATM    9  H   UNL     1       7.069  30.286  55.466  1.00  0.00     0.161 HD
HETATM   10  N   UNL     1       5.508  27.716  56.683  1.00  0.00    -0.159 NA
HETATM   11  N   UNL     1       4.241  28.239  56.674  1.00  0.00    -0.244 N 
HETATM   12  C   UNL     1       3.890  29.494  56.221  1.00  0.00     0.261 C 
HETATM   13  H   UNL     1       3.537  27.737  57.210  1.00  0.00     0.192 HD
HETATM   14  O   UNL     1       2.760  29.944  56.397  1.00  0.00    -0.269 OA
BRANCH   8  15
HETATM   15  C   UNL     1       7.904  27.947  56.360  1.00  0.00     0.118 C 
BRANCH  15  16
HETATM   16  C   UNL     1       8.815  28.942  57.035  1.00  0.00    -0.051 A 
HETATM   17  C   UNL     1      10.037  29.299  56.446  1.00  0.00     0.007 A 
HETATM   18  C   UNL     1      10.869  30.240  57.054  1.00  0.00     0.001 A 
HETATM   19  C   UNL     1      10.488  30.838  58.253  1.00  0.00     0.000 A 
HETATM   20  C   UNL     1       9.273  30.494  58.845  1.00  0.00     0.001 A 
HETATM   21  C   UNL     1       8.439  29.552  58.239  1.00  0.00     0.007 A 
ENDBRANCH  15  16
ENDBRANCH   8  15
ENDBRANCH   5   6
ENDBRANCH   1   5
BRANCH   2  22
HETATM   22  N   UNL     1       4.226  26.627  52.932  1.00  0.00    -0.249 N 
HETATM   23  C   UNL     1       4.822  25.400  53.135  1.00  0.00     0.339 C 
HETATM   24  N   UNL     1       5.690  25.352  54.202  1.00  0.00    -0.308 N 
HETATM   25  O   UNL     1       4.536  24.467  52.392  1.00  0.00    -0.245 OA
HETATM   26  H   UNL     1       5.562  26.073  54.900  1.00  0.00     0.170 HD
HETATM   27  H   UNL     1       3.635  26.687  52.101  1.00  0.00     0.192 HD
BRANCH  24  28
HETATM   28  C   UNL     1       6.534  24.278  54.560  1.00  0.00     0.038 A 
HETATM   29  C   UNL     1       6.971  23.298  53.663  1.00  0.00     0.055 A 
HETATM   30  C   UNL     1       7.820  22.267  54.087  1.00  0.00     0.058 A 
HETATM   31 CL   UNL     1       8.308  21.091  52.917  1.00  0.00    -0.082 Cl
HETATM   32  C   UNL     1       8.249  22.216  55.416  1.00  0.00     0.055 A 
HETATM   33 CL   UNL     1       9.301  20.982  56.009  1.00  0.00    -0.083 Cl
HETATM   34  C   UNL     1       7.823  23.197  56.315  1.00  0.00     0.028 A 
HETATM   35  C   UNL     1       6.970  24.218  55.889  1.00  0.00     0.031 A 
ENDBRANCH  24  28
ENDBRANCH   2  22
TORSDOF 6
ENDMDL
MODEL 8
REMARK VINA RESULT:      -9.9      2.175      2.985
REMARK  6 active torsions:
REMARK  status: ('A' for Active; 'I' for Inactive)
REMARK    1  A    between atoms: C_4  and  C_5 
REMARK    2  A    between atoms: C_5  and  C_6 
REMARK    3  A    between atoms: C_8  and  C_9 
REMARK    4  A    between atoms: C_9  and  C_10 
REMARK       I    between atoms: C_10  and  N_11 
REMARK    5  A    between atoms: N_11  and  N_12 
REMARK       I    between atoms: N_12  and  C_13 
REMARK       I    between atoms: C_13  and  N_14 
REMARK    6  A    between atoms: N_14  and  C_15 
ROOT
HETATM    1  C   UNL     1       5.441  30.333  56.932  1.00  0.00     0.238 C 
HETATM    2  N   UNL     1       6.292  29.935  57.943  1.00  0.00    -0.266 N 
HETATM    3  O   UNL     1       5.590  31.400  56.337  1.00  0.00    -0.272 OA
HETATM    4  H   UNL     1       6.289  28.974  58.264  1.00  0.00     0.190 HD
ENDROOT
BRANCH   1   5
HETATM    5  C   UNL     1       4.233  29.447  56.671  1.00  0.00     0.139 C 
BRANCH   5   6
HETATM    6  C   UNL     1       4.335  28.425  55.538  1.00  0.00     0.185 C 
HETATM    7  N   UNL     1       5.335  27.415  55.877  1.00  0.00    -0.363 N 
HETATM    8  C   UNL     1       6.520  27.306  55.199  1.00  0.00     0.125 C 
HETATM    9  H   UNL     1       5.038  26.652  56.476  1.00  0.00     0.161 HD
HETATM   10  N   UNL     1       6.865  28.086  54.211  1.00  0.00    -0.159 NA
HETATM   11  N   UNL     1       5.925  28.959  53.731  1.00  0.00    -0.244 N 
HETATM   12  C   UNL     1       4.633  29.091  54.197  1.00  0.00     0.261 C 
HETATM   13  H   UNL     1       6.135  29.413  52.845  1.00  0.00     0.192 HD
HETATM   14  O   UNL     1       3.806  29.783  53.607  1.00  0.00    -0.269 OA
BRANCH   8  15
HETATM   15  C   UNL     1       7.508  26.234  55.646  1.00  0.00     0.118 C 
BRANCH  15  16
HETATM   16  C   UNL     1       7.553  25.058  54.702  1.00  0.00    -0.051 A 
HETATM   17  C   UNL     1       7.780  25.257  53.332  1.00  0.00     0.007 A 
HETATM   18  C   UNL     1       7.851  24.169  52.460  1.00  0.00     0.001 A 
HETATM   19  C   UNL     1       7.701  22.874  52.948  1.00  0.00     0.000 A 
HETATM   20  C   UNL     1       7.479  22.664  54.309  1.00  0.00     0.001 A 
HETATM   21  C   UNL     1       7.408  23.751  55.183  1.00  0.00     0.007 A 
ENDBRANCH  15  16
ENDBRANCH   8  15
ENDBRANCH   5   6
ENDBRANCH   1   5
BRANCH   2  22
HETATM   22  N   UNL     1       7.492  30.654  58.082  1.00  0.00    -0.249 N 
HETATM   23  C   UNL     1       7.744  31.496  59.145  1.00  0.00     0.339 C 
HETATM   24  N   UNL     1       7.074  31.175  60.305  1.00  0.00    -0.308 N 
HETATM   25  O   UNL     1       8.531  32.426  58.997  1.00  0.00    -0.245 OA
HETATM   26  H   UNL     1       6.747  30.220  60.367  1.00  0.00     0.170 HD
HETATM   27  H   UNL     1       7.932  30.928  57.202  1.00  0.00     0.192 HD
BRANCH  24  28
HETATM   28  C   UNL     1       7.036  31.930  61.497  1.00  0.00     0.038 A 
HETATM   29  C   UNL     1       6.055  32.883  61.784  1.00  0.00     0.055 A 
HETATM   30  C   UNL     1       6.074  33.586  62.997  1.00  0.00     0.058 A 
HETATM   31 CL   UNL     1       4.828  34.753  63.273  1.00  0.00    -0.082 Cl
HETATM   32  C   UNL     1       7.073  33.329  63.939  1.00  0.00     0.055 A 
HETATM   33 CL   UNL     1       7.156  34.149  65.457  1.00  0.00    -0.083 Cl
HETATM   34  C   UNL     1       8.052  32.372  63.662  1.00  0.00     0.028 A 
HETATM   35  C   UNL     1       8.034  31.680  62.448  1.00  0.00     0.031 A 
ENDBRANCH  24  28
ENDBRANCH   2  22
TORSDOF 6
ENDMDL
MODEL 9
REMARK VINA RESULT:      -9.4      7.213     10.266
REMARK  6 active torsions:
REMARK  status: ('A' for Active; 'I' for Inactive)
REMARK    1  A    between atoms: C_4  and  C_5 
REMARK    2  A    between atoms: C_5  and  C_6 
REMARK    3  A    between atoms: C_8  and  C_9 
REMARK    4  A    between atoms: C_9  and  C_10 
REMARK       I    between atoms: C_10  and  N_11 
REMARK    5  A    between atoms: N_11  and  N_12 
REMARK       I    between atoms: N_12  and  C_13 
REMARK       I    between atoms: C_13  and  N_14 
REMARK    6  A    between atoms: N_14  and  C_15 
ROOT
HETATM    1  C   UNL     1       4.970  26.917  51.379  1.00  0.00     0.238 C 
HETATM    2  N   UNL     1       5.235  28.025  50.602  1.00  0.00    -0.266 N 
HETATM    3  O   UNL     1       4.812  25.799  50.888  1.00  0.00    -0.272 OA
HETATM    4  H   UNL     1       5.577  28.879  51.029  1.00  0.00     0.190 HD
ENDROOT
BRANCH   1   5
HETATM    5  C   UNL     1       4.755  27.163  52.865  1.00  0.00     0.139 C 
BRANCH   5   6
HETATM    6  C   UNL     1       5.967  27.022  53.787  1.00  0.00     0.185 C 
HETATM    7  N   UNL     1       6.952  26.136  53.173  1.00  0.00    -0.363 N 
HETATM    8  C   UNL     1       7.243  24.900  53.687  1.00  0.00     0.125 C 
HETATM    9  H   UNL     1       7.579  26.545  52.487  1.00  0.00     0.161 HD
HETATM   10  N   UNL     1       6.671  24.404  54.749  1.00  0.00    -0.159 NA
HETATM   11  N   UNL     1       5.848  25.227  55.473  1.00  0.00    -0.244 N 
HETATM   12  C   UNL     1       5.567  26.546  55.181  1.00  0.00     0.261 C 
HETATM   13  H   UNL     1       5.571  24.898  56.395  1.00  0.00     0.192 HD
HETATM   14  O   UNL     1       4.948  27.258  55.970  1.00  0.00    -0.269 OA
BRANCH   8  15
HETATM   15  C   UNL     1       8.269  24.041  52.956  1.00  0.00     0.118 C 
BRANCH  15  16
HETATM   16  C   UNL     1       8.415  22.669  53.566  1.00  0.00    -0.051 A 
HETATM   17  C   UNL     1       9.112  22.499  54.771  1.00  0.00     0.007 A 
HETATM   18  C   UNL     1       9.225  21.235  55.353  1.00  0.00     0.001 A 
HETATM   19  C   UNL     1       8.638  20.131  54.740  1.00  0.00     0.000 A 
HETATM   20  C   UNL     1       7.939  20.289  53.545  1.00  0.00     0.001 A 
HETATM   21  C   UNL     1       7.826  21.552  52.960  1.00  0.00     0.007 A 
ENDBRANCH  15  16
ENDBRANCH   8  15
ENDBRANCH   5   6
ENDBRANCH   1   5
BRANCH   2  22
HETATM   22  N   UNL     1       5.595  27.790  49.263  1.00  0.00    -0.249 N 
HETATM   23  C   UNL     1       4.682  27.795  48.229  1.00  0.00     0.339 C 
HETATM   24  N   UNL     1       3.572  28.580  48.445  1.00  0.00    -0.308 N 
HETATM   25  O   UNL     1       4.921  27.141  47.218  1.00  0.00    -0.245 OA
HETATM   26  H   UNL     1       3.679  29.301  49.147  1.00  0.00     0.170 HD
HETATM   27  H   UNL     1       6.385  27.156  49.136  1.00  0.00     0.192 HD
BRANCH  24  28
HETATM   28  C   UNL     1       2.425  28.669  47.627  1.00  0.00     0.038 A 
HETATM   29  C   UNL     1       2.107  29.785  46.848  1.00  0.00     0.055 A 
HETATM   30  C   UNL     1       0.956  29.795  46.048  1.00  0.00     0.058 A 
HETATM   31 CL   UNL     1       0.631  31.218  45.120  1.00  0.00    -0.082 Cl
HETATM   32  C   UNL     1       0.117  28.678  46.014  1.00  0.00     0.055 A 
HETATM   33 CL   UNL     1      -1.312  28.615  45.047  1.00  0.00    -0.083 Cl
HETATM   34  C   UNL     1       0.433  27.556  46.783  1.00  0.00     0.028 A 
HETATM   35  C   UNL     1       1.578  27.553  47.585  1.00  0.00     0.031 A 
ENDBRANCH  24  28
ENDBRANCH   2  22
TORSDOF 6
ENDMDL
MODEL 10
REMARK VINA RESULT:      -9.3      4.713     10.428
REMARK  6 active torsions:
REMARK  status: ('A' for Active; 'I' for Inactive)
REMARK    1  A    between atoms: C_4  and  C_5 
REMARK    2  A    between atoms: C_5  and  C_6 
REMARK    3  A    between atoms: C_8  and  C_9 
REMARK    4  A    between atoms: C_9  and  C_10 
REMARK       I    between atoms: C_10  and  N_11 
REMARK    5  A    between atoms: N_11  and  N_12 
REMARK       I    between atoms: N_12  and  C_13 
REMARK       I    between atoms: C_13  and  N_14 
REMARK    6  A    between atoms: N_14  and  C_15 
ROOT
HETATM    1  C   UNL     1       5.344  30.722  56.401  1.00  0.00     0.238 C 
HETATM    2  N   UNL     1       6.350  29.780  56.337  1.00  0.00    -0.266 N 
HETATM    3  O   UNL     1       5.001  31.377  55.417  1.00  0.00    -0.272 OA
HETATM    4  H   UNL     1       6.467  29.106  57.085  1.00  0.00     0.190 HD
ENDROOT
BRANCH   1   5
HETATM    5  C   UNL     1       4.761  31.003  57.778  1.00  0.00     0.139 C 
BRANCH   5   6
HETATM    6  C   UNL     1       5.485  32.021  58.658  1.00  0.00     0.185 C 
HETATM    7  N   UNL     1       5.330  31.654  60.064  1.00  0.00    -0.363 N 
HETATM    8  C   UNL     1       4.592  32.407  60.937  1.00  0.00     0.125 C 
HETATM    9  H   UNL     1       5.966  30.953  60.432  1.00  0.00     0.161 HD
HETATM   10  N   UNL     1       3.961  33.498  60.600  1.00  0.00    -0.159 NA
HETATM   11  N   UNL     1       4.176  33.995  59.342  1.00  0.00    -0.244 N 
HETATM   12  C   UNL     1       5.009  33.446  58.388  1.00  0.00     0.261 C 
HETATM   13  H   UNL     1       3.843  34.939  59.162  1.00  0.00     0.192 HD
HETATM   14  O   UNL     1       5.269  34.043  57.346  1.00  0.00    -0.269 OA
BRANCH   8  15
HETATM   15  C   UNL     1       4.471  31.923  62.378  1.00  0.00     0.118 C 
BRANCH  15  16
HETATM   16  C   UNL     1       5.517  32.529  63.282  1.00  0.00    -0.051 A 
HETATM   17  C   UNL     1       6.881  32.337  63.017  1.00  0.00     0.007 A 
HETATM   18  C   UNL     1       7.851  32.920  63.834  1.00  0.00     0.001 A 
HETATM   19  C   UNL     1       7.469  33.703  64.920  1.00  0.00     0.000 A 
HETATM   20  C   UNL     1       6.116  33.904  65.190  1.00  0.00     0.001 A 
HETATM   21  C   UNL     1       5.143  33.322  64.374  1.00  0.00     0.007 A 
ENDBRANCH  15  16
ENDBRANCH   8  15
ENDBRANCH   5   6
ENDBRANCH   1   5
BRANCH   2  22
HETATM   22  N   UNL     1       6.780  29.397  55.055  1.00  0.00    -0.249 N 
HETATM   23  C   UNL     1       7.285  28.144  54.775  1.00  0.00     0.339 C 
HETATM   24  N   UNL     1       6.830  27.142  55.603  1.00  0.00    -0.308 N 
HETATM   25  O   UNL     1       8.062  28.009  53.834  1.00  0.00    -0.245 OA
HETATM   26  H   UNL     1       5.965  27.340  56.089  1.00  0.00     0.170 HD
HETATM   27  H   UNL     1       7.168  30.154  54.489  1.00  0.00     0.192 HD
BRANCH  24  28
HETATM   28  C   UNL     1       7.275  25.803  55.636  1.00  0.00     0.038 A 
HETATM   29  C   UNL     1       7.205  24.932  54.545  1.00  0.00     0.055 A 
HETATM   30  C   UNL     1       7.681  23.617  54.648  1.00  0.00     0.058 A 
HETATM   31 CL   UNL     1       7.550  22.600  53.255  1.00  0.00    -0.082 Cl
HETATM   32  C   UNL     1       8.242  23.168  55.846  1.00  0.00     0.055 A 
HETATM   33 CL   UNL     1       8.856  21.566  56.045  1.00  0.00    -0.083 Cl
HETATM   34  C   UNL     1       8.324  24.036  56.937  1.00  0.00     0.028 A 
HETATM   35  C   UNL     1       7.841  25.344  56.832  1.00  0.00     0.031 A 
ENDBRANCH  24  28
ENDBRANCH   2  22
TORSDOF 6
ENDMDL
