MODEL 1
REMARK VINA RESULT:      -8.5      0.000      0.000
REMARK  4 active torsions:
REMARK  status: ('A' for Active; 'I' for Inactive)
REMARK    1  A    between atoms: O_2  and  C_3 
REMARK    2  A    between atoms: C_4  and  C_5 
REMARK    3  A    between atoms: C_9  and  N_10 
REMARK    4  A    between atoms: C_13  and  C_14 
ROOT
HETATM    1  C   UNL     1       6.188  27.518  55.375  1.00  0.00     0.167 C 
HETATM    2  N   UNL     1       7.375  28.060  56.033  1.00  0.00    -0.074 N 
HETATM    3  C   UNL     1       8.019  27.441  57.071  1.00  0.00     0.736 A 
HETATM    4  N   UNL     1       9.123  28.088  57.336  1.00  0.00     0.131 NA
HETATM    5  C   UNL     1       9.136  29.073  56.395  1.00  0.00     0.753 A 
HETATM    6  N   UNL     1       8.100  29.093  55.561  1.00  0.00     0.037 NA
HETATM    7  N   UNL     1       7.540  26.309  57.629  1.00  0.00    -0.214 N 
HETATM    8  C   UNL     1       6.474  25.556  56.981  1.00  0.00     0.135 C 
HETATM    9  C   UNL     1       5.477  26.511  56.301  1.00  0.00     0.063 C 
HETATM   10  H   UNL     1       8.185  25.770  58.200  1.00  0.00     0.178 HD
ENDROOT
BRANCH   1  11
HETATM   11  C   UNL     1       5.230  28.613  54.921  1.00  0.00     0.001 A 
HETATM   12  C   UNL     1       5.060  28.902  53.556  1.00  0.00     0.076 A 
HETATM   13  C   UNL     1       4.153  29.889  53.152  1.00  0.00     0.037 A 
HETATM   14  C   UNL     1       3.433  30.616  54.099  1.00  0.00     0.003 A 
HETATM   15  C   UNL     1       3.608  30.356  55.454  1.00  0.00     0.001 A 
HETATM   16  C   UNL     1       4.498  29.363  55.863  1.00  0.00     0.012 A 
BRANCH  12  17
HETATM   17  O   UNL     1       5.766  28.141  52.659  1.00  0.00    -0.355 OA
HETATM   18  C   UNL     1       4.960  27.405  51.742  1.00  0.00     0.210 C 
ENDBRANCH  12  17
ENDBRANCH   1  11
BRANCH   8  19
HETATM   19  C   UNL     1       6.981  24.462  56.052  1.00  0.00    -0.035 A 
HETATM   20  C   UNL     1       7.871  23.500  56.569  1.00  0.00     0.010 A 
HETATM   21  C   UNL     1       8.356  22.462  55.770  1.00  0.00     0.019 A 
HETATM   22  C   UNL     1       7.954  22.369  54.441  1.00  0.00     0.011 A 
HETATM   23 BR   UNL     1       8.607  20.964  53.359  1.00  0.00    -0.051 Br
HETATM   24  C   UNL     1       7.075  23.305  53.907  1.00  0.00     0.019 A 
HETATM   25  C   UNL     1       6.592  24.345  54.707  1.00  0.00     0.010 A 
ENDBRANCH   8  19
BRANCH   5  26
HETATM   26  N   UNL     1      10.154  29.929  56.382  1.00  0.00    -0.229 N 
HETATM   27  H   UNL     1      10.970  29.665  56.917  1.00  0.00     0.174 HD
HETATM   28  H   UNL     1       9.915  30.910  56.426  1.00  0.00     0.174 HD
ENDBRANCH   5  26
TORSDOF 4
ENDMDL
MODEL 2
REMARK VINA RESULT:      -8.5      3.721      6.665
REMARK  4 active torsions:
REMARK  status: ('A' for Active; 'I' for Inactive)
REMARK    1  A    between atoms: O_2  and  C_3 
REMARK    2  A    between atoms: C_4  and  C_5 
REMARK    3  A    between atoms: C_9  and  N_10 
REMARK    4  A    between atoms: C_13  and  C_14 
ROOT
HETATM    1  C   UNL     1       7.063  25.344  54.783  1.00  0.00     0.167 C 
HETATM    2  N   UNL     1       6.343  25.944  53.662  1.00  0.00    -0.074 N 
HETATM    3  C   UNL     1       5.207  26.696  53.803  1.00  0.00     0.736 A 
HETATM    4  N   UNL     1       4.891  27.215  52.646  1.00  0.00     0.131 NA
HETATM    5  C   UNL     1       5.899  26.790  51.833  1.00  0.00     0.753 A 
HETATM    6  N   UNL     1       6.823  26.024  52.406  1.00  0.00     0.037 NA
HETATM    7  N   UNL     1       4.611  26.863  55.002  1.00  0.00    -0.214 N 
HETATM    8  C   UNL     1       5.295  26.479  56.230  1.00  0.00     0.135 C 
HETATM    9  C   UNL     1       6.133  25.208  56.004  1.00  0.00     0.063 C 
HETATM   10  H   UNL     1       3.945  27.626  55.081  1.00  0.00     0.178 HD
ENDROOT
BRANCH   1  11
HETATM   11  C   UNL     1       7.684  24.001  54.417  1.00  0.00     0.001 A 
HETATM   12  C   UNL     1       8.735  23.461  55.179  1.00  0.00     0.076 A 
HETATM   13  C   UNL     1       9.274  22.211  54.849  1.00  0.00     0.037 A 
HETATM   14  C   UNL     1       8.796  21.505  53.745  1.00  0.00     0.003 A 
HETATM   15  C   UNL     1       7.772  22.038  52.970  1.00  0.00     0.001 A 
HETATM   16  C   UNL     1       7.219  23.275  53.301  1.00  0.00     0.012 A 
BRANCH  12  17
HETATM   17  O   UNL     1       9.150  24.176  56.273  1.00  0.00    -0.355 OA
HETATM   18  C   UNL     1       8.739  23.635  57.527  1.00  0.00     0.210 C 
ENDBRANCH  12  17
ENDBRANCH   1  11
BRANCH   8  19
HETATM   19  C   UNL     1       6.089  27.613  56.864  1.00  0.00    -0.035 A 
HETATM   20  C   UNL     1       5.478  28.877  56.983  1.00  0.00     0.010 A 
HETATM   21  C   UNL     1       6.150  29.951  57.571  1.00  0.00     0.019 A 
HETATM   22  C   UNL     1       7.443  29.775  58.054  1.00  0.00     0.011 A 
HETATM   23 BR   UNL     1       8.353  31.225  58.853  1.00  0.00    -0.051 Br
HETATM   24  C   UNL     1       8.067  28.536  57.951  1.00  0.00     0.019 A 
HETATM   25  C   UNL     1       7.395  27.462  57.359  1.00  0.00     0.010 A 
ENDBRANCH   8  19
BRANCH   5  26
HETATM   26  N   UNL     1       5.883  27.155  50.554  1.00  0.00    -0.229 N 
HETATM   27  H   UNL     1       5.055  27.637  50.234  1.00  0.00     0.174 HD
HETATM   28  H   UNL     1       6.274  26.495  49.895  1.00  0.00     0.174 HD
ENDBRANCH   5  26
TORSDOF 4
ENDMDL
MODEL 3
REMARK VINA RESULT:      -8.0      1.055      1.905
REMARK  4 active torsions:
REMARK  status: ('A' for Active; 'I' for Inactive)
REMARK    1  A    between atoms: O_2  and  C_3 
REMARK    2  A    between atoms: C_4  and  C_5 
REMARK    3  A    between atoms: C_9  and  N_10 
REMARK    4  A    between atoms: C_13  and  C_14 
ROOT
HETATM    1  C   UNL     1       6.166  27.400  55.343  1.00  0.00     0.167 C 
HETATM    2  N   UNL     1       7.348  27.961  55.994  1.00  0.00    -0.074 N 
HETATM    3  C   UNL     1       8.003  27.355  57.033  1.00  0.00     0.736 A 
HETATM    4  N   UNL     1       9.100  28.018  57.291  1.00  0.00     0.131 NA
HETATM    5  C   UNL     1       9.097  28.998  56.344  1.00  0.00     0.753 A 
HETATM    6  N   UNL     1       8.058  28.999  55.514  1.00  0.00     0.037 NA
HETATM    7  N   UNL     1       7.541  26.221  57.599  1.00  0.00    -0.214 N 
HETATM    8  C   UNL     1       6.482  25.451  56.959  1.00  0.00     0.135 C 
HETATM    9  C   UNL     1       5.471  26.389  56.277  1.00  0.00     0.063 C 
HETATM   10  H   UNL     1       8.195  25.694  58.171  1.00  0.00     0.178 HD
ENDROOT
BRANCH   1  11
HETATM   11  C   UNL     1       5.192  28.480  54.886  1.00  0.00     0.001 A 
HETATM   12  C   UNL     1       4.611  29.365  55.811  1.00  0.00     0.076 A 
HETATM   13  C   UNL     1       3.743  30.372  55.372  1.00  0.00     0.037 A 
HETATM   14  C   UNL     1       3.421  30.487  54.020  1.00  0.00     0.003 A 
HETATM   15  C   UNL     1       3.972  29.604  53.097  1.00  0.00     0.001 A 
HETATM   16  C   UNL     1       4.850  28.608  53.525  1.00  0.00     0.012 A 
BRANCH  12  17
HETATM   17  O   UNL     1       4.981  29.234  57.125  1.00  0.00    -0.355 OA
HETATM   18  C   UNL     1       5.414  30.443  57.744  1.00  0.00     0.210 C 
ENDBRANCH  12  17
ENDBRANCH   1  11
BRANCH   8  19
HETATM   19  C   UNL     1       7.000  24.358  56.035  1.00  0.00    -0.035 A 
HETATM   20  C   UNL     1       7.856  23.375  56.569  1.00  0.00     0.010 A 
HETATM   21  C   UNL     1       8.349  22.337  55.775  1.00  0.00     0.019 A 
HETATM   22  C   UNL     1       7.989  22.265  54.433  1.00  0.00     0.011 A 
HETATM   23 BR   UNL     1       8.652  20.861  53.356  1.00  0.00    -0.051 Br
HETATM   24  C   UNL     1       7.143  23.222  53.881  1.00  0.00     0.019 A 
HETATM   25  C   UNL     1       6.652  24.262  54.677  1.00  0.00     0.010 A 
ENDBRANCH   8  19
BRANCH   5  26
HETATM   26  N   UNL     1      10.104  29.867  56.323  1.00  0.00    -0.229 N 
HETATM   27  H   UNL     1      10.412  30.175  55.411  1.00  0.00     0.174 HD
HETATM   28  H   UNL     1      10.845  29.710  56.993  1.00  0.00     0.174 HD
ENDBRANCH   5  26
TORSDOF 4
ENDMDL
MODEL 4
REMARK VINA RESULT:      -7.7      3.426      6.759
REMARK  4 active torsions:
REMARK  status: ('A' for Active; 'I' for Inactive)
REMARK    1  A    between atoms: O_2  and  C_3 
REMARK    2  A    between atoms: C_4  and  C_5 
REMARK    3  A    between atoms: C_9  and  N_10 
REMARK    4  A    between atoms: C_13  and  C_14 
ROOT
HETATM    1  C   UNL     1       6.855  24.701  53.655  1.00  0.00     0.167 C 
HETATM    2  N   UNL     1       6.255  25.262  54.863  1.00  0.00    -0.074 N 
HETATM    3  C   UNL     1       6.135  26.606  55.099  1.00  0.00     0.736 A 
HETATM    4  N   UNL     1       5.424  26.788  56.181  1.00  0.00     0.131 NA
HETATM    5  C   UNL     1       5.088  25.519  56.545  1.00  0.00     0.753 A 
HETATM    6  N   UNL     1       5.554  24.548  55.765  1.00  0.00     0.037 NA
HETATM    7  N   UNL     1       6.654  27.523  54.256  1.00  0.00    -0.214 N 
HETATM    8  C   UNL     1       7.125  27.133  52.934  1.00  0.00     0.135 C 
HETATM    9  C   UNL     1       7.775  25.739  52.983  1.00  0.00     0.063 C 
HETATM   10  H   UNL     1       6.311  28.475  54.346  1.00  0.00     0.178 HD
ENDROOT
BRANCH   1  11
HETATM   11  C   UNL     1       7.606  23.404  53.933  1.00  0.00     0.001 A 
HETATM   12  C   UNL     1       8.548  23.326  54.974  1.00  0.00     0.076 A 
HETATM   13  C   UNL     1       9.208  22.119  55.238  1.00  0.00     0.037 A 
HETATM   14  C   UNL     1       8.961  20.993  54.452  1.00  0.00     0.003 A 
HETATM   15  C   UNL     1       8.048  21.064  53.405  1.00  0.00     0.001 A 
HETATM   16  C   UNL     1       7.375  22.257  53.147  1.00  0.00     0.012 A 
BRANCH  12  17
HETATM   17  O   UNL     1       8.734  24.448  55.739  1.00  0.00    -0.355 OA
HETATM   18  C   UNL     1       8.852  24.200  57.139  1.00  0.00     0.210 C 
ENDBRANCH  12  17
ENDBRANCH   1  11
BRANCH   8  19
HETATM   19  C   UNL     1       6.063  27.259  51.850  1.00  0.00    -0.035 A 
HETATM   20  C   UNL     1       5.421  28.501  51.678  1.00  0.00     0.010 A 
HETATM   21  C   UNL     1       4.452  28.682  50.689  1.00  0.00     0.019 A 
HETATM   22  C   UNL     1       4.113  27.622  49.853  1.00  0.00     0.011 A 
HETATM   23 BR   UNL     1       2.804  27.865  48.512  1.00  0.00    -0.051 Br
HETATM   24  C   UNL     1       4.734  26.386  50.000  1.00  0.00     0.019 A 
HETATM   25  C   UNL     1       5.702  26.206  50.993  1.00  0.00     0.010 A 
ENDBRANCH   8  19
BRANCH   5  26
HETATM   26  N   UNL     1       4.341  25.345  57.633  1.00  0.00    -0.229 N 
HETATM   27  H   UNL     1       4.543  25.948  58.418  1.00  0.00     0.174 HD
HETATM   28  H   UNL     1       4.120  24.389  57.875  1.00  0.00     0.174 HD
ENDBRANCH   5  26
TORSDOF 4
ENDMDL
MODEL 5
REMARK VINA RESULT:      -7.7      3.141      5.538
REMARK  4 active torsions:
REMARK  status: ('A' for Active; 'I' for Inactive)
REMARK    1  A    between atoms: O_2  and  C_3 
REMARK    2  A    between atoms: C_4  and  C_5 
REMARK    3  A    between atoms: C_9  and  N_10 
REMARK    4  A    between atoms: C_13  and  C_14 
ROOT
HETATM    1  C   UNL     1       6.745  29.134  56.855  1.00  0.00     0.167 C 
HETATM    2  N   UNL     1       6.834  27.734  57.264  1.00  0.00    -0.074 N 
HETATM    3  C   UNL     1       5.819  26.828  57.099  1.00  0.00     0.736 A 
HETATM    4  N   UNL     1       6.255  25.637  57.416  1.00  0.00     0.131 NA
HETATM    5  C   UNL     1       7.563  25.859  57.723  1.00  0.00     0.753 A 
HETATM    6  N   UNL     1       7.975  27.120  57.630  1.00  0.00     0.037 NA
HETATM    7  N   UNL     1       4.612  27.194  56.621  1.00  0.00    -0.214 N 
HETATM    8  C   UNL     1       4.421  28.504  56.011  1.00  0.00     0.135 C 
HETATM    9  C   UNL     1       5.269  29.563  56.737  1.00  0.00     0.063 C 
HETATM   10  H   UNL     1       4.008  26.450  56.282  1.00  0.00     0.178 HD
ENDROOT
BRANCH   1  11
HETATM   11  C   UNL     1       7.508  30.058  57.797  1.00  0.00     0.001 A 
HETATM   12  C   UNL     1       8.879  30.306  57.609  1.00  0.00     0.076 A 
HETATM   13  C   UNL     1       9.560  31.182  58.463  1.00  0.00     0.037 A 
HETATM   14  C   UNL     1       8.894  31.792  59.525  1.00  0.00     0.003 A 
HETATM   15  C   UNL     1       7.543  31.539  59.735  1.00  0.00     0.001 A 
HETATM   16  C   UNL     1       6.854  30.680  58.880  1.00  0.00     0.012 A 
BRANCH  12  17
HETATM   17  O   UNL     1       9.485  29.708  56.533  1.00  0.00    -0.355 OA
HETATM   18  C   UNL     1      10.876  29.446  56.705  1.00  0.00     0.210 C 
ENDBRANCH  12  17
ENDBRANCH   1  11
BRANCH   8  19
HETATM   19  C   UNL     1       4.624  28.506  54.503  1.00  0.00    -0.035 A 
HETATM   20  C   UNL     1       4.368  29.696  53.792  1.00  0.00     0.010 A 
HETATM   21  C   UNL     1       4.554  29.764  52.409  1.00  0.00     0.019 A 
HETATM   22  C   UNL     1       5.003  28.643  51.717  1.00  0.00     0.011 A 
HETATM   23 BR   UNL     1       5.257  28.734  49.846  1.00  0.00    -0.051 Br
HETATM   24  C   UNL     1       5.264  27.458  52.396  1.00  0.00     0.019 A 
HETATM   25  C   UNL     1       5.076  27.390  53.780  1.00  0.00     0.010 A 
ENDBRANCH   8  19
BRANCH   5  26
HETATM   26  N   UNL     1       8.316  24.826  58.092  1.00  0.00    -0.229 N 
HETATM   27  H   UNL     1       9.273  24.829  57.769  1.00  0.00     0.174 HD
HETATM   28  H   UNL     1       7.866  23.920  58.087  1.00  0.00     0.174 HD
ENDBRANCH   5  26
TORSDOF 4
ENDMDL
MODEL 6
REMARK VINA RESULT:      -7.3      2.993      5.930
REMARK  4 active torsions:
REMARK  status: ('A' for Active; 'I' for Inactive)
REMARK    1  A    between atoms: O_2  and  C_3 
REMARK    2  A    between atoms: C_4  and  C_5 
REMARK    3  A    between atoms: C_9  and  N_10 
REMARK    4  A    between atoms: C_13  and  C_14 
ROOT
HETATM    1  C   UNL     1       6.373  26.381  54.289  1.00  0.00     0.167 C 
HETATM    2  N   UNL     1       5.640  27.511  54.854  1.00  0.00    -0.074 N 
HETATM    3  C   UNL     1       5.494  28.717  54.220  1.00  0.00     0.736 A 
HETATM    4  N   UNL     1       4.665  29.461  54.904  1.00  0.00     0.131 NA
HETATM    5  C   UNL     1       4.289  28.643  55.926  1.00  0.00     0.753 A 
HETATM    6  N   UNL     1       4.841  27.433  55.935  1.00  0.00     0.037 NA
HETATM    7  N   UNL     1       6.106  28.980  53.047  1.00  0.00    -0.214 N 
HETATM    8  C   UNL     1       6.725  27.909  52.276  1.00  0.00     0.135 C 
HETATM    9  C   UNL     1       7.364  26.871  53.215  1.00  0.00     0.063 C 
HETATM   10  H   UNL     1       5.755  29.770  52.514  1.00  0.00     0.178 HD
ENDROOT
BRANCH   1  11
HETATM   11  C   UNL     1       7.088  25.564  55.359  1.00  0.00     0.001 A 
HETATM   12  C   UNL     1       7.190  24.166  55.251  1.00  0.00     0.076 A 
HETATM   13  C   UNL     1       7.876  23.432  56.226  1.00  0.00     0.037 A 
HETATM   14  C   UNL     1       8.438  24.076  57.328  1.00  0.00     0.003 A 
HETATM   15  C   UNL     1       8.326  25.456  57.459  1.00  0.00     0.001 A 
HETATM   16  C   UNL     1       7.657  26.195  56.484  1.00  0.00     0.012 A 
BRANCH  12  17
HETATM   17  O   UNL     1       6.649  23.581  54.135  1.00  0.00    -0.355 OA
HETATM   18  C   UNL     1       7.600  22.973  53.263  1.00  0.00     0.210 C 
ENDBRANCH  12  17
ENDBRANCH   1  11
BRANCH   8  19
HETATM   19  C   UNL     1       5.794  27.289  51.245  1.00  0.00    -0.035 A 
HETATM   20  C   UNL     1       5.318  28.098  50.194  1.00  0.00     0.010 A 
HETATM   21  C   UNL     1       4.476  27.580  49.208  1.00  0.00     0.019 A 
HETATM   22  C   UNL     1       4.100  26.241  49.255  1.00  0.00     0.011 A 
HETATM   23 BR   UNL     1       2.962  25.537  47.921  1.00  0.00    -0.051 Br
HETATM   24  C   UNL     1       4.557  25.420  50.281  1.00  0.00     0.019 A 
HETATM   25  C   UNL     1       5.398  25.940  51.269  1.00  0.00     0.010 A 
ENDBRANCH   8  19
BRANCH   5  26
HETATM   26  N   UNL     1       3.423  29.104  56.825  1.00  0.00    -0.229 N 
HETATM   27  H   UNL     1       2.498  29.328  56.486  1.00  0.00     0.174 HD
HETATM   28  H   UNL     1       3.792  29.747  57.513  1.00  0.00     0.174 HD
ENDBRANCH   5  26
TORSDOF 4
ENDMDL
MODEL 7
REMARK VINA RESULT:      -7.2      2.921      5.434
REMARK  4 active torsions:
REMARK  status: ('A' for Active; 'I' for Inactive)
REMARK    1  A    between atoms: O_2  and  C_3 
REMARK    2  A    between atoms: C_4  and  C_5 
REMARK    3  A    between atoms: C_9  and  N_10 
REMARK    4  A    between atoms: C_13  and  C_14 
ROOT
HETATM    1  C   UNL     1       7.383  28.397  55.931  1.00  0.00     0.167 C 
HETATM    2  N   UNL     1       7.245  27.108  56.604  1.00  0.00    -0.074 N 
HETATM    3  C   UNL     1       6.055  26.442  56.734  1.00  0.00     0.736 A 
HETATM    4  N   UNL     1       6.281  25.258  57.241  1.00  0.00     0.131 NA
HETATM    5  C   UNL     1       7.638  25.227  57.356  1.00  0.00     0.753 A 
HETATM    6  N   UNL     1       8.279  26.325  56.965  1.00  0.00     0.037 NA
HETATM    7  N   UNL     1       4.890  26.983  56.322  1.00  0.00    -0.214 N 
HETATM    8  C   UNL     1       4.882  28.174  55.482  1.00  0.00     0.135 C 
HETATM    9  C   UNL     1       6.024  29.123  55.883  1.00  0.00     0.063 C 
HETATM   10  H   UNL     1       4.105  26.349  56.207  1.00  0.00     0.178 HD
ENDROOT
BRANCH   1  11
HETATM   11  C   UNL     1       8.449  29.274  56.578  1.00  0.00     0.001 A 
HETATM   12  C   UNL     1       8.159  30.031  57.726  1.00  0.00     0.076 A 
HETATM   13  C   UNL     1       9.157  30.808  58.328  1.00  0.00     0.037 A 
HETATM   14  C   UNL     1      10.437  30.863  57.778  1.00  0.00     0.003 A 
HETATM   15  C   UNL     1      10.731  30.136  56.629  1.00  0.00     0.001 A 
HETATM   16  C   UNL     1       9.747  29.347  56.033  1.00  0.00     0.012 A 
BRANCH  12  17
HETATM   17  O   UNL     1       6.896  29.922  58.250  1.00  0.00    -0.355 OA
HETATM   18  C   UNL     1       6.350  31.144  58.743  1.00  0.00     0.210 C 
ENDBRANCH  12  17
ENDBRANCH   1  11
BRANCH   8  19
HETATM   19  C   UNL     1       4.857  27.865  53.992  1.00  0.00    -0.035 A 
HETATM   20  C   UNL     1       4.740  28.937  53.084  1.00  0.00     0.010 A 
HETATM   21  C   UNL     1       4.730  28.717  51.705  1.00  0.00     0.019 A 
HETATM   22  C   UNL     1       4.841  27.421  51.212  1.00  0.00     0.011 A 
HETATM   23 BR   UNL     1       4.829  27.121  49.346  1.00  0.00    -0.051 Br
HETATM   24  C   UNL     1       4.959  26.345  52.086  1.00  0.00     0.019 A 
HETATM   25  C   UNL     1       4.967  26.566  53.467  1.00  0.00     0.010 A 
ENDBRANCH   8  19
BRANCH   5  26
HETATM   26  N   UNL     1       8.211  24.131  57.847  1.00  0.00    -0.229 N 
HETATM   27  H   UNL     1       7.589  23.422  58.208  1.00  0.00     0.174 HD
HETATM   28  H   UNL     1       9.057  24.271  58.384  1.00  0.00     0.174 HD
ENDBRANCH   5  26
TORSDOF 4
ENDMDL
MODEL 8
REMARK VINA RESULT:      -7.2      2.845      4.424
REMARK  4 active torsions:
REMARK  status: ('A' for Active; 'I' for Inactive)
REMARK    1  A    between atoms: O_2  and  C_3 
REMARK    2  A    between atoms: C_4  and  C_5 
REMARK    3  A    between atoms: C_9  and  N_10 
REMARK    4  A    between atoms: C_13  and  C_14 
ROOT
HETATM    1  C   UNL     1       5.908  28.393  54.961  1.00  0.00     0.167 C 
HETATM    2  N   UNL     1       5.036  28.383  53.789  1.00  0.00    -0.074 N 
HETATM    3  C   UNL     1       5.411  27.889  52.567  1.00  0.00     0.736 A 
HETATM    4  N   UNL     1       4.371  27.879  51.774  1.00  0.00     0.131 NA
HETATM    5  C   UNL     1       3.368  28.332  52.576  1.00  0.00     0.753 A 
HETATM    6  N   UNL     1       3.714  28.639  53.822  1.00  0.00     0.037 NA
HETATM    7  N   UNL     1       6.665  27.450  52.334  1.00  0.00    -0.214 N 
HETATM    8  C   UNL     1       7.593  27.234  53.436  1.00  0.00     0.135 C 
HETATM    9  C   UNL     1       7.385  28.296  54.530  1.00  0.00     0.063 C 
HETATM   10  H   UNL     1       6.802  26.866  51.513  1.00  0.00     0.178 HD
ENDROOT
BRANCH   1  11
HETATM   11  C   UNL     1       5.675  29.616  55.842  1.00  0.00     0.001 A 
HETATM   12  C   UNL     1       6.029  29.602  57.202  1.00  0.00     0.076 A 
HETATM   13  C   UNL     1       5.838  30.743  57.991  1.00  0.00     0.037 A 
HETATM   14  C   UNL     1       5.268  31.892  57.444  1.00  0.00     0.003 A 
HETATM   15  C   UNL     1       4.894  31.912  56.105  1.00  0.00     0.001 A 
HETATM   16  C   UNL     1       5.095  30.785  55.309  1.00  0.00     0.012 A 
BRANCH  12  17
HETATM   17  O   UNL     1       6.614  28.461  57.688  1.00  0.00    -0.355 OA
HETATM   18  C   UNL     1       7.967  28.620  58.109  1.00  0.00     0.210 C 
ENDBRANCH  12  17
ENDBRANCH   1  11
BRANCH   8  19
HETATM   19  C   UNL     1       7.575  25.810  53.974  1.00  0.00    -0.035 A 
HETATM   20  C   UNL     1       7.754  24.746  53.068  1.00  0.00     0.010 A 
HETATM   21  C   UNL     1       7.765  23.420  53.506  1.00  0.00     0.019 A 
HETATM   22  C   UNL     1       7.603  23.138  54.858  1.00  0.00     0.011 A 
HETATM   23 BR   UNL     1       7.620  21.344  55.453  1.00  0.00    -0.051 Br
HETATM   24  C   UNL     1       7.428  24.170  55.774  1.00  0.00     0.019 A 
HETATM   25  C   UNL     1       7.413  25.498  55.335  1.00  0.00     0.010 A 
ENDBRANCH   8  19
BRANCH   5  26
HETATM   26  N   UNL     1       2.144  28.440  52.065  1.00  0.00    -0.229 N 
HETATM   27  H   UNL     1       2.072  28.403  51.058  1.00  0.00     0.174 HD
HETATM   28  H   UNL     1       1.530  29.108  52.512  1.00  0.00     0.174 HD
ENDBRANCH   5  26
TORSDOF 4
ENDMDL
MODEL 9
REMARK VINA RESULT:      -7.1      3.560      6.330
REMARK  4 active torsions:
REMARK  status: ('A' for Active; 'I' for Inactive)
REMARK    1  A    between atoms: O_2  and  C_3 
REMARK    2  A    between atoms: C_4  and  C_5 
REMARK    3  A    between atoms: C_9  and  N_10 
REMARK    4  A    between atoms: C_13  and  C_14 
ROOT
HETATM    1  C   UNL     1       6.395  27.673  54.037  1.00  0.00     0.167 C 
HETATM    2  N   UNL     1       6.468  26.248  53.726  1.00  0.00    -0.074 N 
HETATM    3  C   UNL     1       5.428  25.531  53.195  1.00  0.00     0.736 A 
HETATM    4  N   UNL     1       5.848  24.332  52.889  1.00  0.00     0.131 NA
HETATM    5  C   UNL     1       7.172  24.379  53.208  1.00  0.00     0.753 A 
HETATM    6  N   UNL     1       7.608  25.531  53.708  1.00  0.00     0.037 NA
HETATM    7  N   UNL     1       4.213  26.083  53.001  1.00  0.00    -0.214 N 
HETATM    8  C   UNL     1       4.029  27.526  53.096  1.00  0.00     0.135 C 
HETATM    9  C   UNL     1       4.926  28.111  54.200  1.00  0.00     0.063 C 
HETATM   10  H   UNL     1       3.580  25.592  52.376  1.00  0.00     0.178 HD
ENDROOT
BRANCH   1  11
HETATM   11  C   UNL     1       7.214  28.037  55.270  1.00  0.00     0.001 A 
HETATM   12  C   UNL     1       6.858  27.552  56.541  1.00  0.00     0.076 A 
HETATM   13  C   UNL     1       7.637  27.870  57.660  1.00  0.00     0.037 A 
HETATM   14  C   UNL     1       8.755  28.694  57.531  1.00  0.00     0.003 A 
HETATM   15  C   UNL     1       9.105  29.199  56.283  1.00  0.00     0.001 A 
HETATM   16  C   UNL     1       8.343  28.874  55.161  1.00  0.00     0.012 A 
BRANCH  12  17
HETATM   17  O   UNL     1       5.770  26.720  56.614  1.00  0.00    -0.355 OA
HETATM   18  C   UNL     1       6.050  25.420  57.128  1.00  0.00     0.210 C 
ENDBRANCH  12  17
ENDBRANCH   1  11
BRANCH   8  19
HETATM   19  C   UNL     1       4.176  28.245  51.763  1.00  0.00    -0.035 A 
HETATM   20  C   UNL     1       3.598  29.522  51.620  1.00  0.00     0.010 A 
HETATM   21  C   UNL     1       3.715  30.238  50.427  1.00  0.00     0.019 A 
HETATM   22  C   UNL     1       4.417  29.689  49.358  1.00  0.00     0.011 A 
HETATM   23 BR   UNL     1       4.579  30.657  47.743  1.00  0.00    -0.051 Br
HETATM   24  C   UNL     1       4.999  28.431  49.474  1.00  0.00     0.019 A 
HETATM   25  C   UNL     1       4.879  27.714  50.668  1.00  0.00     0.010 A 
ENDBRANCH   8  19
BRANCH   5  26
HETATM   26  N   UNL     1       7.914  23.293  53.009  1.00  0.00    -0.229 N 
HETATM   27  H   UNL     1       7.916  22.915  52.073  1.00  0.00     0.174 HD
HETATM   28  H   UNL     1       7.904  22.602  53.748  1.00  0.00     0.174 HD
ENDBRANCH   5  26
TORSDOF 4
ENDMDL
MODEL 10
REMARK VINA RESULT:      -7.1      5.664      8.757
REMARK  4 active torsions:
REMARK  status: ('A' for Active; 'I' for Inactive)
REMARK    1  A    between atoms: O_2  and  C_3 
REMARK    2  A    between atoms: C_4  and  C_5 
REMARK    3  A    between atoms: C_9  and  N_10 
REMARK    4  A    between atoms: C_13  and  C_14 
ROOT
HETATM    1  C   UNL     1       6.412  32.211  58.847  1.00  0.00     0.167 C 
HETATM    2  N   UNL     1       6.066  30.903  58.295  1.00  0.00    -0.074 N 
HETATM    3  C   UNL     1       4.882  30.636  57.659  1.00  0.00     0.736 A 
HETATM    4  N   UNL     1       4.934  29.434  57.147  1.00  0.00     0.131 NA
HETATM    5  C   UNL     1       6.196  29.023  57.454  1.00  0.00     0.753 A 
HETATM    6  N   UNL     1       6.937  29.888  58.140  1.00  0.00     0.037 NA
HETATM    7  N   UNL     1       3.898  31.555  57.576  1.00  0.00    -0.214 N 
HETATM    8  C   UNL     1       4.152  32.948  57.921  1.00  0.00     0.135 C 
HETATM    9  C   UNL     1       5.137  33.039  59.099  1.00  0.00     0.063 C 
HETATM   10  H   UNL     1       3.173  31.391  56.883  1.00  0.00     0.178 HD
ENDROOT
BRANCH   1  11
HETATM   11  C   UNL     1       7.250  32.097  60.115  1.00  0.00     0.001 A 
HETATM   12  C   UNL     1       8.652  32.185  60.064  1.00  0.00     0.076 A 
HETATM   13  C   UNL     1       9.406  32.110  61.241  1.00  0.00     0.037 A 
HETATM   14  C   UNL     1       8.778  31.917  62.471  1.00  0.00     0.003 A 
HETATM   15  C   UNL     1       7.393  31.806  62.534  1.00  0.00     0.001 A 
HETATM   16  C   UNL     1       6.634  31.896  61.367  1.00  0.00     0.012 A 
BRANCH  12  17
HETATM   17  O   UNL     1       9.224  32.406  58.837  1.00  0.00    -0.355 OA
HETATM   18  C   UNL     1      10.195  31.436  58.452  1.00  0.00     0.210 C 
ENDBRANCH  12  17
ENDBRANCH   1  11
BRANCH   8  19
HETATM   19  C   UNL     1       4.564  33.802  56.730  1.00  0.00    -0.035 A 
HETATM   20  C   UNL     1       4.798  35.176  56.936  1.00  0.00     0.010 A 
HETATM   21  C   UNL     1       5.196  36.006  55.885  1.00  0.00     0.019 A 
HETATM   22  C   UNL     1       5.371  35.472  54.612  1.00  0.00     0.011 A 
HETATM   23 BR   UNL     1       5.911  36.592  53.190  1.00  0.00    -0.051 Br
HETATM   24  C   UNL     1       5.149  34.118  54.383  1.00  0.00     0.019 A 
HETATM   25  C   UNL     1       4.748  33.288  55.435  1.00  0.00     0.010 A 
ENDBRANCH   8  19
BRANCH   5  26
HETATM   26  N   UNL     1       6.585  27.813  57.063  1.00  0.00    -0.229 N 
HETATM   27  H   UNL     1       6.952  27.205  57.781  1.00  0.00     0.174 HD
HETATM   28  H   UNL     1       7.065  27.762  56.175  1.00  0.00     0.174 HD
ENDBRANCH   5  26
TORSDOF 4
ENDMDL
