MODEL 1
REMARK VINA RESULT:     -10.2      0.000      0.000
REMARK  7 active torsions:
REMARK  status: ('A' for Active; 'I' for Inactive)
REMARK    1  A    between atoms: C_11  and  N_12 
REMARK       I    between atoms: N_12  and  C_13 
REMARK    2  A    between atoms: C_13  and  C_14 
REMARK    3  A    between atoms: C_14  and  S_15 
REMARK    4  A    between atoms: S_15  and  C_16 
REMARK    5  A    between atoms: N_17  and  C_18 
REMARK    6  A    between atoms: C_18  and  C_19 
REMARK    7  A    between atoms: C_25  and  C_26 
ROOT
HETATM    1  N   UNL     1       7.687  30.937  60.612  1.00  0.00    -0.326 N 
HETATM    2  C   UNL     1       7.505  31.319  59.295  1.00  0.00     0.231 C 
HETATM    3  O   UNL     1       7.071  32.415  58.933  1.00  0.00    -0.272 OA
HETATM    4  H   UNL     1       8.178  30.061  60.754  1.00  0.00     0.169 HD
ENDROOT
BRANCH   2   5
HETATM    5  C   UNL     1       7.797  30.271  58.234  1.00  0.00     0.185 C 
BRANCH   5   6
HETATM    6  S   UNL     1       6.336  29.433  57.542  1.00  0.00    -0.081 SA
BRANCH   6   7
HETATM    7  C   UNL     1       6.970  27.816  57.453  1.00  0.00     0.192 A 
HETATM    8  N   UNL     1       6.453  26.791  56.694  1.00  0.00    -0.307 N 
HETATM    9  C   UNL     1       7.194  25.681  57.048  1.00  0.00     0.135 A 
HETATM   10  N   UNL     1       8.157  26.059  57.867  1.00  0.00    -0.134 NA
HETATM   11  N   UNL     1       8.008  27.390  58.129  1.00  0.00    -0.123 NA
BRANCH   8  12
HETATM   12  C   UNL     1       5.535  26.939  55.581  1.00  0.00     0.171 C 
BRANCH  12  13
HETATM   13  C   UNL     1       6.003  26.344  54.276  1.00  0.00    -0.040 A 
HETATM   14  C   UNL     1       7.245  26.654  53.702  1.00  0.00     0.009 A 
HETATM   15  C   UNL     1       7.649  26.045  52.510  1.00  0.00     0.001 A 
HETATM   16  C   UNL     1       6.829  25.106  51.888  1.00  0.00     0.000 A 
HETATM   17  C   UNL     1       5.604  24.771  52.456  1.00  0.00     0.001 A 
HETATM   18  C   UNL     1       5.198  25.379  53.645  1.00  0.00     0.009 A 
ENDBRANCH  12  13
ENDBRANCH   8  12
BRANCH   9  19
HETATM   19  C   UNL     1       7.089  24.199  56.710  1.00  0.00     0.057 A 
HETATM   20  C   UNL     1       7.872  23.655  55.536  1.00  0.00     0.013 A 
HETATM   21  C   UNL     1       8.181  23.183  56.917  1.00  0.00     0.013 A 
ENDBRANCH   9  19
ENDBRANCH   6   7
ENDBRANCH   5   6
ENDBRANCH   2   5
BRANCH   1  22
HETATM   22  C   UNL     1       7.343  31.683  61.764  1.00  0.00     0.037 A 
HETATM   23  C   UNL     1       8.278  32.091  62.723  1.00  0.00     0.032 A 
HETATM   24  C   UNL     1       7.889  32.842  63.836  1.00  0.00     0.041 A 
HETATM   25  C   UNL     1       6.560  33.209  63.993  1.00  0.00     0.096 A 
HETATM   26  O   UNL     1       6.246  33.909  65.125  1.00  0.00    -0.335 OA
HETATM   27  C   UNL     1       5.613  32.802  63.050  1.00  0.00     0.070 A 
HETATM   28  C   UNL     1       5.018  34.624  65.025  1.00  0.00     0.217 C 
HETATM   29  C   UNL     1       4.602  35.017  66.438  1.00  0.00     0.050 C 
HETATM   30  C   UNL     1       3.866  33.916  64.292  1.00  0.00     0.251 C 
HETATM   31  N   UNL     1       4.266  33.118  63.249  1.00  0.00    -0.323 N 
HETATM   32  O   UNL     1       2.673  34.105  64.519  1.00  0.00    -0.270 OA
HETATM   33  H   UNL     1       3.539  32.714  62.675  1.00  0.00     0.169 HD
HETATM   34  C   UNL     1       6.000  32.044  61.938  1.00  0.00     0.062 A 
ENDBRANCH   1  22
TORSDOF 7
ENDMDL
MODEL 2
REMARK VINA RESULT:     -10.0      1.816      3.006
REMARK  7 active torsions:
REMARK  status: ('A' for Active; 'I' for Inactive)
REMARK    1  A    between atoms: C_11  and  N_12 
REMARK       I    between atoms: N_12  and  C_13 
REMARK    2  A    between atoms: C_13  and  C_14 
REMARK    3  A    between atoms: C_14  and  S_15 
REMARK    4  A    between atoms: S_15  and  C_16 
REMARK    5  A    between atoms: N_17  and  C_18 
REMARK    6  A    between atoms: C_18  and  C_19 
REMARK    7  A    between atoms: C_25  and  C_26 
ROOT
HETATM    1  N   UNL     1       7.084  31.197  59.047  1.00  0.00    -0.326 N 
HETATM    2  C   UNL     1       7.652  30.077  58.468  1.00  0.00     0.231 C 
HETATM    3  O   UNL     1       8.376  29.272  59.055  1.00  0.00    -0.272 OA
HETATM    4  H   UNL     1       6.404  31.693  58.481  1.00  0.00     0.169 HD
ENDROOT
BRANCH   2   5
HETATM    5  C   UNL     1       7.414  29.885  56.979  1.00  0.00     0.185 C 
BRANCH   5   6
HETATM    6  S   UNL     1       8.106  28.357  56.269  1.00  0.00    -0.081 SA
BRANCH   6   7
HETATM    7  C   UNL     1       6.698  27.796  55.415  1.00  0.00     0.192 A 
HETATM    8  N   UNL     1       6.705  27.068  54.247  1.00  0.00    -0.307 N 
HETATM    9  C   UNL     1       5.377  26.977  53.880  1.00  0.00     0.135 A 
HETATM   10  N   UNL     1       4.638  27.511  54.833  1.00  0.00    -0.134 NA
HETATM   11  N   UNL     1       5.464  28.034  55.785  1.00  0.00    -0.123 NA
BRANCH   8  12
HETATM   12  C   UNL     1       7.836  26.336  53.710  1.00  0.00     0.171 C 
BRANCH  12  13
HETATM   13  C   UNL     1       7.772  24.838  53.874  1.00  0.00    -0.040 A 
HETATM   14  C   UNL     1       8.053  23.946  52.829  1.00  0.00     0.009 A 
HETATM   15  C   UNL     1       8.018  22.565  53.043  1.00  0.00     0.001 A 
HETATM   16  C   UNL     1       7.721  22.058  54.306  1.00  0.00     0.000 A 
HETATM   17  C   UNL     1       7.462  22.929  55.360  1.00  0.00     0.001 A 
HETATM   18  C   UNL     1       7.495  24.309  55.147  1.00  0.00     0.009 A 
ENDBRANCH  12  13
ENDBRANCH   8  12
BRANCH   9  19
HETATM   19  C   UNL     1       4.665  26.436  52.646  1.00  0.00     0.057 A 
HETATM   20  C   UNL     1       5.481  26.076  51.425  1.00  0.00     0.013 A 
HETATM   21  C   UNL     1       4.736  25.013  52.158  1.00  0.00     0.013 A 
ENDBRANCH   9  19
ENDBRANCH   6   7
ENDBRANCH   5   6
ENDBRANCH   2   5
BRANCH   1  22
HETATM   22  C   UNL     1       7.287  31.661  60.369  1.00  0.00     0.037 A 
HETATM   23  C   UNL     1       8.553  31.798  60.950  1.00  0.00     0.032 A 
HETATM   24  C   UNL     1       8.700  32.279  62.254  1.00  0.00     0.041 A 
HETATM   25  C   UNL     1       7.580  32.644  62.988  1.00  0.00     0.096 A 
HETATM   26  O   UNL     1       7.798  33.068  64.269  1.00  0.00    -0.335 OA
HETATM   27  C   UNL     1       6.309  32.505  62.426  1.00  0.00     0.070 A 
HETATM   28  C   UNL     1       6.718  33.828  64.804  1.00  0.00     0.217 C 
HETATM   29  C   UNL     1       6.907  33.891  66.315  1.00  0.00     0.050 C 
HETATM   30  C   UNL     1       5.298  33.354  64.450  1.00  0.00     0.251 C 
HETATM   31  N   UNL     1       5.182  32.811  63.193  1.00  0.00    -0.323 N 
HETATM   32  O   UNL     1       4.308  33.526  65.157  1.00  0.00    -0.270 OA
HETATM   33  H   UNL     1       4.250  32.580  62.878  1.00  0.00     0.169 HD
HETATM   34  C   UNL     1       6.159  32.018  61.122  1.00  0.00     0.062 A 
ENDBRANCH   1  22
TORSDOF 7
ENDMDL
MODEL 3
REMARK VINA RESULT:      -9.9      1.692      2.868
REMARK  7 active torsions:
REMARK  status: ('A' for Active; 'I' for Inactive)
REMARK    1  A    between atoms: C_11  and  N_12 
REMARK       I    between atoms: N_12  and  C_13 
REMARK    2  A    between atoms: C_13  and  C_14 
REMARK    3  A    between atoms: C_14  and  S_15 
REMARK    4  A    between atoms: S_15  and  C_16 
REMARK    5  A    between atoms: N_17  and  C_18 
REMARK    6  A    between atoms: C_18  and  C_19 
REMARK    7  A    between atoms: C_25  and  C_26 
ROOT
HETATM    1  N   UNL     1       6.998  31.437  59.862  1.00  0.00    -0.326 N 
HETATM    2  C   UNL     1       7.788  30.478  59.253  1.00  0.00     0.231 C 
HETATM    3  O   UNL     1       8.680  29.841  59.816  1.00  0.00    -0.272 OA
HETATM    4  H   UNL     1       6.217  31.780  59.313  1.00  0.00     0.169 HD
ENDROOT
BRANCH   2   5
HETATM    5  C   UNL     1       7.574  30.262  57.764  1.00  0.00     0.185 C 
BRANCH   5   6
HETATM    6  S   UNL     1       8.011  28.606  57.145  1.00  0.00    -0.081 SA
BRANCH   6   7
HETATM    7  C   UNL     1       6.526  28.226  56.324  1.00  0.00     0.192 A 
HETATM    8  N   UNL     1       6.406  27.898  54.993  1.00  0.00    -0.307 N 
HETATM    9  C   UNL     1       5.045  27.818  54.770  1.00  0.00     0.135 A 
HETATM   10  N   UNL     1       4.420  27.970  55.921  1.00  0.00    -0.134 NA
HETATM   11  N   UNL     1       5.344  28.237  56.888  1.00  0.00    -0.123 NA
BRANCH   8  12
HETATM   12  C   UNL     1       7.483  27.462  54.125  1.00  0.00     0.171 C 
BRANCH  12  13
HETATM   13  C   UNL     1       7.550  25.976  53.876  1.00  0.00    -0.040 A 
HETATM   14  C   UNL     1       7.415  25.027  54.901  1.00  0.00     0.009 A 
HETATM   15  C   UNL     1       7.444  23.660  54.613  1.00  0.00     0.001 A 
HETATM   16  C   UNL     1       7.589  23.223  53.298  1.00  0.00     0.000 A 
HETATM   17  C   UNL     1       7.702  24.150  52.267  1.00  0.00     0.001 A 
HETATM   18  C   UNL     1       7.674  25.516  52.553  1.00  0.00     0.009 A 
ENDBRANCH  12  13
ENDBRANCH   8  12
BRANCH   9  19
HETATM   19  C   UNL     1       4.197  27.630  53.518  1.00  0.00     0.057 A 
HETATM   20  C   UNL     1       3.798  28.845  52.711  1.00  0.00     0.013 A 
HETATM   21  C   UNL     1       4.684  27.810  52.105  1.00  0.00     0.013 A 
ENDBRANCH   9  19
ENDBRANCH   6   7
ENDBRANCH   5   6
ENDBRANCH   2   5
BRANCH   1  22
HETATM   22  C   UNL     1       7.116  31.912  61.189  1.00  0.00     0.037 A 
HETATM   23  C   UNL     1       8.343  32.071  61.843  1.00  0.00     0.032 A 
HETATM   24  C   UNL     1       8.405  32.562  63.151  1.00  0.00     0.041 A 
HETATM   25  C   UNL     1       7.239  32.916  63.813  1.00  0.00     0.096 A 
HETATM   26  O   UNL     1       7.373  33.351  65.103  1.00  0.00    -0.335 OA
HETATM   27  C   UNL     1       6.005  32.755  63.178  1.00  0.00     0.070 A 
HETATM   28  C   UNL     1       6.253  34.100  65.567  1.00  0.00     0.217 C 
HETATM   29  C   UNL     1       6.352  34.175  67.086  1.00  0.00     0.050 C 
HETATM   30  C   UNL     1       4.864  33.603  65.132  1.00  0.00     0.251 C 
HETATM   31  N   UNL     1       4.830  33.051  63.875  1.00  0.00    -0.323 N 
HETATM   32  O   UNL     1       3.831  33.766  65.777  1.00  0.00    -0.270 OA
HETATM   33  H   UNL     1       3.922  32.804  63.507  1.00  0.00     0.169 HD
HETATM   34  C   UNL     1       5.940  32.257  61.871  1.00  0.00     0.062 A 
ENDBRANCH   1  22
TORSDOF 7
ENDMDL
MODEL 4
REMARK VINA RESULT:      -9.9      4.074     10.717
REMARK  7 active torsions:
REMARK  status: ('A' for Active; 'I' for Inactive)
REMARK    1  A    between atoms: C_11  and  N_12 
REMARK       I    between atoms: N_12  and  C_13 
REMARK    2  A    between atoms: C_13  and  C_14 
REMARK    3  A    between atoms: C_14  and  S_15 
REMARK    4  A    between atoms: S_15  and  C_16 
REMARK    5  A    between atoms: N_17  and  C_18 
REMARK    6  A    between atoms: C_18  and  C_19 
REMARK    7  A    between atoms: C_25  and  C_26 
ROOT
HETATM    1  N   UNL     1       6.439  27.561  54.808  1.00  0.00    -0.326 N 
HETATM    2  C   UNL     1       5.200  28.153  54.641  1.00  0.00     0.231 C 
HETATM    3  O   UNL     1       4.257  27.650  54.028  1.00  0.00    -0.272 OA
HETATM    4  H   UNL     1       7.070  28.030  55.449  1.00  0.00     0.169 HD
ENDROOT
BRANCH   2   5
HETATM    5  C   UNL     1       5.033  29.557  55.198  1.00  0.00     0.185 C 
BRANCH   5   6
HETATM    6  S   UNL     1       4.667  29.652  56.980  1.00  0.00    -0.081 SA
BRANCH   6   7
HETATM    7  C   UNL     1       6.274  29.404  57.598  1.00  0.00     0.192 A 
HETATM    8  N   UNL     1       7.158  30.395  57.957  1.00  0.00    -0.307 N 
HETATM    9  C   UNL     1       8.333  29.731  58.252  1.00  0.00     0.135 A 
HETATM   10  N   UNL     1       8.111  28.432  58.186  1.00  0.00    -0.134 NA
HETATM   11  N   UNL     1       6.829  28.229  57.765  1.00  0.00    -0.123 NA
BRANCH   8  12
HETATM   12  C   UNL     1       6.818  31.778  58.230  1.00  0.00     0.171 C 
BRANCH  12  13
HETATM   13  C   UNL     1       6.589  32.112  59.682  1.00  0.00    -0.040 A 
HETATM   14  C   UNL     1       7.638  32.326  60.588  1.00  0.00     0.009 A 
HETATM   15  C   UNL     1       7.373  32.673  61.916  1.00  0.00     0.001 A 
HETATM   16  C   UNL     1       6.059  32.827  62.352  1.00  0.00     0.000 A 
HETATM   17  C   UNL     1       5.006  32.639  61.462  1.00  0.00     0.001 A 
HETATM   18  C   UNL     1       5.269  32.293  60.135  1.00  0.00     0.009 A 
ENDBRANCH  12  13
ENDBRANCH   8  12
BRANCH   9  19
HETATM   19  C   UNL     1       9.745  30.196  58.586  1.00  0.00     0.057 A 
HETATM   20  C   UNL     1      10.752  30.350  57.468  1.00  0.00     0.013 A 
HETATM   21  C   UNL     1      10.317  31.546  58.245  1.00  0.00     0.013 A 
ENDBRANCH   9  19
ENDBRANCH   6   7
ENDBRANCH   5   6
ENDBRANCH   2   5
BRANCH   1  22
HETATM   22  C   UNL     1       6.872  26.334  54.253  1.00  0.00     0.037 A 
HETATM   23  C   UNL     1       7.317  26.202  52.933  1.00  0.00     0.032 A 
HETATM   24  C   UNL     1       7.752  24.969  52.438  1.00  0.00     0.041 A 
HETATM   25  C   UNL     1       7.763  23.856  53.267  1.00  0.00     0.096 A 
HETATM   26  O   UNL     1       8.164  22.676  52.703  1.00  0.00    -0.335 OA
HETATM   27  C   UNL     1       7.314  23.969  54.584  1.00  0.00     0.070 A 
HETATM   28  C   UNL     1       8.576  21.704  53.660  1.00  0.00     0.217 C 
HETATM   29  C   UNL     1       8.610  20.354  52.954  1.00  0.00     0.050 C 
HETATM   30  C   UNL     1       7.753  21.622  54.957  1.00  0.00     0.251 C 
HETATM   31  N   UNL     1       7.264  22.830  55.392  1.00  0.00    -0.323 N 
HETATM   32  O   UNL     1       7.615  20.605  55.633  1.00  0.00    -0.270 OA
HETATM   33  H   UNL     1       6.806  22.841  56.293  1.00  0.00     0.169 HD
HETATM   34  C   UNL     1       6.871  25.201  55.080  1.00  0.00     0.062 A 
ENDBRANCH   1  22
TORSDOF 7
ENDMDL
MODEL 5
REMARK VINA RESULT:      -9.9      1.391      1.865
REMARK  7 active torsions:
REMARK  status: ('A' for Active; 'I' for Inactive)
REMARK    1  A    between atoms: C_11  and  N_12 
REMARK       I    between atoms: N_12  and  C_13 
REMARK    2  A    between atoms: C_13  and  C_14 
REMARK    3  A    between atoms: C_14  and  S_15 
REMARK    4  A    between atoms: S_15  and  C_16 
REMARK    5  A    between atoms: N_17  and  C_18 
REMARK    6  A    between atoms: C_18  and  C_19 
REMARK    7  A    between atoms: C_25  and  C_26 
ROOT
HETATM    1  N   UNL     1       7.854  30.839  61.182  1.00  0.00    -0.326 N 
HETATM    2  C   UNL     1       8.095  31.176  59.862  1.00  0.00     0.231 C 
HETATM    3  O   UNL     1       7.984  32.311  59.395  1.00  0.00    -0.272 OA
HETATM    4  H   UNL     1       8.116  29.896  61.452  1.00  0.00     0.169 HD
ENDROOT
BRANCH   2   5
HETATM    5  C   UNL     1       8.447  30.038  58.920  1.00  0.00     0.185 C 
BRANCH   5   6
HETATM    6  S   UNL     1       7.266  29.755  57.562  1.00  0.00    -0.081 SA
BRANCH   6   7
HETATM    7  C   UNL     1       7.584  28.069  57.277  1.00  0.00     0.192 A 
HETATM    8  N   UNL     1       7.538  27.439  56.054  1.00  0.00    -0.307 N 
HETATM    9  C   UNL     1       7.722  26.100  56.339  1.00  0.00     0.135 A 
HETATM   10  N   UNL     1       7.981  25.975  57.627  1.00  0.00    -0.134 NA
HETATM   11  N   UNL     1       7.881  27.203  58.213  1.00  0.00    -0.123 NA
BRANCH   8  12
HETATM   12  C   UNL     1       7.573  28.093  54.760  1.00  0.00     0.171 C 
BRANCH  12  13
HETATM   13  C   UNL     1       6.249  28.171  54.041  1.00  0.00    -0.040 A 
HETATM   14  C   UNL     1       5.024  28.284  54.715  1.00  0.00     0.009 A 
HETATM   15  C   UNL     1       3.827  28.395  54.002  1.00  0.00     0.001 A 
HETATM   16  C   UNL     1       3.839  28.411  52.609  1.00  0.00     0.000 A 
HETATM   17  C   UNL     1       5.047  28.323  51.925  1.00  0.00     0.001 A 
HETATM   18  C   UNL     1       6.244  28.212  52.636  1.00  0.00     0.009 A 
ENDBRANCH  12  13
ENDBRANCH   8  12
BRANCH   9  19
HETATM   19  C   UNL     1       7.657  24.830  55.500  1.00  0.00     0.057 A 
HETATM   20  C   UNL     1       6.403  24.539  54.704  1.00  0.00     0.013 A 
HETATM   21  C   UNL     1       7.692  24.783  53.995  1.00  0.00     0.013 A 
ENDBRANCH   9  19
ENDBRANCH   6   7
ENDBRANCH   5   6
ENDBRANCH   2   5
BRANCH   1  22
HETATM   22  C   UNL     1       7.371  31.694  62.200  1.00  0.00     0.037 A 
HETATM   23  C   UNL     1       8.199  32.290  63.160  1.00  0.00     0.032 A 
HETATM   24  C   UNL     1       7.674  33.143  64.134  1.00  0.00     0.041 A 
HETATM   25  C   UNL     1       6.314  33.424  64.150  1.00  0.00     0.096 A 
HETATM   26  O   UNL     1       5.867  34.235  65.156  1.00  0.00    -0.335 OA
HETATM   27  C   UNL     1       5.475  32.830  63.205  1.00  0.00     0.070 A 
HETATM   28  C   UNL     1       4.604  34.835  64.879  1.00  0.00     0.217 C 
HETATM   29  C   UNL     1       4.054  35.369  66.195  1.00  0.00     0.050 C 
HETATM   30  C   UNL     1       3.564  33.953  64.167  1.00  0.00     0.251 C 
HETATM   31  N   UNL     1       4.098  33.064  63.268  1.00  0.00    -0.323 N 
HETATM   32  O   UNL     1       2.347  34.078  64.285  1.00  0.00    -0.270 OA
HETATM   33  H   UNL     1       3.447  32.536  62.703  1.00  0.00     0.169 HD
HETATM   34  C   UNL     1       5.997  31.970  62.232  1.00  0.00     0.062 A 
ENDBRANCH   1  22
TORSDOF 7
ENDMDL
MODEL 6
REMARK VINA RESULT:      -9.7      2.108      3.487
REMARK  7 active torsions:
REMARK  status: ('A' for Active; 'I' for Inactive)
REMARK    1  A    between atoms: C_11  and  N_12 
REMARK       I    between atoms: N_12  and  C_13 
REMARK    2  A    between atoms: C_13  and  C_14 
REMARK    3  A    between atoms: C_14  and  S_15 
REMARK    4  A    between atoms: S_15  and  C_16 
REMARK    5  A    between atoms: N_17  and  C_18 
REMARK    6  A    between atoms: C_18  and  C_19 
REMARK    7  A    between atoms: C_25  and  C_26 
ROOT
HETATM    1  N   UNL     1       8.820  30.152  58.996  1.00  0.00    -0.326 N 
HETATM    2  C   UNL     1       8.038  29.421  58.121  1.00  0.00     0.231 C 
HETATM    3  O   UNL     1       6.806  29.408  58.120  1.00  0.00    -0.272 OA
HETATM    4  H   UNL     1       9.814  30.171  58.792  1.00  0.00     0.169 HD
ENDROOT
BRANCH   2   5
HETATM    5  C   UNL     1       8.771  28.515  57.145  1.00  0.00     0.185 C 
BRANCH   5   6
HETATM    6  S   UNL     1       8.044  26.861  56.919  1.00  0.00    -0.081 SA
BRANCH   6   7
HETATM    7  C   UNL     1       7.456  27.045  55.292  1.00  0.00     0.192 A 
HETATM    8  N   UNL     1       6.994  26.031  54.485  1.00  0.00    -0.307 N 
HETATM    9  C   UNL     1       6.772  26.628  53.260  1.00  0.00     0.135 A 
HETATM   10  N   UNL     1       6.975  27.925  53.379  1.00  0.00    -0.134 NA
HETATM   11  N   UNL     1       7.414  28.183  54.645  1.00  0.00    -0.123 NA
BRANCH   8  12
HETATM   12  C   UNL     1       6.576  24.715  54.931  1.00  0.00     0.171 C 
BRANCH  12  13
HETATM   13  C   UNL     1       7.497  23.584  54.551  1.00  0.00    -0.040 A 
HETATM   14  C   UNL     1       8.539  23.140  55.380  1.00  0.00     0.009 A 
HETATM   15  C   UNL     1       9.341  22.060  55.000  1.00  0.00     0.001 A 
HETATM   16  C   UNL     1       9.102  21.398  53.798  1.00  0.00     0.000 A 
HETATM   17  C   UNL     1       8.059  21.810  52.974  1.00  0.00     0.001 A 
HETATM   18  C   UNL     1       7.258  22.889  53.352  1.00  0.00     0.009 A 
ENDBRANCH  12  13
ENDBRANCH   8  12
BRANCH   9  19
HETATM   19  C   UNL     1       6.390  26.090  51.885  1.00  0.00     0.057 A 
HETATM   20  C   UNL     1       5.025  25.468  51.693  1.00  0.00     0.013 A 
HETATM   21  C   UNL     1       5.382  26.717  50.959  1.00  0.00     0.013 A 
ENDBRANCH   9  19
ENDBRANCH   6   7
ENDBRANCH   5   6
ENDBRANCH   2   5
BRANCH   1  22
HETATM   22  C   UNL     1       8.366  30.941  60.080  1.00  0.00     0.037 A 
HETATM   23  C   UNL     1       8.982  30.948  61.337  1.00  0.00     0.032 A 
HETATM   24  C   UNL     1       8.504  31.760  62.369  1.00  0.00     0.041 A 
HETATM   25  C   UNL     1       7.414  32.590  62.149  1.00  0.00     0.096 A 
HETATM   26  O   UNL     1       6.978  33.326  63.216  1.00  0.00    -0.335 OA
HETATM   27  C   UNL     1       6.783  32.588  60.903  1.00  0.00     0.070 A 
HETATM   28  C   UNL     1       6.183  34.448  62.842  1.00  0.00     0.217 C 
HETATM   29  C   UNL     1       5.456  34.930  64.091  1.00  0.00     0.050 C 
HETATM   30  C   UNL     1       5.197  34.238  61.680  1.00  0.00     0.251 C 
HETATM   31  N   UNL     1       5.644  33.376  60.709  1.00  0.00    -0.323 N 
HETATM   32  O   UNL     1       4.141  34.850  61.542  1.00  0.00    -0.270 OA
HETATM   33  H   UNL     1       5.076  33.286  59.878  1.00  0.00     0.169 HD
HETATM   34  C   UNL     1       7.255  31.770  59.870  1.00  0.00     0.062 A 
ENDBRANCH   1  22
TORSDOF 7
ENDMDL
MODEL 7
REMARK VINA RESULT:      -9.5      3.233     10.528
REMARK  7 active torsions:
REMARK  status: ('A' for Active; 'I' for Inactive)
REMARK    1  A    between atoms: C_11  and  N_12 
REMARK       I    between atoms: N_12  and  C_13 
REMARK    2  A    between atoms: C_13  and  C_14 
REMARK    3  A    between atoms: C_14  and  S_15 
REMARK    4  A    between atoms: S_15  and  C_16 
REMARK    5  A    between atoms: N_17  and  C_18 
REMARK    6  A    between atoms: C_18  and  C_19 
REMARK    7  A    between atoms: C_25  and  C_26 
ROOT
HETATM    1  N   UNL     1       4.610  29.208  57.778  1.00  0.00    -0.326 N 
HETATM    2  C   UNL     1       4.190  30.465  57.382  1.00  0.00     0.231 C 
HETATM    3  O   UNL     1       4.382  30.952  56.267  1.00  0.00    -0.272 OA
HETATM    4  H   UNL     1       4.264  28.889  58.677  1.00  0.00     0.169 HD
ENDROOT
BRANCH   2   5
HETATM    5  C   UNL     1       3.510  31.321  58.438  1.00  0.00     0.185 C 
BRANCH   5   6
HETATM    6  S   UNL     1       4.185  33.001  58.633  1.00  0.00    -0.081 SA
BRANCH   6   7
HETATM    7  C   UNL     1       5.761  32.589  59.241  1.00  0.00     0.192 A 
HETATM    8  N   UNL     1       6.105  32.474  60.569  1.00  0.00    -0.307 N 
HETATM    9  C   UNL     1       7.471  32.270  60.563  1.00  0.00     0.135 A 
HETATM   10  N   UNL     1       7.875  32.153  59.314  1.00  0.00    -0.134 NA
HETATM   11  N   UNL     1       6.809  32.364  58.489  1.00  0.00    -0.123 NA
BRANCH   8  12
HETATM   12  C   UNL     1       5.180  32.320  61.676  1.00  0.00     0.171 C 
BRANCH  12  13
HETATM   13  C   UNL     1       5.321  33.338  62.779  1.00  0.00    -0.040 A 
HETATM   14  C   UNL     1       5.215  34.719  62.558  1.00  0.00     0.009 A 
HETATM   15  C   UNL     1       5.313  35.620  63.622  1.00  0.00     0.001 A 
HETATM   16  C   UNL     1       5.499  35.153  64.921  1.00  0.00     0.000 A 
HETATM   17  C   UNL     1       5.584  33.786  65.162  1.00  0.00     0.001 A 
HETATM   18  C   UNL     1       5.487  32.885  64.100  1.00  0.00     0.009 A 
ENDBRANCH  12  13
ENDBRANCH   8  12
BRANCH   9  19
HETATM   19  C   UNL     1       8.524  32.192  61.662  1.00  0.00     0.057 A 
HETATM   20  C   UNL     1       8.475  31.045  62.647  1.00  0.00     0.013 A 
HETATM   21  C   UNL     1       9.639  31.183  61.725  1.00  0.00     0.013 A 
ENDBRANCH   9  19
ENDBRANCH   6   7
ENDBRANCH   5   6
ENDBRANCH   2   5
BRANCH   1  22
HETATM   22  C   UNL     1       5.388  28.299  57.023  1.00  0.00     0.037 A 
HETATM   23  C   UNL     1       6.740  28.045  57.283  1.00  0.00     0.032 A 
HETATM   24  C   UNL     1       7.460  27.123  56.518  1.00  0.00     0.041 A 
HETATM   25  C   UNL     1       6.830  26.431  55.493  1.00  0.00     0.096 A 
HETATM   26  O   UNL     1       7.606  25.575  54.762  1.00  0.00    -0.335 OA
HETATM   27  C   UNL     1       5.484  26.680  55.216  1.00  0.00     0.070 A 
HETATM   28  C   UNL     1       6.853  24.595  54.052  1.00  0.00     0.217 C 
HETATM   29  C   UNL     1       7.773  23.985  53.002  1.00  0.00     0.050 C 
HETATM   30  C   UNL     1       5.534  25.067  53.418  1.00  0.00     0.251 C 
HETATM   31  N   UNL     1       4.873  26.030  54.140  1.00  0.00    -0.323 N 
HETATM   32  O   UNL     1       5.027  24.573  52.413  1.00  0.00    -0.270 OA
HETATM   33  H   UNL     1       3.953  26.296  53.815  1.00  0.00     0.169 HD
HETATM   34  C   UNL     1       4.762  27.608  55.976  1.00  0.00     0.062 A 
ENDBRANCH   1  22
TORSDOF 7
ENDMDL
MODEL 8
REMARK VINA RESULT:      -9.5      3.924     11.088
REMARK  7 active torsions:
REMARK  status: ('A' for Active; 'I' for Inactive)
REMARK    1  A    between atoms: C_11  and  N_12 
REMARK       I    between atoms: N_12  and  C_13 
REMARK    2  A    between atoms: C_13  and  C_14 
REMARK    3  A    between atoms: C_14  and  S_15 
REMARK    4  A    between atoms: S_15  and  C_16 
REMARK    5  A    between atoms: N_17  and  C_18 
REMARK    6  A    between atoms: C_18  and  C_19 
REMARK    7  A    between atoms: C_25  and  C_26 
ROOT
HETATM    1  N   UNL     1       7.048  27.100  56.515  1.00  0.00    -0.326 N 
HETATM    2  C   UNL     1       5.897  27.862  56.609  1.00  0.00     0.231 C 
HETATM    3  O   UNL     1       4.863  27.654  55.972  1.00  0.00    -0.272 OA
HETATM    4  H   UNL     1       7.772  27.306  57.195  1.00  0.00     0.169 HD
ENDROOT
BRANCH   2   5
HETATM    5  C   UNL     1       5.959  29.082  57.511  1.00  0.00     0.185 C 
BRANCH   5   6
HETATM    6  S   UNL     1       5.315  30.623  56.785  1.00  0.00    -0.081 SA
BRANCH   6   7
HETATM    7  C   UNL     1       4.482  31.249  58.177  1.00  0.00     0.192 A 
HETATM    8  N   UNL     1       5.060  31.951  59.211  1.00  0.00    -0.307 N 
HETATM    9  C   UNL     1       4.048  32.114  60.136  1.00  0.00     0.135 A 
HETATM   10  N   UNL     1       2.927  31.645  59.623  1.00  0.00    -0.134 NA
HETATM   11  N   UNL     1       3.201  31.094  58.406  1.00  0.00    -0.123 NA
BRANCH   8  12
HETATM   12  C   UNL     1       6.356  32.602  59.175  1.00  0.00     0.171 C 
BRANCH  12  13
HETATM   13  C   UNL     1       7.389  32.034  60.115  1.00  0.00    -0.040 A 
HETATM   14  C   UNL     1       8.175  30.917  59.795  1.00  0.00     0.009 A 
HETATM   15  C   UNL     1       9.148  30.453  60.685  1.00  0.00     0.001 A 
HETATM   16  C   UNL     1       9.361  31.108  61.896  1.00  0.00     0.000 A 
HETATM   17  C   UNL     1       8.605  32.231  62.219  1.00  0.00     0.001 A 
HETATM   18  C   UNL     1       7.633  32.695  61.332  1.00  0.00     0.009 A 
ENDBRANCH  12  13
ENDBRANCH   8  12
BRANCH   9  19
HETATM   19  C   UNL     1       4.004  32.671  61.554  1.00  0.00     0.057 A 
HETATM   20  C   UNL     1       4.268  34.144  61.774  1.00  0.00     0.013 A 
HETATM   21  C   UNL     1       2.929  33.573  62.098  1.00  0.00     0.013 A 
ENDBRANCH   9  19
ENDBRANCH   6   7
ENDBRANCH   5   6
ENDBRANCH   2   5
BRANCH   1  22
HETATM   22  C   UNL     1       7.276  26.015  55.635  1.00  0.00     0.037 A 
HETATM   23  C   UNL     1       7.386  26.161  54.247  1.00  0.00     0.032 A 
HETATM   24  C   UNL     1       7.630  25.059  53.423  1.00  0.00     0.041 A 
HETATM   25  C   UNL     1       7.783  23.797  53.981  1.00  0.00     0.096 A 
HETATM   26  O   UNL     1       7.979  22.761  53.111  1.00  0.00    -0.335 OA
HETATM   27  C   UNL     1       7.666  23.634  55.363  1.00  0.00     0.070 A 
HETATM   28  C   UNL     1       8.558  21.611  53.723  1.00  0.00     0.217 C 
HETATM   29  C   UNL     1       8.356  20.438  52.772  1.00  0.00     0.050 C 
HETATM   30  C   UNL     1       8.065  21.261  55.137  1.00  0.00     0.251 C 
HETATM   31  N   UNL     1       7.754  22.351  55.913  1.00  0.00    -0.323 N 
HETATM   32  O   UNL     1       8.042  20.126  55.606  1.00  0.00    -0.270 OA
HETATM   33  H   UNL     1       7.524  22.175  56.881  1.00  0.00     0.169 HD
HETATM   34  C   UNL     1       7.416  24.735  56.190  1.00  0.00     0.062 A 
ENDBRANCH   1  22
TORSDOF 7
ENDMDL
MODEL 9
REMARK VINA RESULT:      -9.2      3.069      9.893
REMARK  7 active torsions:
REMARK  status: ('A' for Active; 'I' for Inactive)
REMARK    1  A    between atoms: C_11  and  N_12 
REMARK       I    between atoms: N_12  and  C_13 
REMARK    2  A    between atoms: C_13  and  C_14 
REMARK    3  A    between atoms: C_14  and  S_15 
REMARK    4  A    between atoms: S_15  and  C_16 
REMARK    5  A    between atoms: N_17  and  C_18 
REMARK    6  A    between atoms: C_18  and  C_19 
REMARK    7  A    between atoms: C_25  and  C_26 
ROOT
HETATM    1  N   UNL     1       5.711  30.787  58.379  1.00  0.00    -0.326 N 
HETATM    2  C   UNL     1       5.298  31.922  57.705  1.00  0.00     0.231 C 
HETATM    3  O   UNL     1       5.305  32.055  56.480  1.00  0.00    -0.272 OA
HETATM    4  H   UNL     1       5.522  30.770  59.376  1.00  0.00     0.169 HD
ENDROOT
BRANCH   2   5
HETATM    5  C   UNL     1       4.879  33.108  58.559  1.00  0.00     0.185 C 
BRANCH   5   6
HETATM    6  S   UNL     1       3.834  32.705  59.995  1.00  0.00    -0.081 SA
BRANCH   6   7
HETATM    7  C   UNL     1       4.612  33.708  61.184  1.00  0.00     0.192 A 
HETATM    8  N   UNL     1       5.354  33.259  62.252  1.00  0.00    -0.307 N 
HETATM    9  C   UNL     1       5.647  34.394  62.981  1.00  0.00     0.135 A 
HETATM   10  N   UNL     1       5.209  35.447  62.317  1.00  0.00    -0.134 NA
HETATM   11  N   UNL     1       4.553  35.016  61.202  1.00  0.00    -0.123 NA
BRANCH   8  12
HETATM   12  C   UNL     1       5.921  31.931  62.394  1.00  0.00     0.171 C 
BRANCH  12  13
HETATM   13  C   UNL     1       7.300  31.753  61.811  1.00  0.00    -0.040 A 
HETATM   14  C   UNL     1       7.782  32.533  60.749  1.00  0.00     0.009 A 
HETATM   15  C   UNL     1       9.084  32.356  60.271  1.00  0.00     0.001 A 
HETATM   16  C   UNL     1       9.925  31.414  60.857  1.00  0.00     0.000 A 
HETATM   17  C   UNL     1       9.471  30.647  61.925  1.00  0.00     0.001 A 
HETATM   18  C   UNL     1       8.171  30.822  62.404  1.00  0.00     0.009 A 
ENDBRANCH  12  13
ENDBRANCH   8  12
BRANCH   9  19
HETATM   19  C   UNL     1       6.310  34.631  64.333  1.00  0.00     0.057 A 
HETATM   20  C   UNL     1       5.841  33.836  65.531  1.00  0.00     0.013 A 
HETATM   21  C   UNL     1       7.234  33.665  65.026  1.00  0.00     0.013 A 
ENDBRANCH   9  19
ENDBRANCH   6   7
ENDBRANCH   5   6
ENDBRANCH   2   5
BRANCH   1  22
HETATM   22  C   UNL     1       6.279  29.624  57.808  1.00  0.00     0.037 A 
HETATM   23  C   UNL     1       7.595  29.212  58.051  1.00  0.00     0.032 A 
HETATM   24  C   UNL     1       8.103  28.044  57.475  1.00  0.00     0.041 A 
HETATM   25  C   UNL     1       7.293  27.264  56.662  1.00  0.00     0.096 A 
HETATM   26  O   UNL     1       7.869  26.157  56.103  1.00  0.00    -0.335 OA
HETATM   27  C   UNL     1       5.981  27.665  56.403  1.00  0.00     0.070 A 
HETATM   28  C   UNL     1       6.922  25.186  55.666  1.00  0.00     0.217 C 
HETATM   29  C   UNL     1       7.650  24.225  54.734  1.00  0.00     0.050 C 
HETATM   30  C   UNL     1       5.639  25.721  55.009  1.00  0.00     0.251 C 
HETATM   31  N   UNL     1       5.192  26.911  55.530  1.00  0.00    -0.323 N 
HETATM   32  O   UNL     1       4.982  25.116  54.165  1.00  0.00    -0.270 OA
HETATM   33  H   UNL     1       4.298  27.249  55.200  1.00  0.00     0.169 HD
HETATM   34  C   UNL     1       5.472  28.838  56.972  1.00  0.00     0.062 A 
ENDBRANCH   1  22
TORSDOF 7
ENDMDL
MODEL 10
REMARK VINA RESULT:      -9.1      3.713     10.879
REMARK  7 active torsions:
REMARK  status: ('A' for Active; 'I' for Inactive)
REMARK    1  A    between atoms: C_11  and  N_12 
REMARK       I    between atoms: N_12  and  C_13 
REMARK    2  A    between atoms: C_13  and  C_14 
REMARK    3  A    between atoms: C_14  and  S_15 
REMARK    4  A    between atoms: S_15  and  C_16 
REMARK    5  A    between atoms: N_17  and  C_18 
REMARK    6  A    between atoms: C_18  and  C_19 
REMARK    7  A    between atoms: C_25  and  C_26 
ROOT
HETATM    1  N   UNL     1       7.838  27.836  57.550  1.00  0.00    -0.326 N 
HETATM    2  C   UNL     1       8.720  28.897  57.458  1.00  0.00     0.231 C 
HETATM    3  O   UNL     1       9.534  29.059  56.547  1.00  0.00    -0.272 OA
HETATM    4  H   UNL     1       7.137  27.905  58.280  1.00  0.00     0.169 HD
ENDROOT
BRANCH   2   5
HETATM    5  C   UNL     1       8.722  29.884  58.613  1.00  0.00     0.185 C 
BRANCH   5   6
HETATM    6  S   UNL     1       7.269  30.977  58.709  1.00  0.00    -0.081 SA
BRANCH   6   7
HETATM    7  C   UNL     1       7.496  31.587  60.322  1.00  0.00     0.192 A 
HETATM    8  N   UNL     1       6.587  32.335  61.033  1.00  0.00    -0.307 N 
HETATM    9  C   UNL     1       7.253  32.698  62.187  1.00  0.00     0.135 A 
HETATM   10  N   UNL     1       8.428  32.099  62.202  1.00  0.00    -0.134 NA
HETATM   11  N   UNL     1       8.584  31.416  61.031  1.00  0.00    -0.123 NA
BRANCH   8  12
HETATM   12  C   UNL     1       5.171  32.455  60.740  1.00  0.00     0.171 C 
BRANCH  12  13
HETATM   13  C   UNL     1       4.763  33.724  60.035  1.00  0.00    -0.040 A 
HETATM   14  C   UNL     1       4.657  33.818  58.639  1.00  0.00     0.009 A 
HETATM   15  C   UNL     1       4.236  35.006  58.036  1.00  0.00     0.001 A 
HETATM   16  C   UNL     1       3.899  36.108  58.817  1.00  0.00     0.000 A 
HETATM   17  C   UNL     1       3.976  36.026  60.204  1.00  0.00     0.001 A 
HETATM   18  C   UNL     1       4.397  34.840  60.808  1.00  0.00     0.009 A 
ENDBRANCH  12  13
ENDBRANCH   8  12
BRANCH   9  19
HETATM   19  C   UNL     1       6.911  33.623  63.349  1.00  0.00     0.057 A 
HETATM   20  C   UNL     1       5.901  33.167  64.379  1.00  0.00     0.013 A 
HETATM   21  C   UNL     1       7.317  33.401  64.782  1.00  0.00     0.013 A 
ENDBRANCH   9  19
ENDBRANCH   6   7
ENDBRANCH   5   6
ENDBRANCH   2   5
BRANCH   1  22
HETATM   22  C   UNL     1       7.759  26.723  56.679  1.00  0.00     0.037 A 
HETATM   23  C   UNL     1       7.278  26.806  55.367  1.00  0.00     0.032 A 
HETATM   24  C   UNL     1       7.238  25.679  54.542  1.00  0.00     0.041 A 
HETATM   25  C   UNL     1       7.696  24.457  55.015  1.00  0.00     0.096 A 
HETATM   26  O   UNL     1       7.589  23.391  54.165  1.00  0.00    -0.335 OA
HETATM   27  C   UNL     1       8.170  24.356  56.325  1.00  0.00     0.070 A 
HETATM   28  C   UNL     1       8.448  22.307  54.508  1.00  0.00     0.217 C 
HETATM   29  C   UNL     1       7.957  21.078  53.752  1.00  0.00     0.050 C 
HETATM   30  C   UNL     1       8.607  22.001  56.007  1.00  0.00     0.251 C 
HETATM   31  N   UNL     1       8.567  23.109  56.817  1.00  0.00    -0.323 N 
HETATM   32  O   UNL     1       8.859  20.891  56.469  1.00  0.00    -0.270 OA
HETATM   33  H   UNL     1       8.769  22.969  57.797  1.00  0.00     0.169 HD
HETATM   34  C   UNL     1       8.205  25.482  57.156  1.00  0.00     0.062 A 
ENDBRANCH   1  22
TORSDOF 7
ENDMDL
