MODEL 1
REMARK VINA RESULT:      -9.2      0.000      0.000
REMARK  4 active torsions:
REMARK  status: ('A' for Active; 'I' for Inactive)
REMARK    1  A    between atoms: C_9  and  C_10 
REMARK    2  A    between atoms: C_17  and  C_18 
REMARK       I    between atoms: C_18  and  N_19 
REMARK    3  A    between atoms: N_19  and  C_20 
REMARK    4  A    between atoms: C_23  and  O_24 
ROOT
HETATM    1  C   UNL     1       3.854  27.652  53.318  1.00  0.00     0.070 C 
HETATM    2  C   UNL     1       4.309  28.432  54.526  1.00  0.00     0.037 C 
HETATM    3  N   UNL     1       3.823  29.732  54.619  1.00  0.00    -0.192 N 
HETATM    4  C   UNL     1       3.917  30.473  55.741  1.00  0.00     0.725 A 
HETATM    5  N   UNL     1       4.658  30.007  56.793  1.00  0.00    -0.084 N 
HETATM    6  N   UNL     1       4.571  30.832  57.858  1.00  0.00    -0.149 NA
HETATM    7  C   UNL     1       3.795  31.800  57.356  1.00  0.00     0.275 A 
HETATM    8  N   UNL     1       3.376  31.620  56.062  1.00  0.00    -0.054 NA
HETATM    9  C   UNL     1       5.405  28.744  56.776  1.00  0.00     0.202 C 
HETATM   10  C   UNL     1       5.081  27.933  55.525  1.00  0.00     0.062 C 
HETATM   11  H   UNL     1       3.173  30.043  53.901  1.00  0.00     0.184 HD
ENDROOT
BRANCH  10  12
HETATM   12  C   UNL     1       5.590  26.536  55.576  1.00  0.00     0.256 C 
HETATM   13  N   UNL     1       6.556  26.267  54.633  1.00  0.00    -0.323 N 
HETATM   14  H   UNL     1       6.832  27.027  54.024  1.00  0.00     0.169 HD
HETATM   15  O   UNL     1       5.162  25.790  56.447  1.00  0.00    -0.267 OA
BRANCH  13  16
HETATM   16  C   UNL     1       7.208  25.035  54.410  1.00  0.00     0.035 A 
HETATM   17  C   UNL     1       8.009  24.394  55.354  1.00  0.00     0.032 A 
HETATM   18  C   UNL     1       8.611  23.167  55.053  1.00  0.00     0.039 A 
HETATM   19  C   UNL     1       8.419  22.556  53.815  1.00  0.00     0.068 A 
HETATM   20  C   UNL     1       7.621  23.192  52.867  1.00  0.00     0.039 A 
HETATM   21  C   UNL     1       7.024  24.426  53.163  1.00  0.00     0.032 A 
BRANCH  19  22
HETATM   22  O   UNL     1       9.058  21.359  53.661  1.00  0.00    -0.356 OA
HETATM   23  C   UNL     1       8.398  20.369  52.882  1.00  0.00     0.210 C 
ENDBRANCH  19  22
ENDBRANCH  13  16
ENDBRANCH  10  12
BRANCH   9  24
HETATM   24  C   UNL     1       6.906  29.009  56.907  1.00  0.00    -0.028 A 
HETATM   25  C   UNL     1       7.689  29.139  55.746  1.00  0.00     0.011 A 
HETATM   26  C   UNL     1       9.060  29.394  55.836  1.00  0.00     0.024 A 
HETATM   27  C   UNL     1       9.659  29.526  57.085  1.00  0.00     0.034 A 
HETATM   28 CL   UNL     1      11.349  29.833  57.196  1.00  0.00    -0.084 Cl
HETATM   29  C   UNL     1       8.899  29.413  58.247  1.00  0.00     0.024 A 
HETATM   30  C   UNL     1       7.528  29.161  58.160  1.00  0.00     0.011 A 
ENDBRANCH   9  24
TORSDOF 4
ENDMDL
MODEL 2
REMARK VINA RESULT:      -9.1      2.030      3.009
REMARK  4 active torsions:
REMARK  status: ('A' for Active; 'I' for Inactive)
REMARK    1  A    between atoms: C_9  and  C_10 
REMARK    2  A    between atoms: C_17  and  C_18 
REMARK       I    between atoms: C_18  and  N_19 
REMARK    3  A    between atoms: N_19  and  C_20 
REMARK    4  A    between atoms: C_23  and  O_24 
ROOT
HETATM    1  C   UNL     1       5.003  26.293  50.127  1.00  0.00     0.070 C 
HETATM    2  C   UNL     1       4.844  27.230  51.298  1.00  0.00     0.037 C 
HETATM    3  N   UNL     1       4.527  28.545  50.975  1.00  0.00    -0.192 N 
HETATM    4  C   UNL     1       4.103  29.443  51.886  1.00  0.00     0.725 A 
HETATM    5  N   UNL     1       4.130  29.116  53.215  1.00  0.00    -0.084 N 
HETATM    6  N   UNL     1       3.591  30.095  53.972  1.00  0.00    -0.149 NA
HETATM    7  C   UNL     1       3.303  31.002  53.032  1.00  0.00     0.275 A 
HETATM    8  N   UNL     1       3.604  30.644  51.743  1.00  0.00    -0.054 NA
HETATM    9  C   UNL     1       4.632  27.839  53.736  1.00  0.00     0.202 C 
HETATM   10  C   UNL     1       4.921  26.860  52.601  1.00  0.00     0.062 C 
HETATM   11  H   UNL     1       4.386  28.767  49.992  1.00  0.00     0.184 HD
ENDROOT
BRANCH  10  12
HETATM   12  C   UNL     1       5.171  25.470  53.068  1.00  0.00     0.256 C 
HETATM   13  N   UNL     1       6.498  25.203  53.317  1.00  0.00    -0.323 N 
HETATM   14  H   UNL     1       7.156  25.960  53.180  1.00  0.00     0.169 HD
HETATM   15  O   UNL     1       4.211  24.728  53.233  1.00  0.00    -0.267 OA
BRANCH  13  16
HETATM   16  C   UNL     1       7.055  23.977  53.739  1.00  0.00     0.035 A 
HETATM   17  C   UNL     1       7.147  23.579  55.073  1.00  0.00     0.032 A 
HETATM   18  C   UNL     1       7.705  22.339  55.404  1.00  0.00     0.039 A 
HETATM   19  C   UNL     1       8.172  21.474  54.415  1.00  0.00     0.068 A 
HETATM   20  C   UNL     1       8.084  21.866  53.081  1.00  0.00     0.039 A 
HETATM   21  C   UNL     1       7.534  23.111  52.748  1.00  0.00     0.032 A 
BRANCH  19  22
HETATM   22  O   UNL     1       8.684  20.296  54.880  1.00  0.00    -0.356 OA
HETATM   23  C   UNL     1       9.107  20.266  56.237  1.00  0.00     0.210 C 
ENDBRANCH  19  22
ENDBRANCH  13  16
ENDBRANCH  10  12
BRANCH   9  24
HETATM   24  C   UNL     1       5.862  28.067  54.615  1.00  0.00    -0.028 A 
HETATM   25  C   UNL     1       5.764  27.872  56.004  1.00  0.00     0.011 A 
HETATM   26  C   UNL     1       6.875  28.061  56.831  1.00  0.00     0.024 A 
HETATM   27  C   UNL     1       8.094  28.441  56.277  1.00  0.00     0.034 A 
HETATM   28 CL   UNL     1       9.461  28.680  57.295  1.00  0.00    -0.084 Cl
HETATM   29  C   UNL     1       8.215  28.627  54.901  1.00  0.00     0.024 A 
HETATM   30  C   UNL     1       7.107  28.436  54.073  1.00  0.00     0.011 A 
ENDBRANCH   9  24
TORSDOF 4
ENDMDL
MODEL 3
REMARK VINA RESULT:      -8.8      4.260      6.281
REMARK  4 active torsions:
REMARK  status: ('A' for Active; 'I' for Inactive)
REMARK    1  A    between atoms: C_9  and  C_10 
REMARK    2  A    between atoms: C_17  and  C_18 
REMARK       I    between atoms: C_18  and  N_19 
REMARK    3  A    between atoms: N_19  and  C_20 
REMARK    4  A    between atoms: C_23  and  O_24 
ROOT
HETATM    1  C   UNL     1       4.196  29.149  54.622  1.00  0.00     0.070 C 
HETATM    2  C   UNL     1       4.574  29.371  53.179  1.00  0.00     0.037 C 
HETATM    3  N   UNL     1       4.509  30.690  52.738  1.00  0.00    -0.192 N 
HETATM    4  C   UNL     1       5.048  31.101  51.574  1.00  0.00     0.725 A 
HETATM    5  N   UNL     1       5.545  30.174  50.698  1.00  0.00    -0.084 N 
HETATM    6  N   UNL     1       6.121  30.766  49.631  1.00  0.00    -0.149 NA
HETATM    7  C   UNL     1       5.891  32.055  49.911  1.00  0.00     0.275 A 
HETATM    8  N   UNL     1       5.234  32.302  51.089  1.00  0.00    -0.054 NA
HETATM    9  C   UNL     1       5.501  28.725  50.925  1.00  0.00     0.202 C 
HETATM   10  C   UNL     1       5.024  28.406  52.339  1.00  0.00     0.062 C 
HETATM   11  H   UNL     1       4.256  31.401  53.420  1.00  0.00     0.184 HD
ENDROOT
BRANCH  10  12
HETATM   12  C   UNL     1       5.214  26.981  52.721  1.00  0.00     0.256 C 
HETATM   13  N   UNL     1       6.531  26.634  52.918  1.00  0.00    -0.323 N 
HETATM   14  H   UNL     1       7.223  27.363  52.805  1.00  0.00     0.169 HD
HETATM   15  O   UNL     1       4.222  26.279  52.871  1.00  0.00    -0.267 OA
BRANCH  13  16
HETATM   16  C   UNL     1       7.035  25.359  53.257  1.00  0.00     0.035 A 
HETATM   17  C   UNL     1       7.590  24.470  52.337  1.00  0.00     0.032 A 
HETATM   18  C   UNL     1       8.076  23.228  52.760  1.00  0.00     0.039 A 
HETATM   19  C   UNL     1       8.025  22.856  54.103  1.00  0.00     0.068 A 
HETATM   20  C   UNL     1       7.471  23.738  55.026  1.00  0.00     0.039 A 
HETATM   21  C   UNL     1       6.975  24.979  54.603  1.00  0.00     0.032 A 
BRANCH  19  22
HETATM   22  O   UNL     1       8.542  21.620  54.374  1.00  0.00    -0.356 OA
HETATM   23  C   UNL     1       8.436  20.636  53.353  1.00  0.00     0.210 C 
ENDBRANCH  19  22
ENDBRANCH  13  16
ENDBRANCH  10  12
BRANCH   9  24
HETATM   24  C   UNL     1       4.633  28.044  49.866  1.00  0.00    -0.028 A 
HETATM   25  C   UNL     1       3.283  28.416  49.735  1.00  0.00     0.011 A 
HETATM   26  C   UNL     1       2.470  27.821  48.768  1.00  0.00     0.024 A 
HETATM   27  C   UNL     1       2.998  26.852  47.919  1.00  0.00     0.034 A 
HETATM   28 CL   UNL     1       1.995  26.113  46.732  1.00  0.00    -0.084 Cl
HETATM   29  C   UNL     1       4.336  26.478  48.025  1.00  0.00     0.024 A 
HETATM   30  C   UNL     1       5.152  27.074  48.989  1.00  0.00     0.011 A 
ENDBRANCH   9  24
TORSDOF 4
ENDMDL
MODEL 4
REMARK VINA RESULT:      -8.7      4.763      8.932
REMARK  4 active torsions:
REMARK  status: ('A' for Active; 'I' for Inactive)
REMARK    1  A    between atoms: C_9  and  C_10 
REMARK    2  A    between atoms: C_17  and  C_18 
REMARK       I    between atoms: C_18  and  N_19 
REMARK    3  A    between atoms: N_19  and  C_20 
REMARK    4  A    between atoms: C_23  and  O_24 
ROOT
HETATM    1  C   UNL     1      10.182  30.459  57.889  1.00  0.00     0.070 C 
HETATM    2  C   UNL     1       8.885  29.739  57.617  1.00  0.00     0.037 C 
HETATM    3  N   UNL     1       8.981  28.617  56.799  1.00  0.00    -0.192 N 
HETATM    4  C   UNL     1       7.985  27.721  56.663  1.00  0.00     0.725 A 
HETATM    5  N   UNL     1       6.761  27.987  57.215  1.00  0.00    -0.084 N 
HETATM    6  N   UNL     1       5.914  26.949  57.056  1.00  0.00    -0.149 NA
HETATM    7  C   UNL     1       6.685  26.108  56.356  1.00  0.00     0.275 A 
HETATM    8  N   UNL     1       7.958  26.545  56.091  1.00  0.00    -0.054 NA
HETATM    9  C   UNL     1       6.437  29.225  57.934  1.00  0.00     0.202 C 
HETATM   10  C   UNL     1       7.687  30.070  58.161  1.00  0.00     0.062 C 
HETATM   11  H   UNL     1       9.909  28.344  56.484  1.00  0.00     0.184 HD
ENDROOT
BRANCH  10  12
HETATM   12  C   UNL     1       7.477  31.195  59.111  1.00  0.00     0.256 C 
HETATM   13  N   UNL     1       7.527  30.816  60.434  1.00  0.00    -0.323 N 
HETATM   14  H   UNL     1       7.712  29.841  60.628  1.00  0.00     0.169 HD
HETATM   15  O   UNL     1       7.336  32.324  58.658  1.00  0.00    -0.267 OA
BRANCH  13  16
HETATM   16  C   UNL     1       7.337  31.641  61.563  1.00  0.00     0.035 A 
HETATM   17  C   UNL     1       8.302  31.848  62.548  1.00  0.00     0.032 A 
HETATM   18  C   UNL     1       8.035  32.692  63.632  1.00  0.00     0.039 A 
HETATM   19  C   UNL     1       6.810  33.348  63.748  1.00  0.00     0.068 A 
HETATM   20  C   UNL     1       5.841  33.144  62.768  1.00  0.00     0.039 A 
HETATM   21  C   UNL     1       6.104  32.292  61.686  1.00  0.00     0.032 A 
BRANCH  19  22
HETATM   22  O   UNL     1       6.689  34.146  64.850  1.00  0.00    -0.356 OA
HETATM   23  C   UNL     1       5.525  33.973  65.649  1.00  0.00     0.210 C 
ENDBRANCH  19  22
ENDBRANCH  13  16
ENDBRANCH  10  12
BRANCH   9  24
HETATM   24  C   UNL     1       5.351  30.006  57.192  1.00  0.00    -0.028 A 
HETATM   25  C   UNL     1       5.599  30.463  55.886  1.00  0.00     0.011 A 
HETATM   26  C   UNL     1       4.620  31.167  55.179  1.00  0.00     0.024 A 
HETATM   27  C   UNL     1       3.385  31.417  55.769  1.00  0.00     0.034 A 
HETATM   28 CL   UNL     1       2.181  32.290  54.902  1.00  0.00    -0.084 Cl
HETATM   29  C   UNL     1       3.115  30.962  57.058  1.00  0.00     0.024 A 
HETATM   30  C   UNL     1       4.090  30.255  57.765  1.00  0.00     0.011 A 
ENDBRANCH   9  24
TORSDOF 4
ENDMDL
MODEL 5
REMARK VINA RESULT:      -8.7      3.276      8.030
REMARK  4 active torsions:
REMARK  status: ('A' for Active; 'I' for Inactive)
REMARK    1  A    between atoms: C_9  and  C_10 
REMARK    2  A    between atoms: C_17  and  C_18 
REMARK       I    between atoms: C_18  and  N_19 
REMARK    3  A    between atoms: N_19  and  C_20 
REMARK    4  A    between atoms: C_23  and  O_24 
ROOT
HETATM    1  C   UNL     1       8.865  25.418  57.750  1.00  0.00     0.070 C 
HETATM    2  C   UNL     1       8.362  24.579  56.602  1.00  0.00     0.037 C 
HETATM    3  N   UNL     1       9.242  23.605  56.140  1.00  0.00    -0.192 N 
HETATM    4  C   UNL     1       8.868  22.614  55.308  1.00  0.00     0.725 A 
HETATM    5  N   UNL     1       7.616  22.637  54.754  1.00  0.00    -0.084 N 
HETATM    6  N   UNL     1       7.383  21.529  54.019  1.00  0.00    -0.149 NA
HETATM    7  C   UNL     1       8.560  20.903  54.140  1.00  0.00     0.275 A 
HETATM    8  N   UNL     1       9.497  21.535  54.917  1.00  0.00    -0.054 NA
HETATM    9  C   UNL     1       6.639  23.709  54.979  1.00  0.00     0.202 C 
HETATM   10  C   UNL     1       7.121  24.671  56.061  1.00  0.00     0.062 C 
HETATM   11  H   UNL     1      10.128  23.503  56.629  1.00  0.00     0.184 HD
ENDROOT
BRANCH  10  12
HETATM   12  C   UNL     1       6.069  25.615  56.526  1.00  0.00     0.256 C 
HETATM   13  N   UNL     1       6.242  26.902  56.068  1.00  0.00    -0.323 N 
HETATM   14  H   UNL     1       7.036  27.075  55.464  1.00  0.00     0.169 HD
HETATM   15  O   UNL     1       5.149  25.176  57.204  1.00  0.00    -0.267 OA
BRANCH  13  16
HETATM   16  C   UNL     1       5.436  28.023  56.356  1.00  0.00     0.035 A 
HETATM   17  C   UNL     1       4.248  28.322  55.689  1.00  0.00     0.032 A 
HETATM   18  C   UNL     1       3.502  29.451  56.047  1.00  0.00     0.039 A 
HETATM   19  C   UNL     1       3.921  30.294  57.075  1.00  0.00     0.068 A 
HETATM   20  C   UNL     1       5.107  30.001  57.745  1.00  0.00     0.039 A 
HETATM   21  C   UNL     1       5.860  28.876  57.383  1.00  0.00     0.032 A 
BRANCH  19  22
HETATM   22  O   UNL     1       3.094  31.352  57.322  1.00  0.00    -0.356 OA
HETATM   23  C   UNL     1       3.604  32.650  57.045  1.00  0.00     0.210 C 
ENDBRANCH  19  22
ENDBRANCH  13  16
ENDBRANCH  10  12
BRANCH   9  24
HETATM   24  C   UNL     1       6.332  24.436  53.669  1.00  0.00    -0.028 A 
HETATM   25  C   UNL     1       4.998  24.741  53.344  1.00  0.00     0.011 A 
HETATM   26  C   UNL     1       4.689  25.416  52.161  1.00  0.00     0.024 A 
HETATM   27  C   UNL     1       5.709  25.797  51.294  1.00  0.00     0.034 A 
HETATM   28 CL   UNL     1       5.329  26.622  49.832  1.00  0.00    -0.084 Cl
HETATM   29  C   UNL     1       7.038  25.515  51.603  1.00  0.00     0.024 A 
HETATM   30  C   UNL     1       7.350  24.844  52.787  1.00  0.00     0.011 A 
ENDBRANCH   9  24
TORSDOF 4
ENDMDL
MODEL 6
REMARK VINA RESULT:      -8.3      7.807     12.001
REMARK  4 active torsions:
REMARK  status: ('A' for Active; 'I' for Inactive)
REMARK    1  A    between atoms: C_9  and  C_10 
REMARK    2  A    between atoms: C_17  and  C_18 
REMARK       I    between atoms: C_18  and  N_19 
REMARK    3  A    between atoms: N_19  and  C_20 
REMARK    4  A    between atoms: C_23  and  O_24 
ROOT
HETATM    1  C   UNL     1       8.355  31.802  62.483  1.00  0.00     0.070 C 
HETATM    2  C   UNL     1       7.219  32.221  61.582  1.00  0.00     0.037 C 
HETATM    3  N   UNL     1       7.492  32.189  60.218  1.00  0.00    -0.192 N 
HETATM    4  C   UNL     1       6.533  32.280  59.276  1.00  0.00     0.725 A 
HETATM    5  N   UNL     1       5.250  32.578  59.649  1.00  0.00    -0.084 N 
HETATM    6  N   UNL     1       4.411  32.544  58.592  1.00  0.00    -0.149 NA
HETATM    7  C   UNL     1       5.271  32.263  57.605  1.00  0.00     0.275 A 
HETATM    8  N   UNL     1       6.580  32.098  57.981  1.00  0.00    -0.054 NA
HETATM    9  C   UNL     1       4.839  32.845  61.032  1.00  0.00     0.202 C 
HETATM   10  C   UNL     1       5.973  32.546  62.008  1.00  0.00     0.062 C 
HETATM   11  H   UNL     1       8.407  31.851  59.930  1.00  0.00     0.184 HD
ENDROOT
BRANCH  10  12
HETATM   12  C   UNL     1       5.541  32.535  63.432  1.00  0.00     0.256 C 
HETATM   13  N   UNL     1       6.007  33.608  64.157  1.00  0.00    -0.323 N 
HETATM   14  H   UNL     1       6.569  34.291  63.664  1.00  0.00     0.169 HD
HETATM   15  O   UNL     1       4.798  31.639  63.810  1.00  0.00    -0.267 OA
BRANCH  13  16
HETATM   16  C   UNL     1       5.797  33.865  65.529  1.00  0.00     0.035 A 
HETATM   17  C   UNL     1       4.539  33.934  66.126  1.00  0.00     0.032 A 
HETATM   18  C   UNL     1       4.421  34.182  67.499  1.00  0.00     0.039 A 
HETATM   19  C   UNL     1       5.551  34.356  68.297  1.00  0.00     0.068 A 
HETATM   20  C   UNL     1       6.810  34.289  67.707  1.00  0.00     0.039 A 
HETATM   21  C   UNL     1       6.930  34.050  66.331  1.00  0.00     0.032 A 
BRANCH  19  22
HETATM   22  O   UNL     1       5.288  34.583  69.619  1.00  0.00    -0.356 OA
HETATM   23  C   UNL     1       6.373  34.437  70.527  1.00  0.00     0.210 C 
ENDBRANCH  19  22
ENDBRANCH  13  16
ENDBRANCH  10  12
BRANCH   9  24
HETATM   24  C   UNL     1       4.334  34.281  61.172  1.00  0.00    -0.028 A 
HETATM   25  C   UNL     1       5.262  35.331  61.296  1.00  0.00     0.011 A 
HETATM   26  C   UNL     1       4.829  36.655  61.412  1.00  0.00     0.024 A 
HETATM   27  C   UNL     1       3.467  36.942  61.400  1.00  0.00     0.034 A 
HETATM   28 CL   UNL     1       2.933  38.571  61.549  1.00  0.00    -0.084 Cl
HETATM   29  C   UNL     1       2.532  35.918  61.265  1.00  0.00     0.024 A 
HETATM   30  C   UNL     1       2.962  34.595  61.146  1.00  0.00     0.011 A 
ENDBRANCH   9  24
TORSDOF 4
ENDMDL
MODEL 7
REMARK VINA RESULT:      -8.1      6.442      9.769
REMARK  4 active torsions:
REMARK  status: ('A' for Active; 'I' for Inactive)
REMARK    1  A    between atoms: C_9  and  C_10 
REMARK    2  A    between atoms: C_17  and  C_18 
REMARK       I    between atoms: C_18  and  N_19 
REMARK    3  A    between atoms: N_19  and  C_20 
REMARK    4  A    between atoms: C_23  and  O_24 
ROOT
HETATM    1  C   UNL     1       6.834  33.597  64.795  1.00  0.00     0.070 C 
HETATM    2  C   UNL     1       6.153  34.617  63.918  1.00  0.00     0.037 C 
HETATM    3  N   UNL     1       6.049  35.897  64.455  1.00  0.00    -0.192 N 
HETATM    4  C   UNL     1       5.707  36.974  63.722  1.00  0.00     0.725 A 
HETATM    5  N   UNL     1       5.285  36.803  62.431  1.00  0.00    -0.084 N 
HETATM    6  N   UNL     1       5.068  37.989  61.824  1.00  0.00    -0.149 NA
HETATM    7  C   UNL     1       5.337  38.832  62.828  1.00  0.00     0.275 A 
HETATM    8  N   UNL     1       5.727  38.251  64.008  1.00  0.00    -0.054 NA
HETATM    9  C   UNL     1       5.141  35.495  61.781  1.00  0.00     0.202 C 
HETATM   10  C   UNL     1       5.715  34.384  62.655  1.00  0.00     0.062 C 
HETATM   11  H   UNL     1       6.470  36.059  65.367  1.00  0.00     0.184 HD
ENDROOT
BRANCH  10  12
HETATM   12  C   UNL     1       5.847  33.082  61.947  1.00  0.00     0.256 C 
HETATM   13  N   UNL     1       6.852  33.065  61.006  1.00  0.00    -0.323 N 
HETATM   14  H   UNL     1       7.399  33.910  60.899  1.00  0.00     0.169 HD
HETATM   15  O   UNL     1       5.117  32.158  62.283  1.00  0.00    -0.267 OA
BRANCH  13  16
HETATM   16  C   UNL     1       7.204  31.996  60.155  1.00  0.00     0.035 A 
HETATM   17  C   UNL     1       8.273  31.132  60.389  1.00  0.00     0.032 A 
HETATM   18  C   UNL     1       8.546  30.088  59.497  1.00  0.00     0.039 A 
HETATM   19  C   UNL     1       7.757  29.883  58.367  1.00  0.00     0.068 A 
HETATM   20  C   UNL     1       6.687  30.743  58.127  1.00  0.00     0.039 A 
HETATM   21  C   UNL     1       6.418  31.795  59.014  1.00  0.00     0.032 A 
BRANCH  19  22
HETATM   22  O   UNL     1       8.133  28.825  57.590  1.00  0.00    -0.356 OA
HETATM   23  C   UNL     1       9.432  28.875  57.013  1.00  0.00     0.210 C 
ENDBRANCH  19  22
ENDBRANCH  13  16
ENDBRANCH  10  12
BRANCH   9  24
HETATM   24  C   UNL     1       3.678  35.235  61.421  1.00  0.00    -0.028 A 
HETATM   25  C   UNL     1       2.757  34.940  62.441  1.00  0.00     0.011 A 
HETATM   26  C   UNL     1       1.411  34.710  62.143  1.00  0.00     0.024 A 
HETATM   27  C   UNL     1       0.973  34.779  60.823  1.00  0.00     0.034 A 
HETATM   28 CL   UNL     1      -0.683  34.490  60.454  1.00  0.00    -0.084 Cl
HETATM   29  C   UNL     1       1.868  35.082  59.799  1.00  0.00     0.024 A 
HETATM   30  C   UNL     1       3.212  35.315  60.095  1.00  0.00     0.011 A 
ENDBRANCH   9  24
TORSDOF 4
ENDMDL
MODEL 8
REMARK VINA RESULT:      -7.9      3.081      4.422
REMARK  4 active torsions:
REMARK  status: ('A' for Active; 'I' for Inactive)
REMARK    1  A    between atoms: C_9  and  C_10 
REMARK    2  A    between atoms: C_17  and  C_18 
REMARK       I    between atoms: C_18  and  N_19 
REMARK    3  A    between atoms: N_19  and  C_20 
REMARK    4  A    between atoms: C_23  and  O_24 
ROOT
HETATM    1  C   UNL     1       4.686  26.892  57.226  1.00  0.00     0.070 C 
HETATM    2  C   UNL     1       4.546  28.046  56.265  1.00  0.00     0.037 C 
HETATM    3  N   UNL     1       3.633  29.028  56.635  1.00  0.00    -0.192 N 
HETATM    4  C   UNL     1       3.569  30.233  56.037  1.00  0.00     0.725 A 
HETATM    5  N   UNL     1       4.314  30.466  54.912  1.00  0.00    -0.084 N 
HETATM    6  N   UNL     1       4.193  31.746  54.500  1.00  0.00    -0.149 NA
HETATM    7  C   UNL     1       3.321  32.213  55.400  1.00  0.00     0.275 A 
HETATM    8  N   UNL     1       2.911  31.318  56.356  1.00  0.00    -0.054 NA
HETATM    9  C   UNL     1       5.173  29.462  54.275  1.00  0.00     0.202 C 
HETATM   10  C   UNL     1       5.285  28.209  55.139  1.00  0.00     0.062 C 
HETATM   11  H   UNL     1       3.164  28.920  57.531  1.00  0.00     0.184 HD
ENDROOT
BRANCH  10  12
HETATM   12  C   UNL     1       6.346  27.270  54.686  1.00  0.00     0.256 C 
HETATM   13  N   UNL     1       5.916  25.968  54.567  1.00  0.00    -0.323 N 
HETATM   14  H   UNL     1       4.944  25.781  54.777  1.00  0.00     0.169 HD
HETATM   15  O   UNL     1       7.452  27.723  54.419  1.00  0.00    -0.267 OA
BRANCH  13  16
HETATM   16  C   UNL     1       6.688  24.847  54.190  1.00  0.00     0.035 A 
HETATM   17  C   UNL     1       7.085  24.578  52.881  1.00  0.00     0.032 A 
HETATM   18  C   UNL     1       7.860  23.448  52.596  1.00  0.00     0.039 A 
HETATM   19  C   UNL     1       8.257  22.575  53.608  1.00  0.00     0.068 A 
HETATM   20  C   UNL     1       7.862  22.838  54.918  1.00  0.00     0.039 A 
HETATM   21  C   UNL     1       7.079  23.964  55.204  1.00  0.00     0.032 A 
BRANCH  19  22
HETATM   22  O   UNL     1       9.016  21.519  53.189  1.00  0.00    -0.356 OA
HETATM   23  C   UNL     1       8.652  20.231  53.670  1.00  0.00     0.210 C 
ENDBRANCH  19  22
ENDBRANCH  13  16
ENDBRANCH  10  12
BRANCH   9  24
HETATM   24  C   UNL     1       4.666  29.138  52.869  1.00  0.00    -0.028 A 
HETATM   25  C   UNL     1       3.285  28.985  52.651  1.00  0.00     0.011 A 
HETATM   26  C   UNL     1       2.792  28.702  51.375  1.00  0.00     0.024 A 
HETATM   27  C   UNL     1       3.673  28.576  50.304  1.00  0.00     0.034 A 
HETATM   28 CL   UNL     1       3.067  28.221  48.733  1.00  0.00    -0.084 Cl
HETATM   29  C   UNL     1       5.043  28.736  50.497  1.00  0.00     0.024 A 
HETATM   30  C   UNL     1       5.538  29.022  51.771  1.00  0.00     0.011 A 
ENDBRANCH   9  24
TORSDOF 4
ENDMDL
MODEL 9
REMARK VINA RESULT:      -7.9      4.147      7.014
REMARK  4 active torsions:
REMARK  status: ('A' for Active; 'I' for Inactive)
REMARK    1  A    between atoms: C_9  and  C_10 
REMARK    2  A    between atoms: C_17  and  C_18 
REMARK       I    between atoms: C_18  and  N_19 
REMARK    3  A    between atoms: N_19  and  C_20 
REMARK    4  A    between atoms: C_23  and  O_24 
ROOT
HETATM    1  C   UNL     1       6.438  25.512  51.810  1.00  0.00     0.070 C 
HETATM    2  C   UNL     1       5.548  26.528  51.140  1.00  0.00     0.037 C 
HETATM    3  N   UNL     1       5.306  26.313  49.786  1.00  0.00    -0.192 N 
HETATM    4  C   UNL     1       4.345  26.963  49.101  1.00  0.00     0.725 A 
HETATM    5  N   UNL     1       3.673  27.995  49.699  1.00  0.00    -0.084 N 
HETATM    6  N   UNL     1       2.693  28.469  48.902  1.00  0.00    -0.149 NA
HETATM    7  C   UNL     1       2.864  27.703  47.818  1.00  0.00     0.275 A 
HETATM    8  N   UNL     1       3.867  26.771  47.898  1.00  0.00    -0.054 NA
HETATM    9  C   UNL     1       3.954  28.480  51.055  1.00  0.00     0.202 C 
HETATM   10  C   UNL     1       4.936  27.560  51.773  1.00  0.00     0.062 C 
HETATM   11  H   UNL     1       5.705  25.478  49.364  1.00  0.00     0.184 HD
ENDROOT
BRANCH  10  12
HETATM   12  C   UNL     1       5.054  27.841  53.230  1.00  0.00     0.256 C 
HETATM   13  N   UNL     1       6.336  28.138  53.632  1.00  0.00    -0.323 N 
HETATM   14  H   UNL     1       7.053  28.153  52.918  1.00  0.00     0.169 HD
HETATM   15  O   UNL     1       4.035  27.834  53.909  1.00  0.00    -0.267 OA
BRANCH  13  16
HETATM   16  C   UNL     1       6.773  28.418  54.945  1.00  0.00     0.035 A 
HETATM   17  C   UNL     1       6.333  29.506  55.698  1.00  0.00     0.032 A 
HETATM   18  C   UNL     1       6.810  29.705  56.999  1.00  0.00     0.039 A 
HETATM   19  C   UNL     1       7.724  28.821  57.571  1.00  0.00     0.068 A 
HETATM   20  C   UNL     1       8.168  27.733  56.824  1.00  0.00     0.039 A 
HETATM   21  C   UNL     1       7.698  27.537  55.518  1.00  0.00     0.032 A 
BRANCH  19  22
HETATM   22  O   UNL     1       8.098  29.131  58.848  1.00  0.00    -0.356 OA
HETATM   23  C   UNL     1       8.286  30.508  59.150  1.00  0.00     0.210 C 
ENDBRANCH  19  22
ENDBRANCH  13  16
ENDBRANCH  10  12
BRANCH   9  24
HETATM   24  C   UNL     1       4.456  29.924  51.012  1.00  0.00    -0.028 A 
HETATM   25  C   UNL     1       5.504  30.266  50.138  1.00  0.00     0.011 A 
HETATM   26  C   UNL     1       5.974  31.580  50.068  1.00  0.00     0.024 A 
HETATM   27  C   UNL     1       5.399  32.565  50.867  1.00  0.00     0.034 A 
HETATM   28 CL   UNL     1       5.982  34.182  50.786  1.00  0.00    -0.084 Cl
HETATM   29  C   UNL     1       4.352  32.249  51.730  1.00  0.00     0.024 A 
HETATM   30  C   UNL     1       3.878  30.937  51.799  1.00  0.00     0.011 A 
ENDBRANCH   9  24
TORSDOF 4
ENDMDL
MODEL 10
REMARK VINA RESULT:      -7.8      4.967      7.299
REMARK  4 active torsions:
REMARK  status: ('A' for Active; 'I' for Inactive)
REMARK    1  A    between atoms: C_9  and  C_10 
REMARK    2  A    between atoms: C_17  and  C_18 
REMARK       I    between atoms: C_18  and  N_19 
REMARK    3  A    between atoms: N_19  and  C_20 
REMARK    4  A    between atoms: C_23  and  O_24 
ROOT
HETATM    1  C   UNL     1       4.618  31.354  50.949  1.00  0.00     0.070 C 
HETATM    2  C   UNL     1       4.565  30.319  52.046  1.00  0.00     0.037 C 
HETATM    3  N   UNL     1       4.778  30.799  53.334  1.00  0.00    -0.192 N 
HETATM    4  C   UNL     1       4.517  30.075  54.440  1.00  0.00     0.725 A 
HETATM    5  N   UNL     1       4.177  28.755  54.314  1.00  0.00    -0.084 N 
HETATM    6  N   UNL     1       3.867  28.212  55.510  1.00  0.00    -0.149 NA
HETATM    7  C   UNL     1       4.087  29.255  56.318  1.00  0.00     0.275 A 
HETATM    8  N   UNL     1       4.490  30.414  55.703  1.00  0.00    -0.054 NA
HETATM    9  C   UNL     1       4.110  28.044  53.032  1.00  0.00     0.202 C 
HETATM   10  C   UNL     1       4.262  29.010  51.861  1.00  0.00     0.062 C 
HETATM   11  H   UNL     1       4.911  31.802  53.446  1.00  0.00     0.184 HD
ENDROOT
BRANCH  10  12
HETATM   12  C   UNL     1       3.934  28.400  50.544  1.00  0.00     0.256 C 
HETATM   13  N   UNL     1       2.650  28.658  50.121  1.00  0.00    -0.323 N 
HETATM   14  H   UNL     1       2.073  29.234  50.721  1.00  0.00     0.169 HD
HETATM   15  O   UNL     1       4.813  27.791  49.948  1.00  0.00    -0.267 OA
BRANCH  13  16
HETATM   16  C   UNL     1       2.034  28.198  48.938  1.00  0.00     0.035 A 
HETATM   17  C   UNL     1       2.222  26.923  48.406  1.00  0.00     0.032 A 
HETATM   18  C   UNL     1       1.563  26.544  47.231  1.00  0.00     0.039 A 
HETATM   19  C   UNL     1       0.703  27.422  46.573  1.00  0.00     0.068 A 
HETATM   20  C   UNL     1       0.512  28.698  47.099  1.00  0.00     0.039 A 
HETATM   21  C   UNL     1       1.178  29.083  48.271  1.00  0.00     0.032 A 
BRANCH  19  22
HETATM   22  O   UNL     1       0.122  26.918  45.444  1.00  0.00    -0.356 OA
HETATM   23  C   UNL     1      -0.749  27.782  44.724  1.00  0.00     0.210 C 
ENDBRANCH  19  22
ENDBRANCH  13  16
ENDBRANCH  10  12
BRANCH   9  24
HETATM   24  C   UNL     1       5.153  26.926  52.985  1.00  0.00    -0.028 A 
HETATM   25  C   UNL     1       4.731  25.593  52.837  1.00  0.00     0.011 A 
HETATM   26  C   UNL     1       5.662  24.553  52.779  1.00  0.00     0.024 A 
HETATM   27  C   UNL     1       7.023  24.836  52.862  1.00  0.00     0.034 A 
HETATM   28 CL   UNL     1       8.170  23.555  52.796  1.00  0.00    -0.084 Cl
HETATM   29  C   UNL     1       7.462  26.151  52.996  1.00  0.00     0.024 A 
HETATM   30  C   UNL     1       6.533  27.193  53.051  1.00  0.00     0.011 A 
ENDBRANCH   9  24
TORSDOF 4
ENDMDL
