MODEL 1
REMARK VINA RESULT:      -9.3      0.000      0.000
REMARK  6 active torsions:
REMARK  status: ('A' for Active; 'I' for Inactive)
REMARK    1  A    between atoms: C_2  and  O_3 
REMARK    2  A    between atoms: O_3  and  C_4 
REMARK    3  A    between atoms: C_5  and  O_6 
REMARK    4  A    between atoms: C_9  and  C_10 
REMARK    5  A    between atoms: C_19  and  C_20 
REMARK    6  A    between atoms: C_22  and  O_23 
ROOT
HETATM    1  C   UNL     1       7.451  25.570  53.580  1.00  0.00     0.156 A 
HETATM    2  N   UNL     1       6.763  24.994  52.408  1.00  0.00    -0.343 N 
HETATM    3  C   UNL     1       5.446  25.413  52.253  1.00  0.00     0.271 A 
HETATM    4  O   UNL     1       4.650  25.056  51.406  1.00  0.00    -0.266 OA
HETATM    5  C   UNL     1       5.274  26.341  53.302  1.00  0.00     0.128 A 
HETATM    6  C   UNL     1       6.387  26.465  54.084  1.00  0.00     0.034 A 
HETATM    7  N   UNL     1       4.348  27.197  53.755  1.00  0.00    -0.272 N 
HETATM    8  H   UNL     1       3.405  27.365  53.417  1.00  0.00     0.189 HD
HETATM    9  N   UNL     1       4.831  27.951  54.773  1.00  0.00    -0.173 NA
HETATM   10  C   UNL     1       6.100  27.517  54.970  1.00  0.00     0.098 A 
HETATM   11  H   UNL     1       7.149  24.265  51.826  1.00  0.00     0.163 HD
ENDROOT
BRANCH   1  12
HETATM   12  C   UNL     1       7.765  24.505  54.606  1.00  0.00    -0.028 A 
HETATM   13  C   UNL     1       8.149  24.818  55.926  1.00  0.00     0.012 A 
HETATM   14  C   UNL     1       8.358  23.814  56.869  1.00  0.00     0.040 A 
HETATM   15  C   UNL     1       8.176  22.489  56.501  1.00  0.00     0.099 A 
HETATM   16  C   UNL     1       7.804  22.136  55.201  1.00  0.00     0.102 A 
HETATM   17  C   UNL     1       7.596  23.146  54.259  1.00  0.00     0.049 A 
BRANCH  15  18
HETATM   18  O   UNL     1       8.366  21.524  57.451  1.00  0.00    -0.358 OA
HETATM   19  H   UNL     1       9.205  21.763  57.892  1.00  0.00     0.218 HD
ENDBRANCH  15  18
BRANCH  16  20
HETATM   20  O   UNL     1       7.657  20.788  54.994  1.00  0.00    -0.349 OA
BRANCH  20  21
HETATM   21  C   UNL     1       8.697  20.125  54.278  1.00  0.00     0.171 C 
HETATM   22  C   UNL     1       8.414  20.292  52.795  1.00  0.00     0.034 C 
ENDBRANCH  20  21
ENDBRANCH  16  20
ENDBRANCH   1  12
BRANCH  10  23
HETATM   23  C   UNL     1       6.978  28.188  55.925  1.00  0.00    -0.002 A 
HETATM   24  C   UNL     1       8.211  28.698  55.482  1.00  0.00     0.050 A 
HETATM   25  C   UNL     1       9.088  29.320  56.373  1.00  0.00     0.069 A 
HETATM   26  C   UNL     1       8.725  29.434  57.716  1.00  0.00     0.037 A 
HETATM   27  C   UNL     1       7.497  28.948  58.165  1.00  0.00     0.004 A 
HETATM   28  C   UNL     1       6.622  28.328  57.270  1.00  0.00     0.014 A 
BRANCH  25  29
HETATM   29  O   UNL     1      10.312  29.845  56.060  1.00  0.00    -0.356 OA
HETATM   30  C   UNL     1      11.299  29.824  57.086  1.00  0.00     0.210 C 
ENDBRANCH  25  29
ENDBRANCH  10  23
TORSDOF 6
ENDMDL
MODEL 2
REMARK VINA RESULT:      -9.2      1.607      6.406
REMARK  6 active torsions:
REMARK  status: ('A' for Active; 'I' for Inactive)
REMARK    1  A    between atoms: C_2  and  O_3 
REMARK    2  A    between atoms: O_3  and  C_4 
REMARK    3  A    between atoms: C_5  and  O_6 
REMARK    4  A    between atoms: C_9  and  C_10 
REMARK    5  A    between atoms: C_19  and  C_20 
REMARK    6  A    between atoms: C_22  and  O_23 
ROOT
HETATM    1  C   UNL     1       5.377  26.871  55.088  1.00  0.00     0.156 A 
HETATM    2  N   UNL     1       4.301  27.838  54.791  1.00  0.00    -0.343 N 
HETATM    3  C   UNL     1       3.868  27.826  53.470  1.00  0.00     0.271 A 
HETATM    4  O   UNL     1       3.035  28.548  52.957  1.00  0.00    -0.266 OA
HETATM    5  C   UNL     1       4.621  26.782  52.889  1.00  0.00     0.128 A 
HETATM    6  C   UNL     1       5.492  26.209  53.771  1.00  0.00     0.034 A 
HETATM    7  N   UNL     1       4.716  26.130  51.723  1.00  0.00    -0.272 N 
HETATM    8  H   UNL     1       4.222  26.293  50.851  1.00  0.00     0.189 HD
HETATM    9  N   UNL     1       5.571  25.083  51.813  1.00  0.00    -0.173 NA
HETATM   10  C   UNL     1       6.042  25.113  53.085  1.00  0.00     0.098 A 
HETATM   11  H   UNL     1       3.976  28.540  55.439  1.00  0.00     0.163 HD
ENDROOT
BRANCH   1  12
HETATM   12  C   UNL     1       6.668  27.580  55.430  1.00  0.00    -0.028 A 
HETATM   13  C   UNL     1       7.570  28.022  54.441  1.00  0.00     0.012 A 
HETATM   14  C   UNL     1       8.714  28.740  54.783  1.00  0.00     0.040 A 
HETATM   15  C   UNL     1       8.960  29.027  56.117  1.00  0.00     0.099 A 
HETATM   16  C   UNL     1       8.096  28.599  57.129  1.00  0.00     0.102 A 
HETATM   17  C   UNL     1       6.950  27.880  56.780  1.00  0.00     0.049 A 
BRANCH  15  18
HETATM   18  O   UNL     1      10.079  29.751  56.425  1.00  0.00    -0.358 OA
HETATM   19  H   UNL     1       9.823  30.684  56.291  1.00  0.00     0.218 HD
ENDBRANCH  15  18
BRANCH  16  20
HETATM   20  O   UNL     1       8.472  28.966  58.395  1.00  0.00    -0.349 OA
BRANCH  20  21
HETATM   21  C   UNL     1       7.884  30.149  58.931  1.00  0.00     0.171 C 
HETATM   22  C   UNL     1       8.720  30.582  60.122  1.00  0.00     0.034 C 
ENDBRANCH  20  21
ENDBRANCH  16  20
ENDBRANCH   1  12
BRANCH  10  23
HETATM   23  C   UNL     1       6.912  24.051  53.583  1.00  0.00    -0.002 A 
HETATM   24  C   UNL     1       7.012  23.841  54.971  1.00  0.00     0.050 A 
HETATM   25  C   UNL     1       7.856  22.854  55.484  1.00  0.00     0.069 A 
HETATM   26  C   UNL     1       8.601  22.070  54.601  1.00  0.00     0.037 A 
HETATM   27  C   UNL     1       8.496  22.256  53.223  1.00  0.00     0.004 A 
HETATM   28  C   UNL     1       7.650  23.243  52.713  1.00  0.00     0.014 A 
BRANCH  25  29
HETATM   29  O   UNL     1       8.042  22.565  56.808  1.00  0.00    -0.356 OA
HETATM   30  C   UNL     1       8.427  21.233  57.126  1.00  0.00     0.210 C 
ENDBRANCH  25  29
ENDBRANCH  10  23
TORSDOF 6
ENDMDL
MODEL 3
REMARK VINA RESULT:      -9.1      2.269      7.039
REMARK  6 active torsions:
REMARK  status: ('A' for Active; 'I' for Inactive)
REMARK    1  A    between atoms: C_2  and  O_3 
REMARK    2  A    between atoms: O_3  and  C_4 
REMARK    3  A    between atoms: C_5  and  O_6 
REMARK    4  A    between atoms: C_9  and  C_10 
REMARK    5  A    between atoms: C_19  and  C_20 
REMARK    6  A    between atoms: C_22  and  O_23 
ROOT
HETATM    1  C   UNL     1       6.159  27.997  57.397  1.00  0.00     0.156 A 
HETATM    2  N   UNL     1       5.064  28.977  57.541  1.00  0.00    -0.343 N 
HETATM    3  C   UNL     1       4.221  29.061  56.439  1.00  0.00     0.271 A 
HETATM    4  O   UNL     1       3.280  29.815  56.282  1.00  0.00    -0.266 OA
HETATM    5  C   UNL     1       4.721  28.068  55.569  1.00  0.00     0.128 A 
HETATM    6  C   UNL     1       5.823  27.436  56.071  1.00  0.00     0.034 A 
HETATM    7  N   UNL     1       4.416  27.505  54.392  1.00  0.00    -0.272 N 
HETATM    8  H   UNL     1       3.665  27.730  53.746  1.00  0.00     0.189 HD
HETATM    9  N   UNL     1       5.233  26.459  54.120  1.00  0.00    -0.173 NA
HETATM   10  C   UNL     1       6.096  26.397  55.165  1.00  0.00     0.098 A 
HETATM   11  H   UNL     1       4.984  29.627  58.309  1.00  0.00     0.163 HD
ENDROOT
BRANCH   1  12
HETATM   12  C   UNL     1       7.504  28.686  57.345  1.00  0.00    -0.028 A 
HETATM   13  C   UNL     1       8.301  28.698  56.182  1.00  0.00     0.012 A 
HETATM   14  C   UNL     1       9.500  29.406  56.142  1.00  0.00     0.040 A 
HETATM   15  C   UNL     1       9.908  30.114  57.263  1.00  0.00     0.099 A 
HETATM   16  C   UNL     1       9.151  30.121  58.438  1.00  0.00     0.102 A 
HETATM   17  C   UNL     1       7.949  29.409  58.474  1.00  0.00     0.049 A 
BRANCH  15  18
HETATM   18  O   UNL     1      11.078  30.818  57.192  1.00  0.00    -0.358 OA
HETATM   19  H   UNL     1      11.239  31.135  58.102  1.00  0.00     0.218 HD
ENDBRANCH  15  18
BRANCH  16  20
HETATM   20  O   UNL     1       9.682  30.870  59.456  1.00  0.00    -0.349 OA
BRANCH  20  21
HETATM   21  C   UNL     1       9.146  30.665  60.762  1.00  0.00     0.171 C 
HETATM   22  C   UNL     1       9.486  31.887  61.597  1.00  0.00     0.034 C 
ENDBRANCH  20  21
ENDBRANCH  16  20
ENDBRANCH   1  12
BRANCH  10  23
HETATM   23  C   UNL     1       7.061  25.306  55.271  1.00  0.00    -0.002 A 
HETATM   24  C   UNL     1       7.318  24.505  54.143  1.00  0.00     0.050 A 
HETATM   25  C   UNL     1       8.213  23.436  54.216  1.00  0.00     0.069 A 
HETATM   26  C   UNL     1       8.856  23.170  55.425  1.00  0.00     0.037 A 
HETATM   27  C   UNL     1       8.624  23.967  56.546  1.00  0.00     0.004 A 
HETATM   28  C   UNL     1       7.729  25.037  56.468  1.00  0.00     0.014 A 
BRANCH  25  29
HETATM   29  O   UNL     1       8.534  22.587  53.193  1.00  0.00    -0.356 OA
HETATM   30  C   UNL     1       7.967  21.282  53.240  1.00  0.00     0.210 C 
ENDBRANCH  25  29
ENDBRANCH  10  23
TORSDOF 6
ENDMDL
MODEL 4
REMARK VINA RESULT:      -9.1      2.380      6.838
REMARK  6 active torsions:
REMARK  status: ('A' for Active; 'I' for Inactive)
REMARK    1  A    between atoms: C_2  and  O_3 
REMARK    2  A    between atoms: O_3  and  C_4 
REMARK    3  A    between atoms: C_5  and  O_6 
REMARK    4  A    between atoms: C_9  and  C_10 
REMARK    5  A    between atoms: C_19  and  C_20 
REMARK    6  A    between atoms: C_22  and  O_23 
ROOT
HETATM    1  C   UNL     1       7.630  27.684  55.186  1.00  0.00     0.156 A 
HETATM    2  N   UNL     1       7.831  28.746  56.193  1.00  0.00    -0.343 N 
HETATM    3  C   UNL     1       7.853  28.294  57.507  1.00  0.00     0.271 A 
HETATM    4  O   UNL     1       7.955  28.961  58.519  1.00  0.00    -0.266 OA
HETATM    5  C   UNL     1       7.734  26.894  57.372  1.00  0.00     0.128 A 
HETATM    6  C   UNL     1       7.605  26.499  56.071  1.00  0.00     0.034 A 
HETATM    7  N   UNL     1       7.756  25.796  58.141  1.00  0.00    -0.272 N 
HETATM    8  H   UNL     1       7.833  25.718  59.150  1.00  0.00     0.189 HD
HETATM    9  N   UNL     1       7.723  24.669  57.390  1.00  0.00    -0.173 NA
HETATM   10  C   UNL     1       7.650  25.095  56.105  1.00  0.00     0.098 A 
HETATM   11  H   UNL     1       7.832  29.733  55.982  1.00  0.00     0.163 HD
ENDROOT
BRANCH   1  12
HETATM   12  C   UNL     1       6.299  27.841  54.488  1.00  0.00    -0.028 A 
HETATM   13  C   UNL     1       5.132  28.244  55.169  1.00  0.00     0.012 A 
HETATM   14  C   UNL     1       3.937  28.453  54.483  1.00  0.00     0.040 A 
HETATM   15  C   UNL     1       3.902  28.267  53.110  1.00  0.00     0.099 A 
HETATM   16  C   UNL     1       5.034  27.859  52.398  1.00  0.00     0.102 A 
HETATM   17  C   UNL     1       6.230  27.651  53.090  1.00  0.00     0.049 A 
BRANCH  15  18
HETATM   18  O   UNL     1       2.723  28.498  52.457  1.00  0.00    -0.358 OA
HETATM   19  H   UNL     1       2.938  28.419  51.507  1.00  0.00     0.218 HD
ENDBRANCH  15  18
BRANCH  16  20
HETATM   20  O   UNL     1       4.842  27.724  51.047  1.00  0.00    -0.349 OA
BRANCH  20  21
HETATM   21  C   UNL     1       5.031  26.425  50.490  1.00  0.00     0.171 C 
HETATM   22  C   UNL     1       4.298  26.382  49.162  1.00  0.00     0.034 C 
ENDBRANCH  20  21
ENDBRANCH  16  20
ENDBRANCH   1  12
BRANCH  10  23
HETATM   23  C   UNL     1       7.713  24.144  54.998  1.00  0.00    -0.002 A 
HETATM   24  C   UNL     1       7.710  22.766  55.278  1.00  0.00     0.050 A 
HETATM   25  C   UNL     1       7.798  21.829  54.247  1.00  0.00     0.069 A 
HETATM   26  C   UNL     1       7.886  22.276  52.927  1.00  0.00     0.037 A 
HETATM   27  C   UNL     1       7.871  23.640  52.636  1.00  0.00     0.004 A 
HETATM   28  C   UNL     1       7.782  24.574  53.670  1.00  0.00     0.014 A 
BRANCH  25  29
HETATM   29  O   UNL     1       7.813  20.469  54.396  1.00  0.00    -0.356 OA
HETATM   30  C   UNL     1       8.370  19.963  55.605  1.00  0.00     0.210 C 
ENDBRANCH  25  29
ENDBRANCH  10  23
TORSDOF 6
ENDMDL
MODEL 5
REMARK VINA RESULT:      -9.0      2.168      6.874
REMARK  6 active torsions:
REMARK  status: ('A' for Active; 'I' for Inactive)
REMARK    1  A    between atoms: C_2  and  O_3 
REMARK    2  A    between atoms: O_3  and  C_4 
REMARK    3  A    between atoms: C_5  and  O_6 
REMARK    4  A    between atoms: C_9  and  C_10 
REMARK    5  A    between atoms: C_19  and  C_20 
REMARK    6  A    between atoms: C_22  and  O_23 
ROOT
HETATM    1  C   UNL     1       5.885  27.850  56.922  1.00  0.00     0.156 A 
HETATM    2  N   UNL     1       4.898  28.796  57.481  1.00  0.00    -0.343 N 
HETATM    3  C   UNL     1       3.938  29.226  56.572  1.00  0.00     0.271 A 
HETATM    4  O   UNL     1       3.049  30.034  56.760  1.00  0.00    -0.266 OA
HETATM    5  C   UNL     1       4.248  28.500  55.402  1.00  0.00     0.128 A 
HETATM    6  C   UNL     1       5.347  27.703  55.553  1.00  0.00     0.034 A 
HETATM    7  N   UNL     1       3.758  28.307  54.169  1.00  0.00    -0.272 N 
HETATM    8  H   UNL     1       2.956  28.739  53.721  1.00  0.00     0.189 HD
HETATM    9  N   UNL     1       4.449  27.346  53.510  1.00  0.00    -0.173 NA
HETATM   10  C   UNL     1       5.423  26.952  54.367  1.00  0.00     0.098 A 
HETATM   11  H   UNL     1       4.964  29.205  58.401  1.00  0.00     0.163 HD
ENDROOT
BRANCH   1  12
HETATM   12  C   UNL     1       7.265  28.466  56.876  1.00  0.00    -0.028 A 
HETATM   13  C   UNL     1       8.026  28.525  55.691  1.00  0.00     0.012 A 
HETATM   14  C   UNL     1       9.262  29.167  55.663  1.00  0.00     0.040 A 
HETATM   15  C   UNL     1       9.744  29.760  56.820  1.00  0.00     0.099 A 
HETATM   16  C   UNL     1       9.025  29.717  58.018  1.00  0.00     0.102 A 
HETATM   17  C   UNL     1       7.786  29.072  58.041  1.00  0.00     0.049 A 
BRANCH  15  18
HETATM   18  O   UNL     1      10.950  30.402  56.762  1.00  0.00    -0.358 OA
HETATM   19  H   UNL     1      11.606  29.695  56.605  1.00  0.00     0.218 HD
ENDBRANCH  15  18
BRANCH  16  20
HETATM   20  O   UNL     1       9.629  30.353  59.072  1.00  0.00    -0.349 OA
BRANCH  20  21
HETATM   21  C   UNL     1       8.791  30.764  60.150  1.00  0.00     0.171 C 
HETATM   22  C   UNL     1       9.485  31.911  60.862  1.00  0.00     0.034 C 
ENDBRANCH  20  21
ENDBRANCH  16  20
ENDBRANCH   1  12
BRANCH  10  23
HETATM   23  C   UNL     1       6.302  25.835  54.035  1.00  0.00    -0.002 A 
HETATM   24  C   UNL     1       6.362  24.728  54.901  1.00  0.00     0.050 A 
HETATM   25  C   UNL     1       7.213  23.655  54.629  1.00  0.00     0.069 A 
HETATM   26  C   UNL     1       8.006  23.689  53.481  1.00  0.00     0.037 A 
HETATM   27  C   UNL     1       7.942  24.772  52.605  1.00  0.00     0.004 A 
HETATM   28  C   UNL     1       7.089  25.843  52.879  1.00  0.00     0.014 A 
BRANCH  25  29
HETATM   29  O   UNL     1       7.362  22.534  55.399  1.00  0.00    -0.356 OA
HETATM   30  C   UNL     1       8.244  22.633  56.512  1.00  0.00     0.210 C 
ENDBRANCH  25  29
ENDBRANCH  10  23
TORSDOF 6
ENDMDL
MODEL 6
REMARK VINA RESULT:      -8.9      1.475      5.855
REMARK  6 active torsions:
REMARK  status: ('A' for Active; 'I' for Inactive)
REMARK    1  A    between atoms: C_2  and  O_3 
REMARK    2  A    between atoms: O_3  and  C_4 
REMARK    3  A    between atoms: C_5  and  O_6 
REMARK    4  A    between atoms: C_9  and  C_10 
REMARK    5  A    between atoms: C_19  and  C_20 
REMARK    6  A    between atoms: C_22  and  O_23 
ROOT
HETATM    1  C   UNL     1       4.986  25.983  54.151  1.00  0.00     0.156 A 
HETATM    2  N   UNL     1       4.199  26.951  53.360  1.00  0.00    -0.343 N 
HETATM    3  C   UNL     1       4.664  27.146  52.065  1.00  0.00     0.271 A 
HETATM    4  O   UNL     1       4.230  27.917  51.231  1.00  0.00    -0.266 OA
HETATM    5  C   UNL     1       5.741  26.240  51.965  1.00  0.00     0.128 A 
HETATM    6  C   UNL     1       5.963  25.555  53.126  1.00  0.00     0.034 A 
HETATM    7  N   UNL     1       6.610  25.795  51.046  1.00  0.00    -0.272 N 
HETATM    8  H   UNL     1       6.731  26.086  50.081  1.00  0.00     0.189 HD
HETATM    9  N   UNL     1       7.360  24.776  51.530  1.00  0.00    -0.173 NA
HETATM   10  C   UNL     1       6.952  24.608  52.812  1.00  0.00     0.098 A 
HETATM   11  H   UNL     1       3.460  27.524  53.741  1.00  0.00     0.163 HD
ENDROOT
BRANCH   1  12
HETATM   12  C   UNL     1       5.699  26.666  55.296  1.00  0.00    -0.028 A 
HETATM   13  C   UNL     1       5.637  26.183  56.619  1.00  0.00     0.012 A 
HETATM   14  C   UNL     1       6.366  26.791  57.639  1.00  0.00     0.040 A 
HETATM   15  C   UNL     1       7.168  27.882  57.342  1.00  0.00     0.099 A 
HETATM   16  C   UNL     1       7.250  28.398  56.045  1.00  0.00     0.102 A 
HETATM   17  C   UNL     1       6.517  27.785  55.026  1.00  0.00     0.049 A 
BRANCH  15  18
HETATM   18  O   UNL     1       7.890  28.448  58.356  1.00  0.00    -0.358 OA
HETATM   19  H   UNL     1       7.305  29.136  58.731  1.00  0.00     0.218 HD
ENDBRANCH  15  18
BRANCH  16  20
HETATM   20  O   UNL     1       8.089  29.474  55.910  1.00  0.00    -0.349 OA
BRANCH  20  21
HETATM   21  C   UNL     1       9.364  29.234  55.318  1.00  0.00     0.171 C 
HETATM   22  C   UNL     1      10.421  29.759  56.273  1.00  0.00     0.034 C 
ENDBRANCH  20  21
ENDBRANCH  16  20
ENDBRANCH   1  12
BRANCH  10  23
HETATM   23  C   UNL     1       7.468  23.506  53.620  1.00  0.00    -0.002 A 
HETATM   24  C   UNL     1       7.750  23.727  54.981  1.00  0.00     0.050 A 
HETATM   25  C   UNL     1       8.270  22.705  55.777  1.00  0.00     0.069 A 
HETATM   26  C   UNL     1       8.508  21.453  55.207  1.00  0.00     0.037 A 
HETATM   27  C   UNL     1       8.216  21.216  53.864  1.00  0.00     0.004 A 
HETATM   28  C   UNL     1       7.693  22.241  53.071  1.00  0.00     0.014 A 
BRANCH  25  29
HETATM   29  O   UNL     1       8.590  22.804  57.103  1.00  0.00    -0.356 OA
HETATM   30  C   UNL     1       8.808  24.114  57.614  1.00  0.00     0.210 C 
ENDBRANCH  25  29
ENDBRANCH  10  23
TORSDOF 6
ENDMDL
MODEL 7
REMARK VINA RESULT:      -8.9      1.261      2.346
REMARK  6 active torsions:
REMARK  status: ('A' for Active; 'I' for Inactive)
REMARK    1  A    between atoms: C_2  and  O_3 
REMARK    2  A    between atoms: O_3  and  C_4 
REMARK    3  A    between atoms: C_5  and  O_6 
REMARK    4  A    between atoms: C_9  and  C_10 
REMARK    5  A    between atoms: C_19  and  C_20 
REMARK    6  A    between atoms: C_22  and  O_23 
ROOT
HETATM    1  C   UNL     1       7.130  25.949  52.301  1.00  0.00     0.156 A 
HETATM    2  N   UNL     1       6.477  25.672  51.006  1.00  0.00    -0.343 N 
HETATM    3  C   UNL     1       5.190  26.185  50.892  1.00  0.00     0.271 A 
HETATM    4  O   UNL     1       4.422  26.058  49.957  1.00  0.00    -0.266 OA
HETATM    5  C   UNL     1       5.006  26.878  52.107  1.00  0.00     0.128 A 
HETATM    6  C   UNL     1       6.082  26.773  52.941  1.00  0.00     0.034 A 
HETATM    7  N   UNL     1       4.096  27.667  52.696  1.00  0.00    -0.272 N 
HETATM    8  H   UNL     1       3.180  27.953  52.364  1.00  0.00     0.189 HD
HETATM    9  N   UNL     1       4.560  28.161  53.869  1.00  0.00    -0.173 NA
HETATM   10  C   UNL     1       5.798  27.628  54.019  1.00  0.00     0.098 A 
HETATM   11  H   UNL     1       6.859  25.063  50.297  1.00  0.00     0.163 HD
ENDROOT
BRANCH   1  12
HETATM   12  C   UNL     1       7.344  24.676  53.086  1.00  0.00    -0.028 A 
HETATM   13  C   UNL     1       7.796  23.484  52.484  1.00  0.00     0.012 A 
HETATM   14  C   UNL     1       8.057  22.348  53.247  1.00  0.00     0.040 A 
HETATM   15  C   UNL     1       7.874  22.398  54.621  1.00  0.00     0.099 A 
HETATM   16  C   UNL     1       7.420  23.557  55.257  1.00  0.00     0.102 A 
HETATM   17  C   UNL     1       7.160  24.693  54.487  1.00  0.00     0.049 A 
BRANCH  15  18
HETATM   18  O   UNL     1       8.157  21.276  55.350  1.00  0.00    -0.358 OA
HETATM   19  H   UNL     1       8.343  20.582  54.688  1.00  0.00     0.218 HD
ENDBRANCH  15  18
BRANCH  16  20
HETATM   20  O   UNL     1       7.296  23.451  56.618  1.00  0.00    -0.349 OA
BRANCH  20  21
HETATM   21  C   UNL     1       7.645  24.597  57.392  1.00  0.00     0.171 C 
HETATM   22  C   UNL     1       9.160  24.657  57.469  1.00  0.00     0.034 C 
ENDBRANCH  20  21
ENDBRANCH  16  20
ENDBRANCH   1  12
BRANCH  10  23
HETATM   23  C   UNL     1       6.655  28.033  55.130  1.00  0.00    -0.002 A 
HETATM   24  C   UNL     1       7.903  28.622  54.854  1.00  0.00     0.050 A 
HETATM   25  C   UNL     1       8.760  28.996  55.890  1.00  0.00     0.069 A 
HETATM   26  C   UNL     1       8.364  28.781  57.212  1.00  0.00     0.037 A 
HETATM   27  C   UNL     1       7.122  28.215  57.499  1.00  0.00     0.004 A 
HETATM   28  C   UNL     1       6.266  27.844  56.459  1.00  0.00     0.014 A 
BRANCH  25  29
HETATM   29  O   UNL     1       9.995  29.566  55.745  1.00  0.00    -0.356 OA
HETATM   30  C   UNL     1      10.800  29.659  56.915  1.00  0.00     0.210 C 
ENDBRANCH  25  29
ENDBRANCH  10  23
TORSDOF 6
ENDMDL
MODEL 8
REMARK VINA RESULT:      -8.4      2.040      4.970
REMARK  6 active torsions:
REMARK  status: ('A' for Active; 'I' for Inactive)
REMARK    1  A    between atoms: C_2  and  O_3 
REMARK    2  A    between atoms: O_3  and  C_4 
REMARK    3  A    between atoms: C_5  and  O_6 
REMARK    4  A    between atoms: C_9  and  C_10 
REMARK    5  A    between atoms: C_19  and  C_20 
REMARK    6  A    between atoms: C_22  and  O_23 
ROOT
HETATM    1  C   UNL     1       6.814  26.531  56.629  1.00  0.00     0.156 A 
HETATM    2  N   UNL     1       7.180  27.234  57.875  1.00  0.00    -0.343 N 
HETATM    3  C   UNL     1       8.008  28.335  57.690  1.00  0.00     0.271 A 
HETATM    4  O   UNL     1       8.490  29.052  58.546  1.00  0.00    -0.266 OA
HETATM    5  C   UNL     1       8.142  28.410  56.287  1.00  0.00     0.128 A 
HETATM    6  C   UNL     1       7.481  27.405  55.640  1.00  0.00     0.034 A 
HETATM    7  N   UNL     1       8.694  29.210  55.363  1.00  0.00    -0.272 N 
HETATM    8  H   UNL     1       9.259  30.044  55.488  1.00  0.00     0.189 HD
HETATM    9  N   UNL     1       8.359  28.817  54.110  1.00  0.00    -0.173 NA
HETATM   10  C   UNL     1       7.591  27.712  54.273  1.00  0.00     0.098 A 
HETATM   11  H   UNL     1       6.962  26.896  58.800  1.00  0.00     0.163 HD
ENDROOT
BRANCH   1  12
HETATM   12  C   UNL     1       7.417  25.145  56.588  1.00  0.00    -0.028 A 
HETATM   13  C   UNL     1       8.296  24.675  57.585  1.00  0.00     0.012 A 
HETATM   14  C   UNL     1       8.775  23.368  57.560  1.00  0.00     0.040 A 
HETATM   15  C   UNL     1       8.373  22.517  56.542  1.00  0.00     0.099 A 
HETATM   16  C   UNL     1       7.510  22.945  55.530  1.00  0.00     0.102 A 
HETATM   17  C   UNL     1       7.032  24.258  55.559  1.00  0.00     0.049 A 
BRANCH  15  18
HETATM   18  O   UNL     1       8.841  21.232  56.552  1.00  0.00    -0.358 OA
HETATM   19  H   UNL     1       9.360  21.157  57.376  1.00  0.00     0.218 HD
ENDBRANCH  15  18
BRANCH  16  20
HETATM   20  O   UNL     1       7.200  21.988  54.598  1.00  0.00    -0.349 OA
BRANCH  20  21
HETATM   21  C   UNL     1       7.858  22.072  53.336  1.00  0.00     0.171 C 
HETATM   22  C   UNL     1       8.234  20.662  52.917  1.00  0.00     0.034 C 
ENDBRANCH  20  21
ENDBRANCH  16  20
ENDBRANCH   1  12
BRANCH  10  23
HETATM   23  C   UNL     1       6.947  27.075  53.127  1.00  0.00    -0.002 A 
HETATM   24  C   UNL     1       5.899  27.745  52.470  1.00  0.00     0.050 A 
HETATM   25  C   UNL     1       5.242  27.154  51.389  1.00  0.00     0.069 A 
HETATM   26  C   UNL     1       5.639  25.886  50.962  1.00  0.00     0.037 A 
HETATM   27  C   UNL     1       6.689  25.219  51.594  1.00  0.00     0.004 A 
HETATM   28  C   UNL     1       7.345  25.814  52.674  1.00  0.00     0.014 A 
BRANCH  25  29
HETATM   29  O   UNL     1       4.208  27.703  50.680  1.00  0.00    -0.356 OA
HETATM   30  C   UNL     1       4.362  27.766  49.266  1.00  0.00     0.210 C 
ENDBRANCH  25  29
ENDBRANCH  10  23
TORSDOF 6
ENDMDL
MODEL 9
REMARK VINA RESULT:      -8.4      2.770      6.859
REMARK  6 active torsions:
REMARK  status: ('A' for Active; 'I' for Inactive)
REMARK    1  A    between atoms: C_2  and  O_3 
REMARK    2  A    between atoms: O_3  and  C_4 
REMARK    3  A    between atoms: C_5  and  O_6 
REMARK    4  A    between atoms: C_9  and  C_10 
REMARK    5  A    between atoms: C_19  and  C_20 
REMARK    6  A    between atoms: C_22  and  O_23 
ROOT
HETATM    1  C   UNL     1       6.543  27.865  54.518  1.00  0.00     0.156 A 
HETATM    2  N   UNL     1       5.801  29.053  54.986  1.00  0.00    -0.343 N 
HETATM    3  C   UNL     1       4.846  28.786  55.960  1.00  0.00     0.271 A 
HETATM    4  O   UNL     1       4.073  29.571  56.474  1.00  0.00    -0.266 OA
HETATM    5  C   UNL     1       5.002  27.404  56.199  1.00  0.00     0.128 A 
HETATM    6  C   UNL     1       5.956  26.836  55.403  1.00  0.00     0.034 A 
HETATM    7  N   UNL     1       4.525  26.458  57.020  1.00  0.00    -0.272 N 
HETATM    8  H   UNL     1       3.806  26.527  57.733  1.00  0.00     0.189 HD
HETATM    9  N   UNL     1       5.184  25.285  56.854  1.00  0.00    -0.173 NA
HETATM   10  C   UNL     1       6.085  25.516  55.868  1.00  0.00     0.098 A 
HETATM   11  H   UNL     1       5.873  29.968  54.564  1.00  0.00     0.163 HD
ENDROOT
BRANCH   1  12
HETATM   12  C   UNL     1       6.222  27.555  53.074  1.00  0.00    -0.028 A 
HETATM   13  C   UNL     1       6.313  26.252  52.544  1.00  0.00     0.012 A 
HETATM   14  C   UNL     1       5.938  25.984  51.230  1.00  0.00     0.040 A 
HETATM   15  C   UNL     1       5.461  27.017  50.437  1.00  0.00     0.099 A 
HETATM   16  C   UNL     1       5.363  28.324  50.921  1.00  0.00     0.102 A 
HETATM   17  C   UNL     1       5.741  28.588  52.240  1.00  0.00     0.049 A 
BRANCH  15  18
HETATM   18  O   UNL     1       5.079  26.725  49.157  1.00  0.00    -0.358 OA
HETATM   19  H   UNL     1       5.237  27.545  48.651  1.00  0.00     0.218 HD
ENDBRANCH  15  18
BRANCH  16  20
HETATM   20  O   UNL     1       4.868  29.233  50.020  1.00  0.00    -0.349 OA
BRANCH  20  21
HETATM   21  C   UNL     1       5.786  30.184  49.487  1.00  0.00     0.171 C 
HETATM   22  C   UNL     1       5.377  31.555  49.995  1.00  0.00     0.034 C 
ENDBRANCH  20  21
ENDBRANCH  16  20
ENDBRANCH   1  12
BRANCH  10  23
HETATM   23  C   UNL     1       7.062  24.496  55.496  1.00  0.00    -0.002 A 
HETATM   24  C   UNL     1       6.801  23.669  54.388  1.00  0.00     0.050 A 
HETATM   25  C   UNL     1       7.699  22.665  54.021  1.00  0.00     0.069 A 
HETATM   26  C   UNL     1       8.867  22.490  54.767  1.00  0.00     0.037 A 
HETATM   27  C   UNL     1       9.145  23.316  55.856  1.00  0.00     0.004 A 
HETATM   28  C   UNL     1       8.245  24.320  56.219  1.00  0.00     0.014 A 
BRANCH  25  29
HETATM   29  O   UNL     1       7.550  21.797  52.974  1.00  0.00    -0.356 OA
HETATM   30  C   UNL     1       8.291  20.584  53.035  1.00  0.00     0.210 C 
ENDBRANCH  25  29
ENDBRANCH  10  23
TORSDOF 6
ENDMDL
MODEL 10
REMARK VINA RESULT:      -8.0      2.508      5.232
REMARK  6 active torsions:
REMARK  status: ('A' for Active; 'I' for Inactive)
REMARK    1  A    between atoms: C_2  and  O_3 
REMARK    2  A    between atoms: O_3  and  C_4 
REMARK    3  A    between atoms: C_5  and  O_6 
REMARK    4  A    between atoms: C_9  and  C_10 
REMARK    5  A    between atoms: C_19  and  C_20 
REMARK    6  A    between atoms: C_22  and  O_23 
ROOT
HETATM    1  C   UNL     1       6.408  24.293  55.516  1.00  0.00     0.156 A 
HETATM    2  N   UNL     1       6.922  22.910  55.460  1.00  0.00    -0.343 N 
HETATM    3  C   UNL     1       8.163  22.734  56.060  1.00  0.00     0.271 A 
HETATM    4  O   UNL     1       8.824  21.715  56.111  1.00  0.00    -0.266 OA
HETATM    5  C   UNL     1       8.453  24.010  56.589  1.00  0.00     0.128 A 
HETATM    6  C   UNL     1       7.484  24.930  56.305  1.00  0.00     0.034 A 
HETATM    7  N   UNL     1       9.386  24.606  57.344  1.00  0.00    -0.272 N 
HETATM    8  H   UNL     1      10.245  24.223  57.728  1.00  0.00     0.189 HD
HETATM    9  N   UNL     1       9.037  25.881  57.643  1.00  0.00    -0.173 NA
HETATM   10  C   UNL     1       7.850  26.083  57.020  1.00  0.00     0.098 A 
HETATM   11  H   UNL     1       6.489  22.166  54.932  1.00  0.00     0.163 HD
ENDROOT
BRANCH   1  12
HETATM   12  C   UNL     1       6.343  24.906  54.135  1.00  0.00    -0.028 A 
HETATM   13  C   UNL     1       7.188  24.494  53.086  1.00  0.00     0.012 A 
HETATM   14  C   UNL     1       7.053  25.024  51.805  1.00  0.00     0.040 A 
HETATM   15  C   UNL     1       6.065  25.967  51.562  1.00  0.00     0.099 A 
HETATM   16  C   UNL     1       5.212  26.409  52.576  1.00  0.00     0.102 A 
HETATM   17  C   UNL     1       5.351  25.874  53.860  1.00  0.00     0.049 A 
BRANCH  15  18
HETATM   18  O   UNL     1       5.939  26.457  50.291  1.00  0.00    -0.358 OA
HETATM   19  H   UNL     1       5.982  27.428  50.388  1.00  0.00     0.218 HD
ENDBRANCH  15  18
BRANCH  16  20
HETATM   20  O   UNL     1       4.284  27.338  52.180  1.00  0.00    -0.349 OA
BRANCH  20  21
HETATM   21  C   UNL     1       3.696  28.145  53.198  1.00  0.00     0.171 C 
HETATM   22  C   UNL     1       4.599  29.347  53.411  1.00  0.00     0.034 C 
ENDBRANCH  20  21
ENDBRANCH  16  20
ENDBRANCH   1  12
BRANCH  10  23
HETATM   23  C   UNL     1       7.107  27.326  57.215  1.00  0.00    -0.002 A 
HETATM   24  C   UNL     1       7.777  28.451  57.729  1.00  0.00     0.050 A 
HETATM   25  C   UNL     1       7.092  29.647  57.955  1.00  0.00     0.069 A 
HETATM   26  C   UNL     1       5.729  29.715  57.663  1.00  0.00     0.037 A 
HETATM   27  C   UNL     1       5.058  28.612  57.136  1.00  0.00     0.004 A 
HETATM   28  C   UNL     1       5.746  27.418  56.910  1.00  0.00     0.014 A 
BRANCH  25  29
HETATM   29  O   UNL     1       7.632  30.799  58.457  1.00  0.00    -0.356 OA
HETATM   30  C   UNL     1       8.261  30.711  59.731  1.00  0.00     0.210 C 
ENDBRANCH  25  29
ENDBRANCH  10  23
TORSDOF 6
ENDMDL
