MODEL 1
REMARK VINA RESULT:     -10.3      0.000      0.000
REMARK  5 active torsions:
REMARK  status: ('A' for Active; 'I' for Inactive)
REMARK    1  A    between atoms: C_6  and  C_7 
REMARK       I    between atoms: C_7  and  N_8 
REMARK    2  A    between atoms: N_8  and  C_9 
REMARK    3  A    between atoms: C_20  and  C_21 
REMARK    4  A    between atoms: C_22  and  C_23 
REMARK    5  A    between atoms: C_26  and  O_27 
ROOT
HETATM    1  C   UNL     1       4.705  32.912  55.821  1.00  0.00     0.118 C 
HETATM    2  C   UNL     1       5.335  31.581  56.295  1.00  0.00     0.202 C 
HETATM    3  N   UNL     1       4.243  30.631  56.361  1.00  0.00    -0.332 N 
HETATM    4  C   UNL     1       4.392  29.273  56.447  1.00  0.00     0.257 C 
HETATM    5  O   UNL     1       3.444  28.494  56.392  1.00  0.00    -0.267 OA
HETATM    6  C   UNL     1       5.769  28.733  56.610  1.00  0.00     0.059 A 
HETATM    7  C   UNL     1       6.727  29.290  57.477  1.00  0.00     0.050 A 
HETATM    8  N   UNL     1       6.599  30.525  58.143  1.00  0.00    -0.324 N 
HETATM    9  C   UNL     1       5.930  31.645  57.704  1.00  0.00     0.247 C 
HETATM   10  O   UNL     1       5.876  32.637  58.431  1.00  0.00    -0.271 OA
HETATM   11  C   UNL     1       6.046  27.529  55.940  1.00  0.00     0.030 A 
HETATM   12  C   UNL     1       7.274  26.879  56.107  1.00  0.00    -0.035 A 
HETATM   13  C   UNL     1       8.183  27.392  57.036  1.00  0.00     0.013 A 
HETATM   14  C   UNL     1       7.907  28.579  57.722  1.00  0.00     0.031 A 
HETATM   15  C   UNL     1       2.965  31.298  56.392  1.00  0.00     0.129 C 
HETATM   16  C   UNL     1       3.207  32.595  55.643  1.00  0.00     0.047 C 
HETATM   17  H   UNL     1       7.178  30.706  58.955  1.00  0.00     0.169 HD
ENDROOT
BRANCH   1  18
HETATM   18  N   UNL     1       5.256  33.388  54.544  1.00  0.00    -0.350 N 
HETATM   19  C   UNL     1       5.693  34.688  54.393  1.00  0.00     0.252 C 
HETATM   20  O   UNL     1       5.683  35.509  55.302  1.00  0.00    -0.268 OA
HETATM   21  H   UNL     1       5.013  32.874  53.708  1.00  0.00     0.163 HD
BRANCH  19  22
HETATM   22  C   UNL     1       6.210  35.061  53.050  1.00  0.00     0.035 A 
HETATM   23  C   UNL     1       7.113  36.117  52.879  1.00  0.00     0.059 A 
HETATM   24  C   UNL     1       7.533  36.451  51.597  1.00  0.00     0.117 A 
HETATM   25  C   UNL     1       7.070  35.762  50.481  1.00  0.00     0.042 A 
HETATM   26  F   UNL     1       8.393  37.465  51.433  1.00  0.00    -0.206 F 
HETATM   27  C   UNL     1       6.160  34.719  50.646  1.00  0.00     0.004 A 
HETATM   28  C   UNL     1       5.726  34.373  51.928  1.00  0.00     0.017 A 
ENDBRANCH  19  22
ENDBRANCH   1  18
BRANCH  12  29
HETATM   29  C   UNL     1       7.620  25.668  55.355  1.00  0.00     0.012 C 
HETATM   30  C   UNL     1       7.177  24.452  55.714  1.00  0.00     0.012 C 
BRANCH  30  31
HETATM   31  C   UNL     1       7.452  23.217  54.970  1.00  0.00    -0.036 A 
HETATM   32  C   UNL     1       7.618  23.289  53.580  1.00  0.00     0.014 A 
HETATM   33  C   UNL     1       7.935  22.147  52.839  1.00  0.00     0.037 A 
HETATM   34  C   UNL     1       8.097  20.932  53.494  1.00  0.00     0.065 A 
HETATM   35  C   UNL     1       7.950  20.842  54.872  1.00  0.00     0.037 A 
HETATM   36  C   UNL     1       7.632  21.984  55.611  1.00  0.00     0.014 A 
BRANCH  34  37
HETATM   37  O   UNL     1       8.414  19.794  52.813  1.00  0.00    -0.361 OA
HETATM   38  H   UNL     1       7.625  19.229  52.770  1.00  0.00     0.217 HD
ENDBRANCH  34  37
ENDBRANCH  30  31
ENDBRANCH  12  29
TORSDOF 5
ENDMDL
MODEL 2
REMARK VINA RESULT:      -9.7      4.616      5.862
REMARK  5 active torsions:
REMARK  status: ('A' for Active; 'I' for Inactive)
REMARK    1  A    between atoms: C_6  and  C_7 
REMARK       I    between atoms: C_7  and  N_8 
REMARK    2  A    between atoms: N_8  and  C_9 
REMARK    3  A    between atoms: C_20  and  C_21 
REMARK    4  A    between atoms: C_22  and  C_23 
REMARK    5  A    between atoms: C_26  and  O_27 
ROOT
HETATM    1  C   UNL     1       3.709  31.340  48.055  1.00  0.00     0.118 C 
HETATM    2  C   UNL     1       3.691  30.300  49.199  1.00  0.00     0.202 C 
HETATM    3  N   UNL     1       3.499  29.015  48.557  1.00  0.00    -0.332 N 
HETATM    4  C   UNL     1       3.715  27.802  49.156  1.00  0.00     0.257 C 
HETATM    5  O   UNL     1       3.645  26.738  48.547  1.00  0.00    -0.267 OA
HETATM    6  C   UNL     1       4.052  27.791  50.605  1.00  0.00     0.059 A 
HETATM    7  C   UNL     1       3.403  28.592  51.562  1.00  0.00     0.050 A 
HETATM    8  N   UNL     1       2.508  29.641  51.272  1.00  0.00    -0.324 N 
HETATM    9  C   UNL     1       2.522  30.470  50.172  1.00  0.00     0.247 C 
HETATM   10  O   UNL     1       1.637  31.316  50.045  1.00  0.00    -0.271 OA
HETATM   11  C   UNL     1       4.987  26.826  51.016  1.00  0.00     0.030 A 
HETATM   12  C   UNL     1       5.299  26.658  52.370  1.00  0.00    -0.035 A 
HETATM   13  C   UNL     1       4.586  27.395  53.319  1.00  0.00     0.013 A 
HETATM   14  C   UNL     1       3.639  28.344  52.919  1.00  0.00     0.031 A 
HETATM   15  C   UNL     1       2.983  29.165  47.219  1.00  0.00     0.129 C 
HETATM   16  C   UNL     1       3.512  30.513  46.769  1.00  0.00     0.047 C 
HETATM   17  H   UNL     1       1.874  29.958  51.995  1.00  0.00     0.169 HD
ENDROOT
BRANCH   1  18
HETATM   18  N   UNL     1       4.977  32.080  47.969  1.00  0.00    -0.350 N 
HETATM   19  C   UNL     1       5.021  33.448  48.142  1.00  0.00     0.252 C 
HETATM   20  O   UNL     1       4.033  34.123  48.407  1.00  0.00    -0.268 OA
HETATM   21  H   UNL     1       5.740  31.645  47.467  1.00  0.00     0.163 HD
BRANCH  19  22
HETATM   22  C   UNL     1       6.356  34.090  48.009  1.00  0.00     0.035 A 
HETATM   23  C   UNL     1       6.833  34.993  48.967  1.00  0.00     0.059 A 
HETATM   24  C   UNL     1       8.070  35.596  48.774  1.00  0.00     0.117 A 
HETATM   25  C   UNL     1       8.839  35.325  47.647  1.00  0.00     0.042 A 
HETATM   26  F   UNL     1       8.525  36.464  49.687  1.00  0.00    -0.206 F 
HETATM   27  C   UNL     1       8.361  34.438  46.685  1.00  0.00     0.004 A 
HETATM   28  C   UNL     1       7.118  33.825  46.863  1.00  0.00     0.017 A 
ENDBRANCH  19  22
ENDBRANCH   1  18
BRANCH  12  29
HETATM   29  C   UNL     1       6.332  25.717  52.818  1.00  0.00     0.012 C 
HETATM   30  C   UNL     1       6.060  24.702  53.654  1.00  0.00     0.012 C 
BRANCH  30  31
HETATM   31  C   UNL     1       7.044  23.704  54.094  1.00  0.00    -0.036 A 
HETATM   32  C   UNL     1       7.236  23.506  55.468  1.00  0.00     0.014 A 
HETATM   33  C   UNL     1       8.122  22.529  55.931  1.00  0.00     0.037 A 
HETATM   34  C   UNL     1       8.808  21.741  55.015  1.00  0.00     0.065 A 
HETATM   35  C   UNL     1       8.622  21.914  53.649  1.00  0.00     0.037 A 
HETATM   36  C   UNL     1       7.737  22.891  53.188  1.00  0.00     0.014 A 
BRANCH  34  37
HETATM   37  O   UNL     1       9.677  20.772  55.421  1.00  0.00    -0.361 OA
HETATM   38  H   UNL     1      10.568  21.005  55.113  1.00  0.00     0.217 HD
ENDBRANCH  34  37
ENDBRANCH  30  31
ENDBRANCH  12  29
TORSDOF 5
ENDMDL
MODEL 3
REMARK VINA RESULT:      -9.6      7.057      9.051
REMARK  5 active torsions:
REMARK  status: ('A' for Active; 'I' for Inactive)
REMARK    1  A    between atoms: C_6  and  C_7 
REMARK       I    between atoms: C_7  and  N_8 
REMARK    2  A    between atoms: N_8  and  C_9 
REMARK    3  A    between atoms: C_20  and  C_21 
REMARK    4  A    between atoms: C_22  and  C_23 
REMARK    5  A    between atoms: C_26  and  O_27 
ROOT
HETATM    1  C   UNL     1       5.011  36.236  65.207  1.00  0.00     0.118 C 
HETATM    2  C   UNL     1       5.673  34.978  64.600  1.00  0.00     0.202 C 
HETATM    3  N   UNL     1       4.587  34.190  64.050  1.00  0.00    -0.332 N 
HETATM    4  C   UNL     1       4.742  33.154  63.169  1.00  0.00     0.257 C 
HETATM    5  O   UNL     1       3.792  32.581  62.642  1.00  0.00    -0.267 OA
HETATM    6  C   UNL     1       6.126  32.718  62.842  1.00  0.00     0.059 A 
HETATM    7  C   UNL     1       7.145  32.574  63.802  1.00  0.00     0.050 A 
HETATM    8  N   UNL     1       7.066  33.004  65.141  1.00  0.00    -0.324 N 
HETATM    9  C   UNL     1       6.367  34.085  65.631  1.00  0.00     0.247 C 
HETATM   10  O   UNL     1       6.367  34.302  66.842  1.00  0.00    -0.271 OA
HETATM   11  C   UNL     1       6.354  32.320  61.513  1.00  0.00     0.030 A 
HETATM   12  C   UNL     1       7.590  31.795  61.122  1.00  0.00    -0.035 A 
HETATM   13  C   UNL     1       8.565  31.573  62.098  1.00  0.00     0.013 A 
HETATM   14  C   UNL     1       8.340  31.948  63.426  1.00  0.00     0.031 A 
HETATM   15  C   UNL     1       3.316  34.589  64.600  1.00  0.00     0.129 C 
HETATM   16  C   UNL     1       3.504  36.055  64.939  1.00  0.00     0.047 C 
HETATM   17  H   UNL     1       7.702  32.606  65.821  1.00  0.00     0.169 HD
ENDROOT
BRANCH   1  18
HETATM   18  N   UNL     1       5.469  37.486  64.583  1.00  0.00    -0.350 N 
HETATM   19  C   UNL     1       5.894  37.517  63.271  1.00  0.00     0.252 C 
HETATM   20  O   UNL     1       5.889  36.534  62.540  1.00  0.00    -0.268 OA
HETATM   21  H   UNL     1       5.778  38.230  65.195  1.00  0.00     0.163 HD
BRANCH  19  22
HETATM   22  C   UNL     1       6.356  38.833  62.755  1.00  0.00     0.035 A 
HETATM   23  C   UNL     1       7.010  39.755  63.581  1.00  0.00     0.059 A 
HETATM   24  C   UNL     1       7.384  40.988  63.059  1.00  0.00     0.117 A 
HETATM   25  C   UNL     1       7.117  41.325  61.737  1.00  0.00     0.042 A 
HETATM   26  F   UNL     1       8.006  41.872  63.851  1.00  0.00    -0.206 F 
HETATM   27  C   UNL     1       6.453  40.415  60.916  1.00  0.00     0.004 A 
HETATM   28  C   UNL     1       6.068  39.173  61.425  1.00  0.00     0.017 A 
ENDBRANCH  19  22
ENDBRANCH   1  18
BRANCH  12  29
HETATM   29  C   UNL     1       7.881  31.452  59.725  1.00  0.00     0.012 C 
HETATM   30  C   UNL     1       8.672  30.419  59.392  1.00  0.00     0.012 C 
BRANCH  30  31
HETATM   31  C   UNL     1       8.955  30.002  58.013  1.00  0.00    -0.036 A 
HETATM   32  C   UNL     1       7.901  29.526  57.222  1.00  0.00     0.014 A 
HETATM   33  C   UNL     1       8.114  29.169  55.887  1.00  0.00     0.037 A 
HETATM   34  C   UNL     1       9.385  29.302  55.341  1.00  0.00     0.065 A 
HETATM   35  C   UNL     1      10.441  29.784  56.105  1.00  0.00     0.037 A 
HETATM   36  C   UNL     1      10.226  30.138  57.439  1.00  0.00     0.014 A 
BRANCH  34  37
HETATM   37  O   UNL     1       9.638  28.973  54.042  1.00  0.00    -0.361 OA
HETATM   38  H   UNL     1       9.164  28.152  53.833  1.00  0.00     0.217 HD
ENDBRANCH  34  37
ENDBRANCH  30  31
ENDBRANCH  12  29
TORSDOF 5
ENDMDL
MODEL 4
REMARK VINA RESULT:      -9.2      6.056      7.778
REMARK  5 active torsions:
REMARK  status: ('A' for Active; 'I' for Inactive)
REMARK    1  A    between atoms: C_6  and  C_7 
REMARK       I    between atoms: C_7  and  N_8 
REMARK    2  A    between atoms: N_8  and  C_9 
REMARK    3  A    between atoms: C_20  and  C_21 
REMARK    4  A    between atoms: C_22  and  C_23 
REMARK    5  A    between atoms: C_26  and  O_27 
ROOT
HETATM    1  C   UNL     1       1.846  31.935  49.617  1.00  0.00     0.118 C 
HETATM    2  C   UNL     1       2.649  30.620  49.478  1.00  0.00     0.202 C 
HETATM    3  N   UNL     1       4.000  30.940  49.892  1.00  0.00    -0.332 N 
HETATM    4  C   UNL     1       4.962  30.016  50.204  1.00  0.00     0.257 C 
HETATM    5  O   UNL     1       6.061  30.327  50.654  1.00  0.00    -0.267 OA
HETATM    6  C   UNL     1       4.643  28.579  49.986  1.00  0.00     0.059 A 
HETATM    7  C   UNL     1       3.985  28.092  48.842  1.00  0.00     0.050 A 
HETATM    8  N   UNL     1       3.365  28.888  47.860  1.00  0.00    -0.324 N 
HETATM    9  C   UNL     1       2.754  30.110  48.039  1.00  0.00     0.247 C 
HETATM   10  O   UNL     1       2.294  30.701  47.062  1.00  0.00    -0.271 OA
HETATM   11  C   UNL     1       5.154  27.680  50.938  1.00  0.00     0.030 A 
HETATM   12  C   UNL     1       5.003  26.299  50.776  1.00  0.00    -0.035 A 
HETATM   13  C   UNL     1       4.428  25.821  49.596  1.00  0.00     0.013 A 
HETATM   14  C   UNL     1       3.934  26.708  48.634  1.00  0.00     0.031 A 
HETATM   15  C   UNL     1       4.235  32.362  49.871  1.00  0.00     0.129 C 
HETATM   16  C   UNL     1       2.869  32.966  50.133  1.00  0.00     0.047 C 
HETATM   17  H   UNL     1       3.184  28.488  46.947  1.00  0.00     0.169 HD
ENDROOT
BRANCH   1  18
HETATM   18  N   UNL     1       0.735  31.832  50.575  1.00  0.00    -0.350 N 
HETATM   19  C   UNL     1      -0.456  32.496  50.363  1.00  0.00     0.252 C 
HETATM   20  O   UNL     1      -0.678  33.176  49.369  1.00  0.00    -0.268 OA
HETATM   21  H   UNL     1       0.956  31.554  51.522  1.00  0.00     0.163 HD
BRANCH  19  22
HETATM   22  C   UNL     1      -1.499  32.335  51.411  1.00  0.00     0.035 A 
HETATM   23  C   UNL     1      -2.531  31.399  51.280  1.00  0.00     0.059 A 
HETATM   24  C   UNL     1      -3.504  31.318  52.269  1.00  0.00     0.117 A 
HETATM   25  C   UNL     1      -3.476  32.151  53.382  1.00  0.00     0.042 A 
HETATM   26  F   UNL     1      -4.495  30.425  52.141  1.00  0.00    -0.206 F 
HETATM   27  C   UNL     1      -2.458  33.095  53.509  1.00  0.00     0.004 A 
HETATM   28  C   UNL     1      -1.474  33.191  52.522  1.00  0.00     0.017 A 
ENDBRANCH  19  22
ENDBRANCH   1  18
BRANCH  12  29
HETATM   29  C   UNL     1       5.452  25.344  51.795  1.00  0.00     0.012 C 
HETATM   30  C   UNL     1       6.753  25.129  52.050  1.00  0.00     0.012 C 
BRANCH  30  31
HETATM   31  C   UNL     1       7.255  24.223  53.091  1.00  0.00    -0.036 A 
HETATM   32  C   UNL     1       6.877  24.449  54.422  1.00  0.00     0.014 A 
HETATM   33  C   UNL     1       7.287  23.581  55.438  1.00  0.00     0.037 A 
HETATM   34  C   UNL     1       8.067  22.476  55.117  1.00  0.00     0.065 A 
HETATM   35  C   UNL     1       8.441  22.227  53.802  1.00  0.00     0.037 A 
HETATM   36  C   UNL     1       8.032  23.097  52.789  1.00  0.00     0.014 A 
BRANCH  34  37
HETATM   37  O   UNL     1       8.484  21.599  56.074  1.00  0.00    -0.361 OA
HETATM   38  H   UNL     1       7.951  21.736  56.874  1.00  0.00     0.217 HD
ENDBRANCH  34  37
ENDBRANCH  30  31
ENDBRANCH  12  29
TORSDOF 5
ENDMDL
MODEL 5
REMARK VINA RESULT:      -9.0      3.197      4.170
REMARK  5 active torsions:
REMARK  status: ('A' for Active; 'I' for Inactive)
REMARK    1  A    between atoms: C_6  and  C_7 
REMARK       I    between atoms: C_7  and  N_8 
REMARK    2  A    between atoms: N_8  and  C_9 
REMARK    3  A    between atoms: C_20  and  C_21 
REMARK    4  A    between atoms: C_22  and  C_23 
REMARK    5  A    between atoms: C_26  and  O_27 
ROOT
HETATM    1  C   UNL     1       3.800  32.912  50.942  1.00  0.00     0.118 C 
HETATM    2  C   UNL     1       4.044  31.738  51.919  1.00  0.00     0.202 C 
HETATM    3  N   UNL     1       3.050  30.738  51.586  1.00  0.00    -0.332 N 
HETATM    4  C   UNL     1       3.088  29.432  51.996  1.00  0.00     0.257 C 
HETATM    5  O   UNL     1       2.285  28.588  51.604  1.00  0.00    -0.267 OA
HETATM    6  C   UNL     1       4.155  29.032  52.951  1.00  0.00     0.059 A 
HETATM    7  C   UNL     1       4.533  29.805  54.065  1.00  0.00     0.050 A 
HETATM    8  N   UNL     1       4.115  31.126  54.317  1.00  0.00    -0.324 N 
HETATM    9  C   UNL     1       3.812  32.097  53.388  1.00  0.00     0.247 C 
HETATM   10  O   UNL     1       3.417  33.197  53.776  1.00  0.00    -0.271 OA
HETATM   11  C   UNL     1       4.704  27.751  52.768  1.00  0.00     0.030 A 
HETATM   12  C   UNL     1       5.639  27.234  53.671  1.00  0.00    -0.035 A 
HETATM   13  C   UNL     1       5.942  27.970  54.820  1.00  0.00     0.013 A 
HETATM   14  C   UNL     1       5.385  29.237  55.020  1.00  0.00     0.031 A 
HETATM   15  C   UNL     1       1.969  31.304  50.819  1.00  0.00     0.129 C 
HETATM   16  C   UNL     1       2.609  32.459  50.074  1.00  0.00     0.047 C 
HETATM   17  H   UNL     1       4.186  31.492  55.259  1.00  0.00     0.169 HD
ENDROOT
BRANCH   1  18
HETATM   18  N   UNL     1       4.955  33.190  50.076  1.00  0.00    -0.350 N 
HETATM   19  C   UNL     1       5.204  34.462  49.601  1.00  0.00     0.252 C 
HETATM   20  O   UNL     1       4.514  35.433  49.889  1.00  0.00    -0.268 OA
HETATM   21  H   UNL     1       5.361  32.413  49.573  1.00  0.00     0.163 HD
BRANCH  19  22
HETATM   22  C   UNL     1       6.388  34.618  48.715  1.00  0.00     0.035 A 
HETATM   23  C   UNL     1       6.509  33.898  47.521  1.00  0.00     0.059 A 
HETATM   24  C   UNL     1       7.655  34.050  46.749  1.00  0.00     0.117 A 
HETATM   25  C   UNL     1       8.685  34.898  47.143  1.00  0.00     0.042 A 
HETATM   26  F   UNL     1       7.774  33.357  45.609  1.00  0.00    -0.206 F 
HETATM   27  C   UNL     1       8.574  35.606  48.339  1.00  0.00     0.004 A 
HETATM   28  C   UNL     1       7.430  35.462  49.127  1.00  0.00     0.017 A 
ENDBRANCH  19  22
ENDBRANCH   1  18
BRANCH  12  29
HETATM   29  C   UNL     1       6.290  25.936  53.457  1.00  0.00     0.012 C 
HETATM   30  C   UNL     1       6.527  25.080  54.465  1.00  0.00     0.012 C 
BRANCH  30  31
HETATM   31  C   UNL     1       7.128  23.751  54.299  1.00  0.00    -0.036 A 
HETATM   32  C   UNL     1       7.316  22.949  55.433  1.00  0.00     0.014 A 
HETATM   33  C   UNL     1       7.834  21.656  55.316  1.00  0.00     0.037 A 
HETATM   34  C   UNL     1       8.154  21.162  54.056  1.00  0.00     0.065 A 
HETATM   35  C   UNL     1       7.963  21.936  52.919  1.00  0.00     0.037 A 
HETATM   36  C   UNL     1       7.446  23.228  53.039  1.00  0.00     0.014 A 
BRANCH  34  37
HETATM   37  O   UNL     1       8.655  19.905  53.893  1.00  0.00    -0.361 OA
HETATM   38  H   UNL     1       9.611  19.927  54.063  1.00  0.00     0.217 HD
ENDBRANCH  34  37
ENDBRANCH  30  31
ENDBRANCH  12  29
TORSDOF 5
ENDMDL
MODEL 6
REMARK VINA RESULT:      -8.7      6.331     11.090
REMARK  5 active torsions:
REMARK  status: ('A' for Active; 'I' for Inactive)
REMARK    1  A    between atoms: C_6  and  C_7 
REMARK       I    between atoms: C_7  and  N_8 
REMARK    2  A    between atoms: N_8  and  C_9 
REMARK    3  A    between atoms: C_20  and  C_21 
REMARK    4  A    between atoms: C_22  and  C_23 
REMARK    5  A    between atoms: C_26  and  O_27 
ROOT
HETATM    1  C   UNL     1       4.239  34.081  58.906  1.00  0.00     0.118 C 
HETATM    2  C   UNL     1       4.635  34.486  57.468  1.00  0.00     0.202 C 
HETATM    3  N   UNL     1       4.311  35.894  57.354  1.00  0.00    -0.332 N 
HETATM    4  C   UNL     1       4.763  36.723  56.362  1.00  0.00     0.257 C 
HETATM    5  O   UNL     1       4.555  37.933  56.360  1.00  0.00    -0.267 OA
HETATM    6  C   UNL     1       5.543  36.117  55.250  1.00  0.00     0.059 A 
HETATM    7  C   UNL     1       5.194  34.906  54.623  1.00  0.00     0.050 A 
HETATM    8  N   UNL     1       4.205  34.012  55.076  1.00  0.00    -0.324 N 
HETATM    9  C   UNL     1       3.829  33.774  56.379  1.00  0.00     0.247 C 
HETATM   10  O   UNL     1       2.910  32.987  56.605  1.00  0.00    -0.271 OA
HETATM   11  C   UNL     1       6.605  36.887  54.746  1.00  0.00     0.030 A 
HETATM   12  C   UNL     1       7.339  36.459  53.634  1.00  0.00    -0.035 A 
HETATM   13  C   UNL     1       6.930  35.303  52.964  1.00  0.00     0.013 A 
HETATM   14  C   UNL     1       5.861  34.541  53.447  1.00  0.00     0.031 A 
HETATM   15  C   UNL     1       3.390  36.308  58.383  1.00  0.00     0.129 C 
HETATM   16  C   UNL     1       3.684  35.372  59.539  1.00  0.00     0.047 C 
HETATM   17  H   UNL     1       3.819  33.338  54.426  1.00  0.00     0.169 HD
ENDROOT
BRANCH   1  18
HETATM   18  N   UNL     1       5.376  33.599  59.703  1.00  0.00    -0.350 N 
HETATM   19  C   UNL     1       5.845  32.307  59.573  1.00  0.00     0.252 C 
HETATM   20  O   UNL     1       5.378  31.500  58.779  1.00  0.00    -0.268 OA
HETATM   21  H   UNL     1       5.593  34.093  60.558  1.00  0.00     0.163 HD
BRANCH  19  22
HETATM   22  C   UNL     1       6.986  31.926  60.447  1.00  0.00     0.035 A 
HETATM   23  C   UNL     1       7.166  32.502  61.710  1.00  0.00     0.059 A 
HETATM   24  C   UNL     1       8.272  32.141  62.471  1.00  0.00     0.117 A 
HETATM   25  C   UNL     1       9.205  31.224  61.999  1.00  0.00     0.042 A 
HETATM   26  F   UNL     1       8.447  32.696  63.677  1.00  0.00    -0.206 F 
HETATM   27  C   UNL     1       9.037  30.659  60.736  1.00  0.00     0.004 A 
HETATM   28  C   UNL     1       7.933  31.013  59.959  1.00  0.00     0.017 A 
ENDBRANCH  19  22
ENDBRANCH   1  18
BRANCH  12  29
HETATM   29  C   UNL     1       8.505  37.201  53.140  1.00  0.00     0.012 C 
HETATM   30  C   UNL     1       9.386  37.783  53.970  1.00  0.00     0.012 C 
BRANCH  30  31
HETATM   31  C   UNL     1      10.594  38.493  53.531  1.00  0.00    -0.036 A 
HETATM   32  C   UNL     1      11.459  37.859  52.629  1.00  0.00     0.014 A 
HETATM   33  C   UNL     1      12.591  38.519  52.142  1.00  0.00     0.037 A 
HETATM   34  C   UNL     1      12.850  39.822  52.552  1.00  0.00     0.065 A 
HETATM   35  C   UNL     1      11.998  40.472  53.436  1.00  0.00     0.037 A 
HETATM   36  C   UNL     1      10.868  39.810  53.922  1.00  0.00     0.014 A 
BRANCH  34  37
HETATM   37  O   UNL     1      13.938  40.506  52.098  1.00  0.00    -0.361 OA
HETATM   38  H   UNL     1      13.772  40.781  51.182  1.00  0.00     0.217 HD
ENDBRANCH  34  37
ENDBRANCH  30  31
ENDBRANCH  12  29
TORSDOF 5
ENDMDL
MODEL 7
REMARK VINA RESULT:      -8.7      5.004     11.152
REMARK  5 active torsions:
REMARK  status: ('A' for Active; 'I' for Inactive)
REMARK    1  A    between atoms: C_6  and  C_7 
REMARK       I    between atoms: C_7  and  N_8 
REMARK    2  A    between atoms: N_8  and  C_9 
REMARK    3  A    between atoms: C_20  and  C_21 
REMARK    4  A    between atoms: C_22  and  C_23 
REMARK    5  A    between atoms: C_26  and  O_27 
ROOT
HETATM    1  C   UNL     1       3.300  28.571  49.982  1.00  0.00     0.118 C 
HETATM    2  C   UNL     1       3.898  29.949  49.613  1.00  0.00     0.202 C 
HETATM    3  N   UNL     1       2.868  30.920  49.928  1.00  0.00    -0.332 N 
HETATM    4  C   UNL     1       3.073  32.269  50.035  1.00  0.00     0.257 C 
HETATM    5  O   UNL     1       2.199  33.047  50.409  1.00  0.00    -0.267 OA
HETATM    6  C   UNL     1       4.418  32.800  49.685  1.00  0.00     0.059 A 
HETATM    7  C   UNL     1       5.154  32.378  48.562  1.00  0.00     0.050 A 
HETATM    8  N   UNL     1       4.829  31.278  47.744  1.00  0.00    -0.324 N 
HETATM    9  C   UNL     1       4.198  30.114  48.122  1.00  0.00     0.247 C 
HETATM   10  O   UNL     1       3.947  29.262  47.269  1.00  0.00    -0.271 OA
HETATM   11  C   UNL     1       4.889  33.865  50.471  1.00  0.00     0.030 A 
HETATM   12  C   UNL     1       6.094  34.507  50.166  1.00  0.00    -0.035 A 
HETATM   13  C   UNL     1       6.772  34.142  49.000  1.00  0.00     0.013 A 
HETATM   14  C   UNL     1       6.300  33.096  48.200  1.00  0.00     0.031 A 
HETATM   15  C   UNL     1       1.575  30.296  50.049  1.00  0.00     0.129 C 
HETATM   16  C   UNL     1       1.887  28.885  50.511  1.00  0.00     0.047 C 
HETATM   17  H   UNL     1       5.225  31.227  46.813  1.00  0.00     0.169 HD
ENDROOT
BRANCH   1  18
HETATM   18  N   UNL     1       4.066  27.872  51.025  1.00  0.00    -0.350 N 
HETATM   19  C   UNL     1       4.851  26.778  50.725  1.00  0.00     0.252 C 
HETATM   20  O   UNL     1       4.989  26.342  49.588  1.00  0.00    -0.268 OA
HETATM   21  H   UNL     1       3.762  27.984  51.984  1.00  0.00     0.163 HD
BRANCH  19  22
HETATM   22  C   UNL     1       5.561  26.139  51.865  1.00  0.00     0.035 A 
HETATM   23  C   UNL     1       6.720  25.379  51.673  1.00  0.00     0.059 A 
HETATM   24  C   UNL     1       7.321  24.769  52.768  1.00  0.00     0.117 A 
HETATM   25  C   UNL     1       6.791  24.895  54.047  1.00  0.00     0.042 A 
HETATM   26  F   UNL     1       8.428  24.037  52.583  1.00  0.00    -0.206 F 
HETATM   27  C   UNL     1       5.629  25.639  54.240  1.00  0.00     0.004 A 
HETATM   28  C   UNL     1       5.011  26.256  53.150  1.00  0.00     0.017 A 
ENDBRANCH  19  22
ENDBRANCH   1  18
BRANCH  12  29
HETATM   29  C   UNL     1       6.649  35.564  51.019  1.00  0.00     0.012 C 
HETATM   30  C   UNL     1       6.873  35.381  52.330  1.00  0.00     0.012 C 
BRANCH  30  31
HETATM   31  C   UNL     1       7.472  36.386  53.217  1.00  0.00    -0.036 A 
HETATM   32  C   UNL     1       6.781  36.760  54.378  1.00  0.00     0.014 A 
HETATM   33  C   UNL     1       7.338  37.672  55.278  1.00  0.00     0.037 A 
HETATM   34  C   UNL     1       8.596  38.203  55.020  1.00  0.00     0.065 A 
HETATM   35  C   UNL     1       9.304  37.835  53.882  1.00  0.00     0.037 A 
HETATM   36  C   UNL     1       8.744  36.924  52.983  1.00  0.00     0.014 A 
BRANCH  34  37
HETATM   37  O   UNL     1       9.182  39.090  55.874  1.00  0.00    -0.361 OA
HETATM   38  H   UNL     1      10.095  39.243  55.583  1.00  0.00     0.217 HD
ENDBRANCH  34  37
ENDBRANCH  30  31
ENDBRANCH  12  29
TORSDOF 5
ENDMDL
MODEL 8
REMARK VINA RESULT:      -8.7      5.020     10.172
REMARK  5 active torsions:
REMARK  status: ('A' for Active; 'I' for Inactive)
REMARK    1  A    between atoms: C_6  and  C_7 
REMARK       I    between atoms: C_7  and  N_8 
REMARK    2  A    between atoms: N_8  and  C_9 
REMARK    3  A    between atoms: C_20  and  C_21 
REMARK    4  A    between atoms: C_22  and  C_23 
REMARK    5  A    between atoms: C_26  and  O_27 
ROOT
HETATM    1  C   UNL     1       7.054  25.089  57.042  1.00  0.00     0.118 C 
HETATM    2  C   UNL     1       6.339  26.145  56.168  1.00  0.00     0.202 C 
HETATM    3  N   UNL     1       7.231  27.286  56.122  1.00  0.00    -0.332 N 
HETATM    4  C   UNL     1       7.132  28.320  55.230  1.00  0.00     0.257 C 
HETATM    5  O   UNL     1       7.970  29.215  55.153  1.00  0.00    -0.267 OA
HETATM    6  C   UNL     1       5.956  28.344  54.319  1.00  0.00     0.059 A 
HETATM    7  C   UNL     1       4.643  28.056  54.734  1.00  0.00     0.050 A 
HETATM    8  N   UNL     1       4.286  27.517  55.986  1.00  0.00    -0.324 N 
HETATM    9  C   UNL     1       5.025  26.654  56.765  1.00  0.00     0.247 C 
HETATM   10  O   UNL     1       4.585  26.309  57.861  1.00  0.00    -0.271 OA
HETATM   11  C   UNL     1       6.193  28.805  53.013  1.00  0.00     0.030 A 
HETATM   12  C   UNL     1       5.141  28.967  52.105  1.00  0.00    -0.035 A 
HETATM   13  C   UNL     1       3.832  28.763  52.551  1.00  0.00     0.013 A 
HETATM   14  C   UNL     1       3.586  28.324  53.856  1.00  0.00     0.031 A 
HETATM   15  C   UNL     1       8.205  27.236  57.183  1.00  0.00     0.129 C 
HETATM   16  C   UNL     1       8.383  25.754  57.452  1.00  0.00     0.047 C 
HETATM   17  H   UNL     1       3.331  27.619  56.308  1.00  0.00     0.169 HD
ENDROOT
BRANCH   1  18
HETATM   18  N   UNL     1       7.339  23.840  56.319  1.00  0.00    -0.350 N 
HETATM   19  C   UNL     1       7.759  23.853  55.005  1.00  0.00     0.252 C 
HETATM   20  O   UNL     1       7.951  24.885  54.372  1.00  0.00    -0.268 OA
HETATM   21  H   UNL     1       6.919  22.990  56.670  1.00  0.00     0.163 HD
BRANCH  19  22
HETATM   22  C   UNL     1       7.993  22.529  54.371  1.00  0.00     0.035 A 
HETATM   23  C   UNL     1       8.340  21.405  55.130  1.00  0.00     0.059 A 
HETATM   24  C   UNL     1       8.589  20.200  54.484  1.00  0.00     0.117 A 
HETATM   25  C   UNL     1       8.506  20.090  53.100  1.00  0.00     0.042 A 
HETATM   26  F   UNL     1       8.926  19.125  55.210  1.00  0.00    -0.206 F 
HETATM   27  C   UNL     1       8.176  21.210  52.340  1.00  0.00     0.004 A 
HETATM   28  C   UNL     1       7.925  22.430  52.974  1.00  0.00     0.017 A 
ENDBRANCH  19  22
ENDBRANCH   1  18
BRANCH  12  29
HETATM   29  C   UNL     1       5.371  29.365  50.712  1.00  0.00     0.012 C 
HETATM   30  C   UNL     1       4.660  30.338  50.119  1.00  0.00     0.012 C 
BRANCH  30  31
HETATM   31  C   UNL     1       4.883  30.809  48.746  1.00  0.00    -0.036 A 
HETATM   32  C   UNL     1       4.475  29.996  47.680  1.00  0.00     0.014 A 
HETATM   33  C   UNL     1       4.618  30.428  46.358  1.00  0.00     0.037 A 
HETATM   34  C   UNL     1       5.160  31.682  46.105  1.00  0.00     0.065 A 
HETATM   35  C   UNL     1       5.558  32.508  47.149  1.00  0.00     0.037 A 
HETATM   36  C   UNL     1       5.416  32.074  48.469  1.00  0.00     0.014 A 
BRANCH  34  37
HETATM   37  O   UNL     1       5.311  32.148  44.833  1.00  0.00    -0.361 OA
HETATM   38  H   UNL     1       4.502  31.953  44.333  1.00  0.00     0.217 HD
ENDBRANCH  34  37
ENDBRANCH  30  31
ENDBRANCH  12  29
TORSDOF 5
ENDMDL
MODEL 9
REMARK VINA RESULT:      -8.2      7.354     11.705
REMARK  5 active torsions:
REMARK  status: ('A' for Active; 'I' for Inactive)
REMARK    1  A    between atoms: C_6  and  C_7 
REMARK       I    between atoms: C_7  and  N_8 
REMARK    2  A    between atoms: N_8  and  C_9 
REMARK    3  A    between atoms: C_20  and  C_21 
REMARK    4  A    between atoms: C_22  and  C_23 
REMARK    5  A    between atoms: C_26  and  O_27 
ROOT
HETATM    1  C   UNL     1       4.644  32.039  58.864  1.00  0.00     0.118 C 
HETATM    2  C   UNL     1       4.789  32.942  60.111  1.00  0.00     0.202 C 
HETATM    3  N   UNL     1       3.731  32.536  61.014  1.00  0.00    -0.332 N 
HETATM    4  C   UNL     1       3.670  32.862  62.343  1.00  0.00     0.257 C 
HETATM    5  O   UNL     1       2.815  32.410  63.100  1.00  0.00    -0.267 OA
HETATM    6  C   UNL     1       4.692  33.802  62.877  1.00  0.00     0.059 A 
HETATM    7  C   UNL     1       5.107  34.966  62.205  1.00  0.00     0.050 A 
HETATM    8  N   UNL     1       4.780  35.297  60.875  1.00  0.00    -0.324 N 
HETATM    9  C   UNL     1       4.561  34.429  59.828  1.00  0.00     0.247 C 
HETATM   10  O   UNL     1       4.240  34.881  58.730  1.00  0.00    -0.271 OA
HETATM   11  C   UNL     1       5.151  33.544  64.180  1.00  0.00     0.030 A 
HETATM   12  C   UNL     1       6.033  34.422  64.819  1.00  0.00    -0.035 A 
HETATM   13  C   UNL     1       6.370  35.618  64.180  1.00  0.00     0.013 A 
HETATM   14  C   UNL     1       5.902  35.892  62.891  1.00  0.00     0.031 A 
HETATM   15  C   UNL     1       2.705  31.795  60.325  1.00  0.00     0.129 C 
HETATM   16  C   UNL     1       3.437  31.132  59.175  1.00  0.00     0.047 C 
HETATM   17  H   UNL     1       4.863  36.261  60.575  1.00  0.00     0.169 HD
ENDROOT
BRANCH   1  18
HETATM   18  N   UNL     1       5.829  31.205  58.616  1.00  0.00    -0.350 N 
HETATM   19  C   UNL     1       6.087  30.682  57.365  1.00  0.00     0.252 C 
HETATM   20  O   UNL     1       5.381  30.898  56.388  1.00  0.00    -0.268 OA
HETATM   21  H   UNL     1       6.259  30.753  59.412  1.00  0.00     0.163 HD
BRANCH  19  22
HETATM   22  C   UNL     1       7.303  29.834  57.240  1.00  0.00     0.035 A 
HETATM   23  C   UNL     1       8.569  30.312  57.594  1.00  0.00     0.059 A 
HETATM   24  C   UNL     1       9.678  29.493  57.419  1.00  0.00     0.117 A 
HETATM   25  C   UNL     1       9.555  28.211  56.894  1.00  0.00     0.042 A 
HETATM   26  F   UNL     1      10.892  29.952  57.753  1.00  0.00    -0.206 F 
HETATM   27  C   UNL     1       8.297  27.737  56.526  1.00  0.00     0.004 A 
HETATM   28  C   UNL     1       7.173  28.549  56.694  1.00  0.00     0.017 A 
ENDBRANCH  19  22
ENDBRANCH   1  18
BRANCH  12  29
HETATM   29  C   UNL     1       6.593  34.133  66.144  1.00  0.00     0.012 C 
HETATM   30  C   UNL     1       6.111  34.699  67.263  1.00  0.00     0.012 C 
BRANCH  30  31
HETATM   31  C   UNL     1       6.600  34.408  68.616  1.00  0.00    -0.036 A 
HETATM   32  C   UNL     1       5.811  33.618  69.464  1.00  0.00     0.014 A 
HETATM   33  C   UNL     1       6.262  33.270  70.740  1.00  0.00     0.037 A 
HETATM   34  C   UNL     1       7.512  33.706  71.164  1.00  0.00     0.065 A 
HETATM   35  C   UNL     1       8.314  34.480  70.335  1.00  0.00     0.037 A 
HETATM   36  C   UNL     1       7.861  34.827  69.060  1.00  0.00     0.014 A 
BRANCH  34  37
HETATM   37  O   UNL     1       7.995  33.386  72.398  1.00  0.00    -0.361 OA
HETATM   38  H   UNL     1       8.146  32.427  72.432  1.00  0.00     0.217 HD
ENDBRANCH  34  37
ENDBRANCH  30  31
ENDBRANCH  12  29
TORSDOF 5
ENDMDL
MODEL 10
REMARK VINA RESULT:      -8.2      7.935     11.774
REMARK  5 active torsions:
REMARK  status: ('A' for Active; 'I' for Inactive)
REMARK    1  A    between atoms: C_6  and  C_7 
REMARK       I    between atoms: C_7  and  N_8 
REMARK    2  A    between atoms: N_8  and  C_9 
REMARK    3  A    between atoms: C_20  and  C_21 
REMARK    4  A    between atoms: C_22  and  C_23 
REMARK    5  A    between atoms: C_26  and  O_27 
ROOT
HETATM    1  C   UNL     1       3.489  35.525  60.038  1.00  0.00     0.118 C 
HETATM    2  C   UNL     1       4.059  35.890  58.647  1.00  0.00     0.202 C 
HETATM    3  N   UNL     1       3.748  37.292  58.452  1.00  0.00    -0.332 N 
HETATM    4  C   UNL     1       4.318  38.093  57.499  1.00  0.00     0.257 C 
HETATM    5  O   UNL     1       4.109  39.302  57.434  1.00  0.00    -0.267 OA
HETATM    6  C   UNL     1       5.230  37.459  56.510  1.00  0.00     0.059 A 
HETATM    7  C   UNL     1       4.964  36.228  55.881  1.00  0.00     0.050 A 
HETATM    8  N   UNL     1       3.928  35.342  56.236  1.00  0.00    -0.324 N 
HETATM    9  C   UNL     1       3.394  35.141  57.490  1.00  0.00     0.247 C 
HETATM   10  O   UNL     1       2.456  34.355  57.625  1.00  0.00    -0.271 OA
HETATM   11  C   UNL     1       6.345  38.219  56.117  1.00  0.00     0.030 A 
HETATM   12  C   UNL     1       7.211  37.763  55.117  1.00  0.00    -0.035 A 
HETATM   13  C   UNL     1       6.890  36.585  54.438  1.00  0.00     0.013 A 
HETATM   14  C   UNL     1       5.771  35.832  54.809  1.00  0.00     0.031 A 
HETATM   15  C   UNL     1       2.707  37.731  59.347  1.00  0.00     0.129 C 
HETATM   16  C   UNL     1       2.858  36.831  60.558  1.00  0.00     0.047 C 
HETATM   17  H   UNL     1       3.627  34.646  55.564  1.00  0.00     0.169 HD
ENDROOT
BRANCH   1  18
HETATM   18  N   UNL     1       4.521  35.073  60.982  1.00  0.00    -0.350 N 
HETATM   19  C   UNL     1       4.952  33.762  60.999  1.00  0.00     0.252 C 
HETATM   20  O   UNL     1       4.539  32.910  60.223  1.00  0.00    -0.268 OA
HETATM   21  H   UNL     1       4.667  35.626  61.816  1.00  0.00     0.163 HD
BRANCH  19  22
HETATM   22  C   UNL     1       5.983  33.417  62.014  1.00  0.00     0.035 A 
HETATM   23  C   UNL     1       5.975  33.991  63.290  1.00  0.00     0.059 A 
HETATM   24  C   UNL     1       6.986  33.665  64.188  1.00  0.00     0.117 A 
HETATM   25  C   UNL     1       8.006  32.786  63.840  1.00  0.00     0.042 A 
HETATM   26  F   UNL     1       6.982  34.218  65.408  1.00  0.00    -0.206 F 
HETATM   27  C   UNL     1       8.025  32.224  62.565  1.00  0.00     0.004 A 
HETATM   28  C   UNL     1       7.018  32.543  61.651  1.00  0.00     0.017 A 
ENDBRANCH  19  22
ENDBRANCH   1  18
BRANCH  12  29
HETATM   29  C   UNL     1       8.427  38.497  54.749  1.00  0.00     0.012 C 
HETATM   30  C   UNL     1       9.358  37.974  53.935  1.00  0.00     0.012 C 
BRANCH  30  31
HETATM   31  C   UNL     1      10.567  38.683  53.495  1.00  0.00    -0.036 A 
HETATM   32  C   UNL     1      11.620  37.942  52.942  1.00  0.00     0.014 A 
HETATM   33  C   UNL     1      12.766  38.581  52.460  1.00  0.00     0.037 A 
HETATM   34  C   UNL     1      12.852  39.967  52.523  1.00  0.00     0.065 A 
HETATM   35  C   UNL     1      11.814  40.720  53.056  1.00  0.00     0.037 A 
HETATM   36  C   UNL     1      10.670  40.080  53.538  1.00  0.00     0.014 A 
BRANCH  34  37
HETATM   37  O   UNL     1      13.947  40.632  52.059  1.00  0.00    -0.361 OA
HETATM   38  H   UNL     1      13.821  41.583  52.214  1.00  0.00     0.217 HD
ENDBRANCH  34  37
ENDBRANCH  30  31
ENDBRANCH  12  29
TORSDOF 5
ENDMDL
