MODEL 1
REMARK VINA RESULT:     -10.5      0.000      0.000
REMARK  5 active torsions:
REMARK  status: ('A' for Active; 'I' for Inactive)
REMARK    1  A    between atoms: C_2  and  C_3 
REMARK    2  A    between atoms: C_5  and  N_6 
REMARK       I    between atoms: N_6  and  C_7 
REMARK    3  A    between atoms: C_7  and  C_8 
REMARK    4  A    between atoms: C_16  and  C_17 
REMARK    5  A    between atoms: C_20  and  O_21 
ROOT
HETATM    1  C   UNL     1       6.593  26.013  54.787  1.00  0.00     0.047 A 
HETATM    2  C   UNL     1       7.211  24.802  55.167  1.00  0.00     0.008 A 
HETATM    3  C   UNL     1       8.072  24.880  56.275  1.00  0.00     0.068 A 
HETATM    4  C   UNL     1       8.692  23.723  56.729  1.00  0.00     0.032 A 
HETATM    5  C   UNL     1       8.509  22.489  56.099  1.00  0.00     0.002 A 
HETATM    6  C   UNL     1       7.699  22.406  54.978  1.00  0.00     0.001 A 
HETATM    7  C   UNL     1       7.058  23.551  54.509  1.00  0.00     0.015 A 
HETATM    8  N   UNL     1       8.343  26.030  56.914  1.00  0.00    -0.248 NA
HETATM    9  C   UNL     1       7.803  27.198  56.489  1.00  0.00     0.068 A 
HETATM   10  C   UNL     1       6.911  27.214  55.430  1.00  0.00     0.050 A 
ENDROOT
BRANCH   1  11
HETATM   11  C   UNL     1       5.593  26.125  53.693  1.00  0.00     0.257 C 
HETATM   12  N   UNL     1       5.828  27.140  52.783  1.00  0.00    -0.323 N 
HETATM   13  H   UNL     1       6.630  27.737  52.954  1.00  0.00     0.169 HD
HETATM   14  O   UNL     1       4.692  25.297  53.655  1.00  0.00    -0.267 OA
BRANCH  12  15
HETATM   15  C   UNL     1       5.067  27.445  51.635  1.00  0.00     0.035 A 
HETATM   16  C   UNL     1       5.064  26.663  50.475  1.00  0.00     0.044 A 
HETATM   17  C   UNL     1       4.291  27.036  49.366  1.00  0.00     0.011 A 
HETATM   18  C   UNL     1       3.498  28.188  49.432  1.00  0.00     0.015 A 
HETATM   19  C   UNL     1       3.496  28.972  50.583  1.00  0.00     0.003 A 
HETATM   20  C   UNL     1       4.286  28.607  51.676  1.00  0.00     0.029 A 
BRANCH  17  21
HETATM   21  C   UNL     1       4.292  26.245  48.100  1.00  0.00     0.155 C 
HETATM   22  C   UNL     1       3.257  25.166  47.910  1.00  0.00     0.096 C 
HETATM   23  O   UNL     1       5.138  26.475  47.237  1.00  0.00    -0.293 OA
ENDBRANCH  17  21
ENDBRANCH  12  15
ENDBRANCH   1  11
BRANCH   9  24
HETATM   24  C   UNL     1       8.265  28.422  57.190  1.00  0.00    -0.007 A 
HETATM   25  C   UNL     1       9.552  28.941  56.954  1.00  0.00     0.016 A 
HETATM   26  C   UNL     1       9.989  30.129  57.552  1.00  0.00     0.037 A 
HETATM   27  C   UNL     1       9.149  30.845  58.398  1.00  0.00     0.068 A 
HETATM   28  C   UNL     1       7.886  30.336  58.685  1.00  0.00     0.037 A 
HETATM   29  C   UNL     1       7.454  29.140  58.091  1.00  0.00     0.016 A 
BRANCH  27  30
HETATM   30  O   UNL     1       9.671  32.006  58.896  1.00  0.00    -0.356 OA
HETATM   31  C   UNL     1       9.234  32.380  60.198  1.00  0.00     0.210 C 
ENDBRANCH  27  30
ENDBRANCH   9  24
TORSDOF 5
ENDMDL
MODEL 2
REMARK VINA RESULT:     -10.0      1.783      8.290
REMARK  5 active torsions:
REMARK  status: ('A' for Active; 'I' for Inactive)
REMARK    1  A    between atoms: C_2  and  C_3 
REMARK    2  A    between atoms: C_5  and  N_6 
REMARK       I    between atoms: N_6  and  C_7 
REMARK    3  A    between atoms: C_7  and  C_8 
REMARK    4  A    between atoms: C_16  and  C_17 
REMARK    5  A    between atoms: C_20  and  O_21 
ROOT
HETATM    1  C   UNL     1       7.615  26.070  55.820  1.00  0.00     0.047 A 
HETATM    2  C   UNL     1       7.753  24.667  55.894  1.00  0.00     0.008 A 
HETATM    3  C   UNL     1       7.362  23.958  54.745  1.00  0.00     0.068 A 
HETATM    4  C   UNL     1       7.497  22.576  54.729  1.00  0.00     0.032 A 
HETATM    5  C   UNL     1       7.982  21.866  55.830  1.00  0.00     0.002 A 
HETATM    6  C   UNL     1       8.330  22.549  56.986  1.00  0.00     0.001 A 
HETATM    7  C   UNL     1       8.211  23.936  57.024  1.00  0.00     0.015 A 
HETATM    8  N   UNL     1       6.842  24.551  53.658  1.00  0.00    -0.248 NA
HETATM    9  C   UNL     1       6.643  25.891  53.633  1.00  0.00     0.068 A 
HETATM   10  C   UNL     1       7.035  26.678  54.701  1.00  0.00     0.050 A 
ENDROOT
BRANCH   1  11
HETATM   11  C   UNL     1       8.044  27.002  56.897  1.00  0.00     0.257 C 
HETATM   12  N   UNL     1       8.548  28.213  56.460  1.00  0.00    -0.323 N 
HETATM   13  H   UNL     1       8.617  28.351  55.458  1.00  0.00     0.169 HD
HETATM   14  O   UNL     1       7.871  26.652  58.057  1.00  0.00    -0.267 OA
BRANCH  12  15
HETATM   15  C   UNL     1       8.988  29.289  57.260  1.00  0.00     0.035 A 
HETATM   16  C   UNL     1       8.242  29.830  58.312  1.00  0.00     0.044 A 
HETATM   17  C   UNL     1       8.739  30.909  59.057  1.00  0.00     0.011 A 
HETATM   18  C   UNL     1      10.004  31.431  58.759  1.00  0.00     0.015 A 
HETATM   19  C   UNL     1      10.752  30.897  57.713  1.00  0.00     0.003 A 
HETATM   20  C   UNL     1      10.242  29.838  56.960  1.00  0.00     0.029 A 
BRANCH  17  21
HETATM   21  C   UNL     1       7.954  31.535  60.162  1.00  0.00     0.155 C 
HETATM   22  C   UNL     1       8.655  31.891  61.448  1.00  0.00     0.096 C 
HETATM   23  O   UNL     1       6.751  31.742  60.015  1.00  0.00    -0.293 OA
ENDBRANCH  17  21
ENDBRANCH  12  15
ENDBRANCH   1  11
BRANCH   9  24
HETATM   24  C   UNL     1       5.952  26.424  52.432  1.00  0.00    -0.007 A 
HETATM   25  C   UNL     1       5.796  27.812  52.252  1.00  0.00     0.016 A 
HETATM   26  C   UNL     1       5.206  28.344  51.098  1.00  0.00     0.037 A 
HETATM   27  C   UNL     1       4.763  27.505  50.080  1.00  0.00     0.068 A 
HETATM   28  C   UNL     1       4.865  26.128  50.248  1.00  0.00     0.037 A 
HETATM   29  C   UNL     1       5.448  25.597  51.409  1.00  0.00     0.016 A 
BRANCH  27  30
HETATM   30  O   UNL     1       4.236  28.138  48.989  1.00  0.00    -0.356 OA
HETATM   31  C   UNL     1       5.053  28.159  47.824  1.00  0.00     0.210 C 
ENDBRANCH  27  30
ENDBRANCH   9  24
TORSDOF 5
ENDMDL
MODEL 3
REMARK VINA RESULT:      -9.7      1.200      1.885
REMARK  5 active torsions:
REMARK  status: ('A' for Active; 'I' for Inactive)
REMARK    1  A    between atoms: C_2  and  C_3 
REMARK    2  A    between atoms: C_5  and  N_6 
REMARK       I    between atoms: N_6  and  C_7 
REMARK    3  A    between atoms: C_7  and  C_8 
REMARK    4  A    between atoms: C_16  and  C_17 
REMARK    5  A    between atoms: C_20  and  O_21 
ROOT
HETATM    1  C   UNL     1       6.676  26.214  54.732  1.00  0.00     0.047 A 
HETATM    2  C   UNL     1       7.191  24.954  55.105  1.00  0.00     0.008 A 
HETATM    3  C   UNL     1       8.009  24.946  56.248  1.00  0.00     0.068 A 
HETATM    4  C   UNL     1       8.528  23.738  56.696  1.00  0.00     0.032 A 
HETATM    5  C   UNL     1       8.287  22.535  56.028  1.00  0.00     0.002 A 
HETATM    6  C   UNL     1       7.520  22.535  54.873  1.00  0.00     0.001 A 
HETATM    7  C   UNL     1       6.980  23.732  54.409  1.00  0.00     0.015 A 
HETATM    8  N   UNL     1       8.332  26.059  56.927  1.00  0.00    -0.248 NA
HETATM    9  C   UNL     1       7.892  27.272  56.511  1.00  0.00     0.068 A 
HETATM   10  C   UNL     1       7.049  27.375  55.418  1.00  0.00     0.050 A 
ENDROOT
BRANCH   1  11
HETATM   11  C   UNL     1       5.733  26.421  53.602  1.00  0.00     0.257 C 
HETATM   12  N   UNL     1       6.284  27.003  52.475  1.00  0.00    -0.323 N 
HETATM   13  H   UNL     1       7.261  27.269  52.523  1.00  0.00     0.169 HD
HETATM   14  O   UNL     1       4.583  26.022  53.737  1.00  0.00    -0.267 OA
BRANCH  12  15
HETATM   15  C   UNL     1       5.632  27.276  51.254  1.00  0.00     0.035 A 
HETATM   16  C   UNL     1       5.432  28.567  50.752  1.00  0.00     0.044 A 
HETATM   17  C   UNL     1       4.763  28.762  49.535  1.00  0.00     0.011 A 
HETATM   18  C   UNL     1       4.314  27.655  48.807  1.00  0.00     0.015 A 
HETATM   19  C   UNL     1       4.509  26.367  49.300  1.00  0.00     0.003 A 
HETATM   20  C   UNL     1       5.155  26.179  50.524  1.00  0.00     0.029 A 
BRANCH  17  21
HETATM   21  C   UNL     1       4.501  30.127  48.988  1.00  0.00     0.155 C 
HETATM   22  C   UNL     1       5.538  31.204  49.179  1.00  0.00     0.096 C 
HETATM   23  O   UNL     1       3.445  30.356  48.400  1.00  0.00    -0.293 OA
ENDBRANCH  17  21
ENDBRANCH  12  15
ENDBRANCH   1  11
BRANCH   9  24
HETATM   24  C   UNL     1       8.408  28.444  57.262  1.00  0.00    -0.007 A 
HETATM   25  C   UNL     1       9.671  28.988  56.961  1.00  0.00     0.016 A 
HETATM   26  C   UNL     1      10.154  30.132  57.609  1.00  0.00     0.037 A 
HETATM   27  C   UNL     1       9.384  30.777  58.572  1.00  0.00     0.068 A 
HETATM   28  C   UNL     1       8.150  30.238  58.921  1.00  0.00     0.037 A 
HETATM   29  C   UNL     1       7.672  29.086  58.276  1.00  0.00     0.016 A 
BRANCH  27  30
HETATM   30  O   UNL     1       9.944  31.901  59.111  1.00  0.00    -0.356 OA
HETATM   31  C   UNL     1       9.310  32.418  60.275  1.00  0.00     0.210 C 
ENDBRANCH  27  30
ENDBRANCH   9  24
TORSDOF 5
ENDMDL
MODEL 4
REMARK VINA RESULT:      -9.6      2.518      8.424
REMARK  5 active torsions:
REMARK  status: ('A' for Active; 'I' for Inactive)
REMARK    1  A    between atoms: C_2  and  C_3 
REMARK    2  A    between atoms: C_5  and  N_6 
REMARK       I    between atoms: N_6  and  C_7 
REMARK    3  A    between atoms: C_7  and  C_8 
REMARK    4  A    between atoms: C_16  and  C_17 
REMARK    5  A    between atoms: C_20  and  O_21 
ROOT
HETATM    1  C   UNL     1       5.423  27.280  54.180  1.00  0.00     0.047 A 
HETATM    2  C   UNL     1       5.063  27.530  52.839  1.00  0.00     0.008 A 
HETATM    3  C   UNL     1       5.311  26.481  51.938  1.00  0.00     0.068 A 
HETATM    4  C   UNL     1       4.954  26.640  50.605  1.00  0.00     0.032 A 
HETATM    5  C   UNL     1       4.384  27.822  50.126  1.00  0.00     0.002 A 
HETATM    6  C   UNL     1       4.175  28.882  50.995  1.00  0.00     0.001 A 
HETATM    7  C   UNL     1       4.516  28.744  52.338  1.00  0.00     0.015 A 
HETATM    8  N   UNL     1       5.897  25.327  52.298  1.00  0.00    -0.248 NA
HETATM    9  C   UNL     1       6.308  25.133  53.575  1.00  0.00     0.068 A 
HETATM   10  C   UNL     1       6.070  26.094  54.542  1.00  0.00     0.050 A 
ENDROOT
BRANCH   1  11
HETATM   11  C   UNL     1       5.172  28.231  55.296  1.00  0.00     0.257 C 
HETATM   12  N   UNL     1       6.238  29.048  55.623  1.00  0.00    -0.323 N 
HETATM   13  H   UNL     1       7.101  28.911  55.109  1.00  0.00     0.169 HD
HETATM   14  O   UNL     1       4.051  28.250  55.789  1.00  0.00    -0.267 OA
BRANCH  12  15
HETATM   15  C   UNL     1       6.263  30.060  56.607  1.00  0.00     0.035 A 
HETATM   16  C   UNL     1       7.151  30.069  57.688  1.00  0.00     0.044 A 
HETATM   17  C   UNL     1       7.109  31.103  58.635  1.00  0.00     0.011 A 
HETATM   18  C   UNL     1       6.187  32.145  58.482  1.00  0.00     0.015 A 
HETATM   19  C   UNL     1       5.300  32.142  57.407  1.00  0.00     0.003 A 
HETATM   20  C   UNL     1       5.331  31.098  56.481  1.00  0.00     0.029 A 
BRANCH  17  21
HETATM   21  C   UNL     1       8.016  31.126  59.821  1.00  0.00     0.155 C 
HETATM   22  C   UNL     1       8.190  32.413  60.585  1.00  0.00     0.096 C 
HETATM   23  O   UNL     1       8.615  30.103  60.151  1.00  0.00    -0.293 OA
ENDBRANCH  17  21
ENDBRANCH  12  15
ENDBRANCH   1  11
BRANCH   9  24
HETATM   24  C   UNL     1       7.051  23.874  53.835  1.00  0.00    -0.007 A 
HETATM   25  C   UNL     1       7.346  23.475  55.153  1.00  0.00     0.016 A 
HETATM   26  C   UNL     1       7.988  22.262  55.429  1.00  0.00     0.037 A 
HETATM   27  C   UNL     1       8.346  21.400  54.397  1.00  0.00     0.068 A 
HETATM   28  C   UNL     1       8.106  21.786  53.082  1.00  0.00     0.037 A 
HETATM   29  C   UNL     1       7.470  23.008  52.808  1.00  0.00     0.016 A 
BRANCH  27  30
HETATM   30  O   UNL     1       8.935  20.231  54.789  1.00  0.00    -0.356 OA
HETATM   31  C   UNL     1       9.260  20.128  56.170  1.00  0.00     0.210 C 
ENDBRANCH  27  30
ENDBRANCH   9  24
TORSDOF 5
ENDMDL
MODEL 5
REMARK VINA RESULT:      -9.6      3.024      9.116
REMARK  5 active torsions:
REMARK  status: ('A' for Active; 'I' for Inactive)
REMARK    1  A    between atoms: C_2  and  C_3 
REMARK    2  A    between atoms: C_5  and  N_6 
REMARK       I    between atoms: N_6  and  C_7 
REMARK    3  A    between atoms: C_7  and  C_8 
REMARK    4  A    between atoms: C_16  and  C_17 
REMARK    5  A    between atoms: C_20  and  O_21 
ROOT
HETATM    1  C   UNL     1       6.008  28.223  55.846  1.00  0.00     0.047 A 
HETATM    2  C   UNL     1       5.109  28.613  54.831  1.00  0.00     0.008 A 
HETATM    3  C   UNL     1       4.852  27.648  53.843  1.00  0.00     0.068 A 
HETATM    4  C   UNL     1       3.953  27.947  52.827  1.00  0.00     0.032 A 
HETATM    5  C   UNL     1       3.319  29.189  52.742  1.00  0.00     0.002 A 
HETATM    6  C   UNL     1       3.597  30.167  53.684  1.00  0.00     0.001 A 
HETATM    7  C   UNL     1       4.489  29.888  54.718  1.00  0.00     0.015 A 
HETATM    8  N   UNL     1       5.450  26.445  53.818  1.00  0.00    -0.248 NA
HETATM    9  C   UNL     1       6.371  26.115  54.757  1.00  0.00     0.068 A 
HETATM   10  C   UNL     1       6.659  26.985  55.793  1.00  0.00     0.050 A 
ENDROOT
BRANCH   1  11
HETATM   11  C   UNL     1       6.351  29.069  57.020  1.00  0.00     0.257 C 
HETATM   12  N   UNL     1       7.662  29.503  57.069  1.00  0.00    -0.323 N 
HETATM   13  H   UNL     1       8.283  29.186  56.332  1.00  0.00     0.169 HD
HETATM   14  O   UNL     1       5.452  29.350  57.803  1.00  0.00    -0.267 OA
BRANCH  12  15
HETATM   15  C   UNL     1       8.244  30.344  58.042  1.00  0.00     0.035 A 
HETATM   16  C   UNL     1       7.554  30.835  59.156  1.00  0.00     0.044 A 
HETATM   17  C   UNL     1       8.195  31.678  60.076  1.00  0.00     0.011 A 
HETATM   18  C   UNL     1       9.542  32.008  59.889  1.00  0.00     0.015 A 
HETATM   19  C   UNL     1      10.235  31.523  58.783  1.00  0.00     0.003 A 
HETATM   20  C   UNL     1       9.585  30.703  57.858  1.00  0.00     0.029 A 
BRANCH  17  21
HETATM   21  C   UNL     1       7.479  32.249  61.255  1.00  0.00     0.155 C 
HETATM   22  C   UNL     1       8.140  32.198  62.608  1.00  0.00     0.096 C 
HETATM   23  O   UNL     1       6.362  32.743  61.111  1.00  0.00    -0.293 OA
ENDBRANCH  17  21
ENDBRANCH  12  15
ENDBRANCH   1  11
BRANCH   9  24
HETATM   24  C   UNL     1       7.056  24.812  54.565  1.00  0.00    -0.007 A 
HETATM   25  C   UNL     1       6.917  24.100  53.358  1.00  0.00     0.016 A 
HETATM   26  C   UNL     1       7.604  22.902  53.126  1.00  0.00     0.037 A 
HETATM   27  C   UNL     1       8.464  22.382  54.088  1.00  0.00     0.068 A 
HETATM   28  C   UNL     1       8.589  23.040  55.308  1.00  0.00     0.037 A 
HETATM   29  C   UNL     1       7.892  24.236  55.541  1.00  0.00     0.016 A 
BRANCH  27  30
HETATM   30  O   UNL     1       9.105  21.227  53.737  1.00  0.00    -0.356 OA
HETATM   31  C   UNL     1       8.404  20.371  52.842  1.00  0.00     0.210 C 
ENDBRANCH  27  30
ENDBRANCH   9  24
TORSDOF 5
ENDMDL
MODEL 6
REMARK VINA RESULT:      -9.6      1.672      8.261
REMARK  5 active torsions:
REMARK  status: ('A' for Active; 'I' for Inactive)
REMARK    1  A    between atoms: C_2  and  C_3 
REMARK    2  A    between atoms: C_5  and  N_6 
REMARK       I    between atoms: N_6  and  C_7 
REMARK    3  A    between atoms: C_7  and  C_8 
REMARK    4  A    between atoms: C_16  and  C_17 
REMARK    5  A    between atoms: C_20  and  O_21 
ROOT
HETATM    1  C   UNL     1       6.663  26.485  54.503  1.00  0.00     0.047 A 
HETATM    2  C   UNL     1       7.302  25.230  54.408  1.00  0.00     0.008 A 
HETATM    3  C   UNL     1       7.361  24.674  53.119  1.00  0.00     0.068 A 
HETATM    4  C   UNL     1       8.002  23.455  52.940  1.00  0.00     0.032 A 
HETATM    5  C   UNL     1       8.565  22.751  54.007  1.00  0.00     0.002 A 
HETATM    6  C   UNL     1       8.475  23.266  55.291  1.00  0.00     0.001 A 
HETATM    7  C   UNL     1       7.844  24.491  55.495  1.00  0.00     0.015 A 
HETATM    8  N   UNL     1       6.808  25.257  52.042  1.00  0.00    -0.248 NA
HETATM    9  C   UNL     1       6.130  26.424  52.163  1.00  0.00     0.068 A 
HETATM   10  C   UNL     1       6.054  27.067  53.386  1.00  0.00     0.050 A 
ENDROOT
BRANCH   1  11
HETATM   11  C   UNL     1       6.566  27.272  55.760  1.00  0.00     0.257 C 
HETATM   12  N   UNL     1       7.015  28.577  55.673  1.00  0.00    -0.323 N 
HETATM   13  H   UNL     1       7.401  28.875  54.785  1.00  0.00     0.169 HD
HETATM   14  O   UNL     1       6.059  26.731  56.735  1.00  0.00    -0.267 OA
BRANCH  12  15
HETATM   15  C   UNL     1       7.002  29.550  56.696  1.00  0.00     0.035 A 
HETATM   16  C   UNL     1       8.151  29.995  57.358  1.00  0.00     0.044 A 
HETATM   17  C   UNL     1       8.059  30.958  58.374  1.00  0.00     0.011 A 
HETATM   18  C   UNL     1       6.810  31.494  58.709  1.00  0.00     0.015 A 
HETATM   19  C   UNL     1       5.662  31.055  58.053  1.00  0.00     0.003 A 
HETATM   20  C   UNL     1       5.757  30.079  57.059  1.00  0.00     0.029 A 
BRANCH  17  21
HETATM   21  C   UNL     1       9.260  31.429  59.127  1.00  0.00     0.155 C 
HETATM   22  C   UNL     1       9.429  31.018  60.567  1.00  0.00     0.096 C 
HETATM   23  O   UNL     1      10.085  32.150  58.569  1.00  0.00    -0.293 OA
ENDBRANCH  17  21
ENDBRANCH  12  15
ENDBRANCH   1  11
BRANCH   9  24
HETATM   24  C   UNL     1       5.457  26.916  50.935  1.00  0.00    -0.007 A 
HETATM   25  C   UNL     1       5.449  28.289  50.622  1.00  0.00     0.016 A 
HETATM   26  C   UNL     1       4.879  28.772  49.438  1.00  0.00     0.037 A 
HETATM   27  C   UNL     1       4.307  27.896  48.520  1.00  0.00     0.068 A 
HETATM   28  C   UNL     1       4.261  26.539  48.821  1.00  0.00     0.037 A 
HETATM   29  C   UNL     1       4.825  26.058  50.013  1.00  0.00     0.016 A 
BRANCH  27  30
HETATM   30  O   UNL     1       3.813  28.478  47.387  1.00  0.00    -0.356 OA
HETATM   31  C   UNL     1       3.352  29.818  47.522  1.00  0.00     0.210 C 
ENDBRANCH  27  30
ENDBRANCH   9  24
TORSDOF 5
ENDMDL
MODEL 7
REMARK VINA RESULT:      -9.5      2.697      5.942
REMARK  5 active torsions:
REMARK  status: ('A' for Active; 'I' for Inactive)
REMARK    1  A    between atoms: C_2  and  C_3 
REMARK    2  A    between atoms: C_5  and  N_6 
REMARK       I    between atoms: N_6  and  C_7 
REMARK    3  A    between atoms: C_7  and  C_8 
REMARK    4  A    between atoms: C_16  and  C_17 
REMARK    5  A    between atoms: C_20  and  O_21 
ROOT
HETATM    1  C   UNL     1       5.500  27.252  53.477  1.00  0.00     0.047 A 
HETATM    2  C   UNL     1       5.713  27.954  54.683  1.00  0.00     0.008 A 
HETATM    3  C   UNL     1       6.522  27.302  55.630  1.00  0.00     0.068 A 
HETATM    4  C   UNL     1       6.803  27.943  56.829  1.00  0.00     0.032 A 
HETATM    5  C   UNL     1       6.283  29.202  57.136  1.00  0.00     0.002 A 
HETATM    6  C   UNL     1       5.446  29.837  56.230  1.00  0.00     0.001 A 
HETATM    7  C   UNL     1       5.157  29.219  55.016  1.00  0.00     0.015 A 
HETATM    8  N   UNL     1       7.028  26.072  55.441  1.00  0.00    -0.248 NA
HETATM    9  C   UNL     1       6.750  25.380  54.309  1.00  0.00     0.068 A 
HETATM   10  C   UNL     1       5.995  25.955  53.302  1.00  0.00     0.050 A 
ENDROOT
BRANCH   1  11
HETATM   11  C   UNL     1       4.740  27.801  52.323  1.00  0.00     0.257 C 
HETATM   12  N   UNL     1       5.313  27.581  51.083  1.00  0.00    -0.323 N 
HETATM   13  H   UNL     1       6.207  27.104  51.065  1.00  0.00     0.169 HD
HETATM   14  O   UNL     1       3.667  28.344  52.552  1.00  0.00    -0.267 OA
BRANCH  12  15
HETATM   15  C   UNL     1       4.790  27.956  49.827  1.00  0.00     0.035 A 
HETATM   16  C   UNL     1       3.883  27.178  49.100  1.00  0.00     0.044 A 
HETATM   17  C   UNL     1       3.416  27.610  47.850  1.00  0.00     0.011 A 
HETATM   18  C   UNL     1       3.844  28.841  47.339  1.00  0.00     0.015 A 
HETATM   19  C   UNL     1       4.748  29.620  48.057  1.00  0.00     0.003 A 
HETATM   20  C   UNL     1       5.227  29.174  49.291  1.00  0.00     0.029 A 
BRANCH  17  21
HETATM   21  C   UNL     1       2.475  26.788  47.032  1.00  0.00     0.155 C 
HETATM   22  C   UNL     1       1.065  27.278  46.826  1.00  0.00     0.096 C 
HETATM   23  O   UNL     1       2.857  25.725  46.547  1.00  0.00    -0.293 OA
ENDBRANCH  17  21
ENDBRANCH  12  15
ENDBRANCH   1  11
BRANCH   9  24
HETATM   24  C   UNL     1       7.259  23.986  54.258  1.00  0.00    -0.007 A 
HETATM   25  C   UNL     1       7.436  23.244  55.442  1.00  0.00     0.016 A 
HETATM   26  C   UNL     1       7.853  21.907  55.418  1.00  0.00     0.037 A 
HETATM   27  C   UNL     1       8.094  21.263  54.209  1.00  0.00     0.068 A 
HETATM   28  C   UNL     1       7.968  21.982  53.025  1.00  0.00     0.037 A 
HETATM   29  C   UNL     1       7.559  23.325  53.051  1.00  0.00     0.016 A 
BRANCH  27  30
HETATM   30  O   UNL     1       8.462  19.951  54.309  1.00  0.00    -0.356 OA
HETATM   31  C   UNL     1       8.995  19.545  55.564  1.00  0.00     0.210 C 
ENDBRANCH  27  30
ENDBRANCH   9  24
TORSDOF 5
ENDMDL
MODEL 8
REMARK VINA RESULT:      -9.4      3.551      6.448
REMARK  5 active torsions:
REMARK  status: ('A' for Active; 'I' for Inactive)
REMARK    1  A    between atoms: C_2  and  C_3 
REMARK    2  A    between atoms: C_5  and  N_6 
REMARK       I    between atoms: N_6  and  C_7 
REMARK    3  A    between atoms: C_7  and  C_8 
REMARK    4  A    between atoms: C_16  and  C_17 
REMARK    5  A    between atoms: C_20  and  O_21 
ROOT
HETATM    1  C   UNL     1       6.688  29.717  56.493  1.00  0.00     0.047 A 
HETATM    2  C   UNL     1       5.483  30.307  56.053  1.00  0.00     0.008 A 
HETATM    3  C   UNL     1       4.994  31.356  56.851  1.00  0.00     0.068 A 
HETATM    4  C   UNL     1       3.830  32.008  56.465  1.00  0.00     0.032 A 
HETATM    5  C   UNL     1       3.115  31.635  55.325  1.00  0.00     0.002 A 
HETATM    6  C   UNL     1       3.561  30.573  54.554  1.00  0.00     0.001 A 
HETATM    7  C   UNL     1       4.731  29.908  54.915  1.00  0.00     0.015 A 
HETATM    8  N   UNL     1       5.590  31.752  57.988  1.00  0.00    -0.248 NA
HETATM    9  C   UNL     1       6.703  31.123  58.438  1.00  0.00     0.068 A 
HETATM   10  C   UNL     1       7.281  30.106  57.699  1.00  0.00     0.050 A 
ENDROOT
BRANCH   1  11
HETATM   11  C   UNL     1       7.406  28.649  55.749  1.00  0.00     0.257 C 
HETATM   12  N   UNL     1       6.733  27.444  55.653  1.00  0.00    -0.323 N 
HETATM   13  H   UNL     1       5.836  27.378  56.120  1.00  0.00     0.169 HD
HETATM   14  O   UNL     1       8.488  28.930  55.248  1.00  0.00    -0.267 OA
BRANCH  12  15
HETATM   15  C   UNL     1       7.162  26.283  54.975  1.00  0.00     0.035 A 
HETATM   16  C   UNL     1       7.574  25.114  55.623  1.00  0.00     0.044 A 
HETATM   17  C   UNL     1       7.999  24.001  54.882  1.00  0.00     0.011 A 
HETATM   18  C   UNL     1       7.987  24.055  53.483  1.00  0.00     0.015 A 
HETATM   19  C   UNL     1       7.577  25.217  52.832  1.00  0.00     0.003 A 
HETATM   20  C   UNL     1       7.177  26.329  53.575  1.00  0.00     0.029 A 
BRANCH  17  21
HETATM   21  C   UNL     1       8.480  22.751  55.541  1.00  0.00     0.155 C 
HETATM   22  C   UNL     1       9.095  21.666  54.694  1.00  0.00     0.096 C 
HETATM   23  O   UNL     1       8.361  22.617  56.758  1.00  0.00    -0.293 OA
ENDBRANCH  17  21
ENDBRANCH  12  15
ENDBRANCH   1  11
BRANCH   9  24
HETATM   24  C   UNL     1       7.206  31.562  59.764  1.00  0.00    -0.007 A 
HETATM   25  C   UNL     1       6.393  32.326  60.622  1.00  0.00     0.016 A 
HETATM   26  C   UNL     1       6.819  32.698  61.903  1.00  0.00     0.037 A 
HETATM   27  C   UNL     1       8.068  32.307  62.374  1.00  0.00     0.068 A 
HETATM   28  C   UNL     1       8.911  31.587  61.534  1.00  0.00     0.037 A 
HETATM   29  C   UNL     1       8.486  31.224  60.246  1.00  0.00     0.016 A 
BRANCH  27  30
HETATM   30  O   UNL     1       8.361  32.699  63.650  1.00  0.00    -0.356 OA
HETATM   31  C   UNL     1       7.272  33.202  64.415  1.00  0.00     0.210 C 
ENDBRANCH  27  30
ENDBRANCH   9  24
TORSDOF 5
ENDMDL
MODEL 9
REMARK VINA RESULT:      -9.2      3.453      6.892
REMARK  5 active torsions:
REMARK  status: ('A' for Active; 'I' for Inactive)
REMARK    1  A    between atoms: C_2  and  C_3 
REMARK    2  A    between atoms: C_5  and  N_6 
REMARK       I    between atoms: N_6  and  C_7 
REMARK    3  A    between atoms: C_7  and  C_8 
REMARK    4  A    between atoms: C_16  and  C_17 
REMARK    5  A    between atoms: C_20  and  O_21 
ROOT
HETATM    1  C   UNL     1       5.654  27.388  53.084  1.00  0.00     0.047 A 
HETATM    2  C   UNL     1       5.092  27.274  51.794  1.00  0.00     0.008 A 
HETATM    3  C   UNL     1       4.188  28.288  51.433  1.00  0.00     0.068 A 
HETATM    4  C   UNL     1       3.618  28.262  50.167  1.00  0.00     0.032 A 
HETATM    5  C   UNL     1       3.892  27.243  49.252  1.00  0.00     0.002 A 
HETATM    6  C   UNL     1       4.747  26.211  49.611  1.00  0.00     0.001 A 
HETATM    7  C   UNL     1       5.338  26.220  50.872  1.00  0.00     0.015 A 
HETATM    8  N   UNL     1       3.830  29.281  52.264  1.00  0.00    -0.248 NA
HETATM    9  C   UNL     1       4.319  29.333  53.527  1.00  0.00     0.068 A 
HETATM   10  C   UNL     1       5.246  28.401  53.959  1.00  0.00     0.050 A 
ENDROOT
BRANCH   1  11
HETATM   11  C   UNL     1       6.685  26.462  53.623  1.00  0.00     0.257 C 
HETATM   12  N   UNL     1       6.197  25.416  54.384  1.00  0.00    -0.323 N 
HETATM   13  H   UNL     1       5.195  25.386  54.540  1.00  0.00     0.169 HD
HETATM   14  O   UNL     1       7.853  26.666  53.313  1.00  0.00    -0.267 OA
BRANCH  12  15
HETATM   15  C   UNL     1       6.943  24.377  54.979  1.00  0.00     0.035 A 
HETATM   16  C   UNL     1       7.196  23.149  54.360  1.00  0.00     0.044 A 
HETATM   17  C   UNL     1       7.936  22.157  55.019  1.00  0.00     0.011 A 
HETATM   18  C   UNL     1       8.447  22.410  56.298  1.00  0.00     0.015 A 
HETATM   19  C   UNL     1       8.199  23.631  56.921  1.00  0.00     0.003 A 
HETATM   20  C   UNL     1       7.442  24.606  56.269  1.00  0.00     0.029 A 
BRANCH  17  21
HETATM   21  C   UNL     1       8.193  20.822  54.403  1.00  0.00     0.155 C 
HETATM   22  C   UNL     1       7.975  20.645  52.922  1.00  0.00     0.096 C 
HETATM   23  O   UNL     1       8.568  19.886  55.107  1.00  0.00    -0.293 OA
ENDBRANCH  17  21
ENDBRANCH  12  15
ENDBRANCH   1  11
BRANCH   9  24
HETATM   24  C   UNL     1       3.764  30.401  54.396  1.00  0.00    -0.007 A 
HETATM   25  C   UNL     1       3.828  30.289  55.798  1.00  0.00     0.016 A 
HETATM   26  C   UNL     1       3.371  31.311  56.640  1.00  0.00     0.037 A 
HETATM   27  C   UNL     1       2.846  32.484  56.108  1.00  0.00     0.068 A 
HETATM   28  C   UNL     1       2.731  32.606  54.727  1.00  0.00     0.037 A 
HETATM   29  C   UNL     1       3.181  31.577  53.885  1.00  0.00     0.016 A 
BRANCH  27  30
HETATM   30  O   UNL     1       2.464  33.423  57.025  1.00  0.00    -0.356 OA
HETATM   31  C   UNL     1       3.510  34.202  57.594  1.00  0.00     0.210 C 
ENDBRANCH  27  30
ENDBRANCH   9  24
TORSDOF 5
ENDMDL
MODEL 10
REMARK VINA RESULT:      -9.2      3.374      6.082
REMARK  5 active torsions:
REMARK  status: ('A' for Active; 'I' for Inactive)
REMARK    1  A    between atoms: C_2  and  C_3 
REMARK    2  A    between atoms: C_5  and  N_6 
REMARK       I    between atoms: N_6  and  C_7 
REMARK    3  A    between atoms: C_7  and  C_8 
REMARK    4  A    between atoms: C_16  and  C_17 
REMARK    5  A    between atoms: C_20  and  O_21 
ROOT
HETATM    1  C   UNL     1       7.045  29.517  57.447  1.00  0.00     0.047 A 
HETATM    2  C   UNL     1       8.437  29.749  57.435  1.00  0.00     0.008 A 
HETATM    3  C   UNL     1       8.872  30.870  58.163  1.00  0.00     0.068 A 
HETATM    4  C   UNL     1      10.232  31.145  58.225  1.00  0.00     0.032 A 
HETATM    5  C   UNL     1      11.178  30.361  57.561  1.00  0.00     0.002 A 
HETATM    6  C   UNL     1      10.759  29.279  56.802  1.00  0.00     0.001 A 
HETATM    7  C   UNL     1       9.401  28.976  56.732  1.00  0.00     0.015 A 
HETATM    8  N   UNL     1       8.032  31.706  58.794  1.00  0.00    -0.248 NA
HETATM    9  C   UNL     1       6.691  31.514  58.730  1.00  0.00     0.068 A 
HETATM   10  C   UNL     1       6.172  30.414  58.071  1.00  0.00     0.050 A 
ENDROOT
BRANCH   1  11
HETATM   11  C   UNL     1       6.395  28.344  56.803  1.00  0.00     0.257 C 
HETATM   12  N   UNL     1       6.990  27.912  55.632  1.00  0.00    -0.323 N 
HETATM   13  H   UNL     1       7.785  28.442  55.294  1.00  0.00     0.169 HD
HETATM   14  O   UNL     1       5.441  27.834  57.377  1.00  0.00    -0.267 OA
BRANCH  12  15
HETATM   15  C   UNL     1       6.607  26.806  54.842  1.00  0.00     0.035 A 
HETATM   16  C   UNL     1       7.163  25.530  54.973  1.00  0.00     0.044 A 
HETATM   17  C   UNL     1       6.741  24.481  54.143  1.00  0.00     0.011 A 
HETATM   18  C   UNL     1       5.738  24.710  53.194  1.00  0.00     0.015 A 
HETATM   19  C   UNL     1       5.180  25.979  53.058  1.00  0.00     0.003 A 
HETATM   20  C   UNL     1       5.621  27.025  53.872  1.00  0.00     0.029 A 
BRANCH  17  21
HETATM   21  C   UNL     1       7.338  23.115  54.230  1.00  0.00     0.155 C 
HETATM   22  C   UNL     1       7.852  22.459  52.974  1.00  0.00     0.096 C 
HETATM   23  O   UNL     1       7.395  22.542  55.316  1.00  0.00    -0.293 OA
ENDBRANCH  17  21
ENDBRANCH  12  15
ENDBRANCH   1  11
BRANCH   9  24
HETATM   24  C   UNL     1       5.853  32.565  59.360  1.00  0.00    -0.007 A 
HETATM   25  C   UNL     1       4.806  33.172  58.641  1.00  0.00     0.016 A 
HETATM   26  C   UNL     1       3.959  34.118  59.231  1.00  0.00     0.037 A 
HETATM   27  C   UNL     1       4.123  34.480  60.564  1.00  0.00     0.068 A 
HETATM   28  C   UNL     1       5.175  33.929  61.288  1.00  0.00     0.037 A 
HETATM   29  C   UNL     1       6.028  32.988  60.692  1.00  0.00     0.016 A 
BRANCH  27  30
HETATM   30  O   UNL     1       3.217  35.386  61.040  1.00  0.00    -0.356 OA
HETATM   31  C   UNL     1       2.416  34.954  62.133  1.00  0.00     0.210 C 
ENDBRANCH  27  30
ENDBRANCH   9  24
TORSDOF 5
ENDMDL
