MODEL 1
REMARK VINA RESULT:     -10.0      0.000      0.000
REMARK  5 active torsions:
REMARK  status: ('A' for Active; 'I' for Inactive)
REMARK    1  A    between atoms: O_2  and  C_3 
REMARK    2  A    between atoms: C_16  and  C_17 
REMARK    3  A    between atoms: C_19  and  O_20 
REMARK    4  A    between atoms: C_22  and  O_23 
REMARK    5  A    between atoms: O_23  and  C_24 
ROOT
HETATM    1  C   UNL     1       1.317  27.188  47.591  1.00  0.00     0.069 A 
HETATM    2  C   UNL     1       1.665  27.910  48.742  1.00  0.00     0.051 A 
HETATM    3  C   UNL     1       2.931  27.728  49.330  1.00  0.00     0.002 A 
HETATM    4  C   UNL     1       3.820  26.829  48.740  1.00  0.00     0.043 A 
HETATM    5  N   UNL     1       4.973  26.822  49.496  1.00  0.00    -0.356 N 
HETATM    6  H   UNL     1       5.772  26.233  49.293  1.00  0.00     0.166 HD
HETATM    7  C   UNL     1       4.831  27.680  50.556  1.00  0.00     0.052 A 
HETATM    8  C   UNL     1       3.581  28.264  50.471  1.00  0.00    -0.019 A 
HETATM    9  C   UNL     1       3.101  29.261  51.470  1.00  0.00     0.069 C 
HETATM   10  C   UNL     1       3.945  29.189  52.754  1.00  0.00     0.238 C 
HETATM   11  N   UNL     1       5.420  29.109  52.435  1.00  0.00    -0.061 N 
HETATM   12  H   UNL     1       5.680  29.941  51.894  1.00  0.00     0.278 HD
HETATM   13  H   UNL     1       5.965  29.127  53.303  1.00  0.00     0.278 HD
HETATM   14  C   UNL     1       5.840  27.903  51.629  1.00  0.00     0.269 C 
HETATM   15  C   UNL     1       3.499  26.106  47.586  1.00  0.00     0.033 A 
HETATM   16  C   UNL     1       2.230  26.302  47.023  1.00  0.00     0.039 A 
ENDROOT
BRANCH  14  17
HETATM   17  C   UNL     1       6.088  26.706  52.530  1.00  0.00    -0.019 A 
HETATM   18  C   UNL     1       6.918  26.780  53.666  1.00  0.00     0.049 A 
HETATM   19  C   UNL     1       7.163  25.653  54.459  1.00  0.00     0.102 A 
HETATM   20  C   UNL     1       6.596  24.416  54.104  1.00  0.00     0.102 A 
HETATM   21  C   UNL     1       5.767  24.334  52.986  1.00  0.00     0.040 A 
HETATM   22  C   UNL     1       5.519  25.466  52.202  1.00  0.00     0.012 A 
BRANCH  19  23
HETATM   23  O   UNL     1       7.971  25.653  55.567  1.00  0.00    -0.353 OA
HETATM   24  C   UNL     1       7.587  26.454  56.676  1.00  0.00     0.210 C 
ENDBRANCH  19  23
BRANCH  20  25
HETATM   25  O   UNL     1       6.870  23.365  54.939  1.00  0.00    -0.343 OA
BRANCH  25  26
HETATM   26  C   UNL     1       7.954  22.499  54.623  1.00  0.00     0.129 C 
HETATM   27  C   UNL     1       7.854  21.147  55.327  1.00  0.00     0.032 C 
HETATM   28  C   UNL     1       8.604  20.212  54.398  1.00  0.00     0.002 C 
HETATM   29  C   UNL     1       8.139  20.648  53.018  1.00  0.00     0.002 C 
HETATM   30  C   UNL     1       7.889  22.151  53.127  1.00  0.00     0.032 C 
ENDBRANCH  25  26
ENDBRANCH  20  25
ENDBRANCH  14  17
BRANCH   1  31
HETATM   31  O   UNL     1       0.055  27.448  47.129  1.00  0.00    -0.356 OA
HETATM   32  C   UNL     1      -0.121  27.490  45.718  1.00  0.00     0.210 C 
ENDBRANCH   1  31
TORSDOF 5
ENDMDL
MODEL 2
REMARK VINA RESULT:      -9.6      3.685      8.890
REMARK  5 active torsions:
REMARK  status: ('A' for Active; 'I' for Inactive)
REMARK    1  A    between atoms: O_2  and  C_3 
REMARK    2  A    between atoms: C_16  and  C_17 
REMARK    3  A    between atoms: C_19  and  O_20 
REMARK    4  A    between atoms: C_22  and  O_23 
REMARK    5  A    between atoms: O_23  and  C_24 
ROOT
HETATM    1  C   UNL     1       9.426  31.056  58.282  1.00  0.00     0.069 A 
HETATM    2  C   UNL     1       8.059  30.785  58.136  1.00  0.00     0.051 A 
HETATM    3  C   UNL     1       7.639  29.645  57.426  1.00  0.00     0.002 A 
HETATM    4  C   UNL     1       8.608  28.798  56.887  1.00  0.00     0.043 A 
HETATM    5  N   UNL     1       7.955  27.770  56.240  1.00  0.00    -0.356 N 
HETATM    6  H   UNL     1       8.433  27.028  55.742  1.00  0.00     0.166 HD
HETATM    7  C   UNL     1       6.600  27.952  56.343  1.00  0.00     0.052 A 
HETATM    8  C   UNL     1       6.375  29.099  57.083  1.00  0.00    -0.019 A 
HETATM    9  C   UNL     1       5.002  29.587  57.393  1.00  0.00     0.069 C 
HETATM   10  C   UNL     1       3.973  28.944  56.447  1.00  0.00     0.238 C 
HETATM   11  N   UNL     1       4.218  27.459  56.302  1.00  0.00    -0.061 N 
HETATM   12  H   UNL     1       4.153  27.028  57.230  1.00  0.00     0.278 HD
HETATM   13  H   UNL     1       3.483  27.042  55.720  1.00  0.00     0.278 HD
HETATM   14  C   UNL     1       5.560  27.082  55.725  1.00  0.00     0.269 C 
HETATM   15  C   UNL     1       9.978  29.042  57.029  1.00  0.00     0.033 A 
HETATM   16  C   UNL     1      10.370  30.188  57.735  1.00  0.00     0.039 A 
ENDROOT
BRANCH  14  17
HETATM   17  C   UNL     1       5.528  27.108  54.207  1.00  0.00    -0.019 A 
HETATM   18  C   UNL     1       5.769  28.284  53.470  1.00  0.00     0.049 A 
HETATM   19  C   UNL     1       5.696  28.291  52.072  1.00  0.00     0.102 A 
HETATM   20  C   UNL     1       5.349  27.113  51.388  1.00  0.00     0.102 A 
HETATM   21  C   UNL     1       5.117  25.941  52.108  1.00  0.00     0.040 A 
HETATM   22  C   UNL     1       5.199  25.938  53.504  1.00  0.00     0.012 A 
BRANCH  19  23
HETATM   23  O   UNL     1       5.903  29.402  51.297  1.00  0.00    -0.353 OA
HETATM   24  C   UNL     1       4.887  30.396  51.266  1.00  0.00     0.210 C 
ENDBRANCH  19  23
BRANCH  20  25
HETATM   25  O   UNL     1       5.315  27.197  50.021  1.00  0.00    -0.343 OA
BRANCH  25  26
HETATM   26  C   UNL     1       4.052  27.241  49.366  1.00  0.00     0.129 C 
HETATM   27  C   UNL     1       4.034  28.209  48.184  1.00  0.00     0.032 C 
HETATM   28  C   UNL     1       2.968  27.630  47.274  1.00  0.00     0.002 C 
HETATM   29  C   UNL     1       3.240  26.136  47.327  1.00  0.00     0.002 C 
HETATM   30  C   UNL     1       3.775  25.868  48.733  1.00  0.00     0.032 C 
ENDBRANCH  25  26
ENDBRANCH  20  25
ENDBRANCH  14  17
BRANCH   1  31
HETATM   31  O   UNL     1       9.698  32.201  58.980  1.00  0.00    -0.356 OA
HETATM   32  C   UNL     1       9.141  32.310  60.285  1.00  0.00     0.210 C 
ENDBRANCH   1  31
TORSDOF 5
ENDMDL
MODEL 3
REMARK VINA RESULT:      -9.2      6.521     10.736
REMARK  5 active torsions:
REMARK  status: ('A' for Active; 'I' for Inactive)
REMARK    1  A    between atoms: O_2  and  C_3 
REMARK    2  A    between atoms: C_16  and  C_17 
REMARK    3  A    between atoms: C_19  and  O_20 
REMARK    4  A    between atoms: C_22  and  O_23 
REMARK    5  A    between atoms: O_23  and  C_24 
ROOT
HETATM    1  C   UNL     1       4.308  33.284  63.312  1.00  0.00     0.069 A 
HETATM    2  C   UNL     1       5.584  32.736  63.120  1.00  0.00     0.051 A 
HETATM    3  C   UNL     1       6.057  32.495  61.817  1.00  0.00     0.002 A 
HETATM    4  C   UNL     1       5.237  32.819  60.736  1.00  0.00     0.043 A 
HETATM    5  N   UNL     1       5.912  32.486  59.581  1.00  0.00    -0.356 N 
HETATM    6  H   UNL     1       5.524  32.601  58.652  1.00  0.00     0.166 HD
HETATM    7  C   UNL     1       7.130  31.946  59.902  1.00  0.00     0.052 A 
HETATM    8  C   UNL     1       7.252  31.950  61.280  1.00  0.00    -0.019 A 
HETATM    9  C   UNL     1       8.469  31.436  61.971  1.00  0.00     0.069 C 
HETATM   10  C   UNL     1       9.290  30.543  61.025  1.00  0.00     0.238 C 
HETATM   11  N   UNL     1       9.424  31.173  59.658  1.00  0.00    -0.061 N 
HETATM   12  H   UNL     1       9.885  32.083  59.764  1.00  0.00     0.278 HD
HETATM   13  H   UNL     1      10.028  30.593  59.066  1.00  0.00     0.278 HD
HETATM   14  C   UNL     1       8.124  31.412  58.929  1.00  0.00     0.269 C 
HETATM   15  C   UNL     1       3.964  33.376  60.903  1.00  0.00     0.033 A 
HETATM   16  C   UNL     1       3.515  33.602  62.212  1.00  0.00     0.039 A 
ENDROOT
BRANCH  14  17
HETATM   17  C   UNL     1       7.679  30.166  58.184  1.00  0.00    -0.019 A 
HETATM   18  C   UNL     1       6.340  29.957  57.800  1.00  0.00     0.049 A 
HETATM   19  C   UNL     1       5.947  28.783  57.148  1.00  0.00     0.102 A 
HETATM   20  C   UNL     1       6.897  27.778  56.893  1.00  0.00     0.102 A 
HETATM   21  C   UNL     1       8.228  27.978  57.261  1.00  0.00     0.040 A 
HETATM   22  C   UNL     1       8.615  29.158  57.905  1.00  0.00     0.012 A 
BRANCH  19  23
HETATM   23  O   UNL     1       4.660  28.511  56.763  1.00  0.00    -0.353 OA
HETATM   24  C   UNL     1       4.105  29.269  55.696  1.00  0.00     0.210 C 
ENDBRANCH  19  23
BRANCH  20  25
HETATM   25  O   UNL     1       6.439  26.667  56.236  1.00  0.00    -0.343 OA
BRANCH  25  26
HETATM   26  C   UNL     1       7.382  25.768  55.664  1.00  0.00     0.129 C 
HETATM   27  C   UNL     1       6.999  24.302  55.868  1.00  0.00     0.032 C 
HETATM   28  C   UNL     1       7.651  23.603  54.691  1.00  0.00     0.002 C 
HETATM   29  C   UNL     1       7.375  24.546  53.532  1.00  0.00     0.002 C 
HETATM   30  C   UNL     1       7.375  25.949  54.138  1.00  0.00     0.032 C 
ENDBRANCH  25  26
ENDBRANCH  20  25
ENDBRANCH  14  17
BRANCH   1  31
HETATM   31  O   UNL     1       3.965  33.455  64.626  1.00  0.00    -0.356 OA
HETATM   32  C   UNL     1       5.020  33.733  65.539  1.00  0.00     0.210 C 
ENDBRANCH   1  31
TORSDOF 5
ENDMDL
MODEL 4
REMARK VINA RESULT:      -8.9      3.560      5.913
REMARK  5 active torsions:
REMARK  status: ('A' for Active; 'I' for Inactive)
REMARK    1  A    between atoms: O_2  and  C_3 
REMARK    2  A    between atoms: C_16  and  C_17 
REMARK    3  A    between atoms: C_19  and  O_20 
REMARK    4  A    between atoms: C_22  and  O_23 
REMARK    5  A    between atoms: O_23  and  C_24 
ROOT
HETATM    1  C   UNL     1       4.776  32.483  56.620  1.00  0.00     0.069 A 
HETATM    2  C   UNL     1       4.754  31.980  55.312  1.00  0.00     0.051 A 
HETATM    3  C   UNL     1       4.471  30.620  55.086  1.00  0.00     0.002 A 
HETATM    4  C   UNL     1       4.208  29.800  56.184  1.00  0.00     0.043 A 
HETATM    5  N   UNL     1       3.971  28.527  55.711  1.00  0.00    -0.356 N 
HETATM    6  H   UNL     1       3.777  27.733  56.310  1.00  0.00     0.166 HD
HETATM    7  C   UNL     1       4.091  28.517  54.344  1.00  0.00     0.052 A 
HETATM    8  C   UNL     1       4.388  29.802  53.930  1.00  0.00    -0.019 A 
HETATM    9  C   UNL     1       4.579  30.148  52.493  1.00  0.00     0.069 C 
HETATM   10  C   UNL     1       4.843  28.880  51.662  1.00  0.00     0.238 C 
HETATM   11  N   UNL     1       3.886  27.772  52.037  1.00  0.00    -0.061 N 
HETATM   12  H   UNL     1       2.929  28.101  51.874  1.00  0.00     0.278 HD
HETATM   13  H   UNL     1       4.038  26.962  51.428  1.00  0.00     0.278 HD
HETATM   14  C   UNL     1       3.964  27.315  53.474  1.00  0.00     0.269 C 
HETATM   15  C   UNL     1       4.215  30.282  57.497  1.00  0.00     0.033 A 
HETATM   16  C   UNL     1       4.505  31.639  57.695  1.00  0.00     0.039 A 
ENDROOT
BRANCH  14  17
HETATM   17  C   UNL     1       5.057  26.276  53.657  1.00  0.00    -0.019 A 
HETATM   18  C   UNL     1       5.973  26.330  54.725  1.00  0.00     0.049 A 
HETATM   19  C   UNL     1       6.996  25.383  54.852  1.00  0.00     0.102 A 
HETATM   20  C   UNL     1       7.132  24.373  53.883  1.00  0.00     0.102 A 
HETATM   21  C   UNL     1       6.225  24.306  52.825  1.00  0.00     0.040 A 
HETATM   22  C   UNL     1       5.200  25.251  52.709  1.00  0.00     0.012 A 
BRANCH  19  23
HETATM   23  O   UNL     1       7.929  25.387  55.856  1.00  0.00    -0.353 OA
HETATM   24  C   UNL     1       7.467  25.326  57.199  1.00  0.00     0.210 C 
ENDBRANCH  19  23
BRANCH  20  25
HETATM   25  O   UNL     1       8.147  23.475  54.085  1.00  0.00    -0.343 OA
BRANCH  25  26
HETATM   26  C   UNL     1       7.819  22.115  54.345  1.00  0.00     0.129 C 
HETATM   27  C   UNL     1       8.768  21.137  53.653  1.00  0.00     0.032 C 
HETATM   28  C   UNL     1       8.718  19.910  54.542  1.00  0.00     0.002 C 
HETATM   29  C   UNL     1       8.749  20.497  55.944  1.00  0.00     0.002 C 
HETATM   30  C   UNL     1       8.018  21.835  55.843  1.00  0.00     0.032 C 
ENDBRANCH  25  26
ENDBRANCH  20  25
ENDBRANCH  14  17
BRANCH   1  31
HETATM   31  O   UNL     1       5.078  33.816  56.701  1.00  0.00    -0.356 OA
HETATM   32  C   UNL     1       5.076  34.554  55.485  1.00  0.00     0.210 C 
ENDBRANCH   1  31
TORSDOF 5
ENDMDL
MODEL 5
REMARK VINA RESULT:      -8.8      3.871      6.925
REMARK  5 active torsions:
REMARK  status: ('A' for Active; 'I' for Inactive)
REMARK    1  A    between atoms: O_2  and  C_3 
REMARK    2  A    between atoms: C_16  and  C_17 
REMARK    3  A    between atoms: C_19  and  O_20 
REMARK    4  A    between atoms: C_22  and  O_23 
REMARK    5  A    between atoms: O_23  and  C_24 
ROOT
HETATM    1  C   UNL     1       4.653  27.361  49.774  1.00  0.00     0.069 A 
HETATM    2  C   UNL     1       5.390  26.595  50.687  1.00  0.00     0.051 A 
HETATM    3  C   UNL     1       5.206  26.781  52.070  1.00  0.00     0.002 A 
HETATM    4  C   UNL     1       4.278  27.728  52.500  1.00  0.00     0.043 A 
HETATM    5  N   UNL     1       4.287  27.730  53.880  1.00  0.00    -0.356 N 
HETATM    6  H   UNL     1       3.715  28.348  54.443  1.00  0.00     0.166 HD
HETATM    7  C   UNL     1       5.207  26.819  54.332  1.00  0.00     0.052 A 
HETATM    8  C   UNL     1       5.783  26.208  53.233  1.00  0.00    -0.019 A 
HETATM    9  C   UNL     1       6.827  25.152  53.368  1.00  0.00     0.069 C 
HETATM   10  C   UNL     1       7.450  25.185  54.775  1.00  0.00     0.238 C 
HETATM   11  N   UNL     1       6.386  25.317  55.840  1.00  0.00    -0.061 N 
HETATM   12  H   UNL     1       5.748  24.519  55.762  1.00  0.00     0.278 HD
HETATM   13  H   UNL     1       6.818  25.272  56.769  1.00  0.00     0.278 HD
HETATM   14  C   UNL     1       5.548  26.571  55.761  1.00  0.00     0.269 C 
HETATM   15  C   UNL     1       3.523  28.497  51.608  1.00  0.00     0.033 A 
HETATM   16  C   UNL     1       3.729  28.296  50.236  1.00  0.00     0.039 A 
ENDROOT
BRANCH  14  17
HETATM   17  C   UNL     1       6.233  27.730  56.463  1.00  0.00    -0.019 A 
HETATM   18  C   UNL     1       7.635  27.835  56.548  1.00  0.00     0.049 A 
HETATM   19  C   UNL     1       8.242  28.893  57.234  1.00  0.00     0.102 A 
HETATM   20  C   UNL     1       7.443  29.855  57.877  1.00  0.00     0.102 A 
HETATM   21  C   UNL     1       6.054  29.765  57.792  1.00  0.00     0.040 A 
HETATM   22  C   UNL     1       5.453  28.710  57.097  1.00  0.00     0.012 A 
BRANCH  19  23
HETATM   23  O   UNL     1       9.598  29.045  57.368  1.00  0.00    -0.353 OA
HETATM   24  C   UNL     1      10.314  29.641  56.294  1.00  0.00     0.210 C 
ENDBRANCH  19  23
BRANCH  20  25
HETATM   25  O   UNL     1       8.112  30.867  58.513  1.00  0.00    -0.343 OA
BRANCH  25  26
HETATM   26  C   UNL     1       8.164  30.869  59.935  1.00  0.00     0.129 C 
HETATM   27  C   UNL     1       9.505  31.367  60.475  1.00  0.00     0.032 C 
HETATM   28  C   UNL     1       9.146  31.933  61.836  1.00  0.00     0.002 C 
HETATM   29  C   UNL     1       7.847  32.676  61.570  1.00  0.00     0.002 C 
HETATM   30  C   UNL     1       7.143  31.887  60.467  1.00  0.00     0.032 C 
ENDBRANCH  25  26
ENDBRANCH  20  25
ENDBRANCH  14  17
BRANCH   1  31
HETATM   31  O   UNL     1       4.936  27.092  48.462  1.00  0.00    -0.356 OA
HETATM   32  C   UNL     1       3.978  26.329  47.737  1.00  0.00     0.210 C 
ENDBRANCH   1  31
TORSDOF 5
ENDMDL
MODEL 6
REMARK VINA RESULT:      -8.8      7.968     11.856
REMARK  5 active torsions:
REMARK  status: ('A' for Active; 'I' for Inactive)
REMARK    1  A    between atoms: O_2  and  C_3 
REMARK    2  A    between atoms: C_16  and  C_17 
REMARK    3  A    between atoms: C_19  and  O_20 
REMARK    4  A    between atoms: C_22  and  O_23 
REMARK    5  A    between atoms: O_23  and  C_24 
ROOT
HETATM    1  C   UNL     1       6.354  26.643  56.449  1.00  0.00     0.069 A 
HETATM    2  C   UNL     1       5.555  27.795  56.451  1.00  0.00     0.051 A 
HETATM    3  C   UNL     1       5.959  28.930  57.179  1.00  0.00     0.002 A 
HETATM    4  C   UNL     1       7.163  28.880  57.882  1.00  0.00     0.043 A 
HETATM    5  N   UNL     1       7.332  30.094  58.514  1.00  0.00    -0.356 N 
HETATM    6  H   UNL     1       8.121  30.310  59.111  1.00  0.00     0.166 HD
HETATM    7  C   UNL     1       6.260  30.905  58.241  1.00  0.00     0.052 A 
HETATM    8  C   UNL     1       5.400  30.214  57.407  1.00  0.00    -0.019 A 
HETATM    9  C   UNL     1       4.129  30.810  56.906  1.00  0.00     0.069 C 
HETATM   10  C   UNL     1       3.726  32.022  57.765  1.00  0.00     0.238 C 
HETATM   11  N   UNL     1       4.912  32.919  58.034  1.00  0.00    -0.061 N 
HETATM   12  H   UNL     1       5.286  33.240  57.135  1.00  0.00     0.278 HD
HETATM   13  H   UNL     1       4.607  33.751  58.551  1.00  0.00     0.278 HD
HETATM   14  C   UNL     1       6.049  32.274  58.788  1.00  0.00     0.269 C 
HETATM   15  C   UNL     1       7.981  27.745  57.887  1.00  0.00     0.033 A 
HETATM   16  C   UNL     1       7.554  26.627  57.158  1.00  0.00     0.039 A 
ENDROOT
BRANCH  14  17
HETATM   17  C   UNL     1       5.812  32.332  60.287  1.00  0.00    -0.019 A 
HETATM   18  C   UNL     1       4.536  32.558  60.838  1.00  0.00     0.049 A 
HETATM   19  C   UNL     1       4.348  32.646  62.222  1.00  0.00     0.102 A 
HETATM   20  C   UNL     1       5.455  32.535  63.081  1.00  0.00     0.102 A 
HETATM   21  C   UNL     1       6.723  32.303  62.547  1.00  0.00     0.040 A 
HETATM   22  C   UNL     1       6.902  32.208  61.163  1.00  0.00     0.012 A 
BRANCH  19  23
HETATM   23  O   UNL     1       3.138  32.880  62.821  1.00  0.00    -0.353 OA
HETATM   24  C   UNL     1       2.533  34.152  62.634  1.00  0.00     0.210 C 
ENDBRANCH  19  23
BRANCH  20  25
HETATM   25  O   UNL     1       5.188  32.616  64.423  1.00  0.00    -0.343 OA
BRANCH  25  26
HETATM   26  C   UNL     1       5.370  33.861  65.087  1.00  0.00     0.129 C 
HETATM   27  C   UNL     1       4.234  34.184  66.056  1.00  0.00     0.032 C 
HETATM   28  C   UNL     1       4.897  35.076  67.088  1.00  0.00     0.002 C 
HETATM   29  C   UNL     1       6.237  34.398  67.323  1.00  0.00     0.002 C 
HETATM   30  C   UNL     1       6.615  33.766  65.984  1.00  0.00     0.032 C 
ENDBRANCH  25  26
ENDBRANCH  20  25
ENDBRANCH  14  17
BRANCH   1  31
HETATM   31  O   UNL     1       5.841  25.608  55.714  1.00  0.00    -0.356 OA
HETATM   32  C   UNL     1       6.639  24.436  55.603  1.00  0.00     0.210 C 
ENDBRANCH   1  31
TORSDOF 5
ENDMDL
MODEL 7
REMARK VINA RESULT:      -8.6      3.044      5.748
REMARK  5 active torsions:
REMARK  status: ('A' for Active; 'I' for Inactive)
REMARK    1  A    between atoms: O_2  and  C_3 
REMARK    2  A    between atoms: C_16  and  C_17 
REMARK    3  A    between atoms: C_19  and  O_20 
REMARK    4  A    between atoms: C_22  and  O_23 
REMARK    5  A    between atoms: O_23  and  C_24 
ROOT
HETATM    1  C   UNL     1       3.586  29.410  49.463  1.00  0.00     0.069 A 
HETATM    2  C   UNL     1       4.413  28.325  49.785  1.00  0.00     0.051 A 
HETATM    3  C   UNL     1       4.401  27.793  51.088  1.00  0.00     0.002 A 
HETATM    4  C   UNL     1       3.549  28.363  52.034  1.00  0.00     0.043 A 
HETATM    5  N   UNL     1       3.723  27.681  53.221  1.00  0.00    -0.356 N 
HETATM    6  H   UNL     1       3.236  27.914  54.078  1.00  0.00     0.166 HD
HETATM    7  C   UNL     1       4.673  26.706  53.053  1.00  0.00     0.052 A 
HETATM    8  C   UNL     1       5.101  26.745  51.739  1.00  0.00    -0.019 A 
HETATM    9  C   UNL     1       6.133  25.807  51.212  1.00  0.00     0.069 C 
HETATM   10  C   UNL     1       6.921  25.166  52.367  1.00  0.00     0.238 C 
HETATM   11  N   UNL     1       5.996  24.708  53.471  1.00  0.00    -0.061 N 
HETATM   12  H   UNL     1       5.337  24.026  53.079  1.00  0.00     0.278 HD
HETATM   13  H   UNL     1       6.536  24.227  54.198  1.00  0.00     0.278 HD
HETATM   14  C   UNL     1       5.179  25.798  54.120  1.00  0.00     0.269 C 
HETATM   15  C   UNL     1       2.708  29.439  51.734  1.00  0.00     0.033 A 
HETATM   16  C   UNL     1       2.743  29.953  50.430  1.00  0.00     0.039 A 
ENDROOT
BRANCH  14  17
HETATM   17  C   UNL     1       5.965  26.486  55.223  1.00  0.00    -0.019 A 
HETATM   18  C   UNL     1       6.730  25.766  56.161  1.00  0.00     0.049 A 
HETATM   19  C   UNL     1       7.415  26.418  57.192  1.00  0.00     0.102 A 
HETATM   20  C   UNL     1       7.319  27.816  57.315  1.00  0.00     0.102 A 
HETATM   21  C   UNL     1       6.571  28.539  56.386  1.00  0.00     0.040 A 
HETATM   22  C   UNL     1       5.896  27.881  55.353  1.00  0.00     0.012 A 
BRANCH  19  23
HETATM   23  O   UNL     1       8.162  25.777  58.146  1.00  0.00    -0.353 OA
HETATM   24  C   UNL     1       8.940  24.657  57.746  1.00  0.00     0.210 C 
ENDBRANCH  19  23
BRANCH  20  25
HETATM   25  O   UNL     1       8.031  28.382  58.339  1.00  0.00    -0.343 OA
BRANCH  25  26
HETATM   26  C   UNL     1       8.248  29.789  58.331  1.00  0.00     0.129 C 
HETATM   27  C   UNL     1       8.539  30.349  59.722  1.00  0.00     0.032 C 
HETATM   28  C   UNL     1       9.375  31.581  59.436  1.00  0.00     0.002 C 
HETATM   29  C   UNL     1      10.317  31.113  58.339  1.00  0.00     0.002 C 
HETATM   30  C   UNL     1       9.525  30.088  57.529  1.00  0.00     0.032 C 
ENDBRANCH  25  26
ENDBRANCH  20  25
ENDBRANCH  14  17
BRANCH   1  31
HETATM   31  O   UNL     1       3.704  29.838  48.168  1.00  0.00    -0.356 OA
HETATM   32  C   UNL     1       4.654  30.866  47.911  1.00  0.00     0.210 C 
ENDBRANCH   1  31
TORSDOF 5
ENDMDL
MODEL 8
REMARK VINA RESULT:      -8.3      6.053      9.512
REMARK  5 active torsions:
REMARK  status: ('A' for Active; 'I' for Inactive)
REMARK    1  A    between atoms: O_2  and  C_3 
REMARK    2  A    between atoms: C_16  and  C_17 
REMARK    3  A    between atoms: C_19  and  O_20 
REMARK    4  A    between atoms: C_22  and  O_23 
REMARK    5  A    between atoms: O_23  and  C_24 
ROOT
HETATM    1  C   UNL     1       4.608  34.222  61.758  1.00  0.00     0.069 A 
HETATM    2  C   UNL     1       4.680  34.211  60.358  1.00  0.00     0.051 A 
HETATM    3  C   UNL     1       4.277  33.067  59.643  1.00  0.00     0.002 A 
HETATM    4  C   UNL     1       3.804  31.965  60.355  1.00  0.00     0.043 A 
HETATM    5  N   UNL     1       3.485  30.981  59.443  1.00  0.00    -0.356 N 
HETATM    6  H   UNL     1       3.139  30.065  59.705  1.00  0.00     0.166 HD
HETATM    7  C   UNL     1       3.758  31.426  58.175  1.00  0.00     0.052 A 
HETATM    8  C   UNL     1       4.238  32.719  58.268  1.00  0.00    -0.019 A 
HETATM    9  C   UNL     1       4.628  33.510  57.066  1.00  0.00     0.069 C 
HETATM   10  C   UNL     1       4.844  32.584  55.857  1.00  0.00     0.238 C 
HETATM   11  N   UNL     1       3.736  31.562  55.746  1.00  0.00    -0.061 N 
HETATM   12  H   UNL     1       2.845  32.060  55.647  1.00  0.00     0.278 HD
HETATM   13  H   UNL     1       3.867  30.999  54.899  1.00  0.00     0.278 HD
HETATM   14  C   UNL     1       3.600  30.630  56.926  1.00  0.00     0.269 C 
HETATM   15  C   UNL     1       3.714  31.957  61.751  1.00  0.00     0.033 A 
HETATM   16  C   UNL     1       4.126  33.107  62.440  1.00  0.00     0.039 A 
ENDROOT
BRANCH  14  17
HETATM   17  C   UNL     1       4.545  29.448  56.799  1.00  0.00    -0.019 A 
HETATM   18  C   UNL     1       5.771  29.389  57.491  1.00  0.00     0.049 A 
HETATM   19  C   UNL     1       6.644  28.307  57.328  1.00  0.00     0.102 A 
HETATM   20  C   UNL     1       6.308  27.271  56.439  1.00  0.00     0.102 A 
HETATM   21  C   UNL     1       5.092  27.315  55.756  1.00  0.00     0.040 A 
HETATM   22  C   UNL     1       4.221  28.396  55.929  1.00  0.00     0.012 A 
BRANCH  19  23
HETATM   23  O   UNL     1       7.856  28.195  57.957  1.00  0.00    -0.353 OA
HETATM   24  C   UNL     1       8.900  29.074  57.560  1.00  0.00     0.210 C 
ENDBRANCH  19  23
BRANCH  20  25
HETATM   25  O   UNL     1       7.205  26.240  56.348  1.00  0.00    -0.343 OA
BRANCH  25  26
HETATM   26  C   UNL     1       6.913  25.149  55.481  1.00  0.00     0.129 C 
HETATM   27  C   UNL     1       7.574  25.291  54.111  1.00  0.00     0.032 C 
HETATM   28  C   UNL     1       7.738  23.855  53.650  1.00  0.00     0.002 C 
HETATM   29  C   UNL     1       8.207  23.140  54.907  1.00  0.00     0.002 C 
HETATM   30  C   UNL     1       7.535  23.871  56.068  1.00  0.00     0.032 C 
ENDBRANCH  25  26
ENDBRANCH  20  25
ENDBRANCH  14  17
BRANCH   1  31
HETATM   31  O   UNL     1       5.042  35.388  62.330  1.00  0.00    -0.356 OA
HETATM   32  C   UNL     1       5.211  35.391  63.743  1.00  0.00     0.210 C 
ENDBRANCH   1  31
TORSDOF 5
ENDMDL
MODEL 9
REMARK VINA RESULT:      -8.2      1.979      2.811
REMARK  5 active torsions:
REMARK  status: ('A' for Active; 'I' for Inactive)
REMARK    1  A    between atoms: O_2  and  C_3 
REMARK    2  A    between atoms: C_16  and  C_17 
REMARK    3  A    between atoms: C_19  and  O_20 
REMARK    4  A    between atoms: C_22  and  O_23 
REMARK    5  A    between atoms: O_23  and  C_24 
ROOT
HETATM    1  C   UNL     1      -0.202  28.958  46.479  1.00  0.00     0.069 A 
HETATM    2  C   UNL     1       0.780  29.721  47.126  1.00  0.00     0.051 A 
HETATM    3  C   UNL     1       1.987  29.118  47.529  1.00  0.00     0.002 A 
HETATM    4  C   UNL     1       2.179  27.763  47.262  1.00  0.00     0.043 A 
HETATM    5  N   UNL     1       3.418  27.409  47.755  1.00  0.00    -0.356 N 
HETATM    6  H   UNL     1       3.792  26.469  47.710  1.00  0.00     0.166 HD
HETATM    7  C   UNL     1       4.007  28.502  48.339  1.00  0.00     0.052 A 
HETATM    8  C   UNL     1       3.148  29.577  48.203  1.00  0.00    -0.019 A 
HETATM    9  C   UNL     1       3.485  30.932  48.723  1.00  0.00     0.069 C 
HETATM   10  C   UNL     1       4.619  30.847  49.760  1.00  0.00     0.238 C 
HETATM   11  N   UNL     1       5.729  29.939  49.282  1.00  0.00    -0.061 N 
HETATM   12  H   UNL     1       6.093  30.311  48.398  1.00  0.00     0.278 HD
HETATM   13  H   UNL     1       6.500  29.949  49.957  1.00  0.00     0.278 HD
HETATM   14  C   UNL     1       5.325  28.506  49.033  1.00  0.00     0.269 C 
HETATM   15  C   UNL     1       1.218  26.984  46.609  1.00  0.00     0.033 A 
HETATM   16  C   UNL     1       0.023  27.607  46.223  1.00  0.00     0.039 A 
ENDROOT
BRANCH  14  17
HETATM   17  C   UNL     1       5.372  27.696  50.317  1.00  0.00    -0.019 A 
HETATM   18  C   UNL     1       5.845  28.235  51.529  1.00  0.00     0.049 A 
HETATM   19  C   UNL     1       5.916  27.457  52.690  1.00  0.00     0.102 A 
HETATM   20  C   UNL     1       5.535  26.105  52.644  1.00  0.00     0.102 A 
HETATM   21  C   UNL     1       5.057  25.563  51.451  1.00  0.00     0.040 A 
HETATM   22  C   UNL     1       4.981  26.348  50.296  1.00  0.00     0.012 A 
BRANCH  19  23
HETATM   23  O   UNL     1       6.380  27.915  53.895  1.00  0.00    -0.353 OA
HETATM   24  C   UNL     1       7.784  28.072  54.056  1.00  0.00     0.210 C 
ENDBRANCH  19  23
BRANCH  20  25
HETATM   25  O   UNL     1       5.616  25.415  53.825  1.00  0.00    -0.343 OA
BRANCH  25  26
HETATM   26  C   UNL     1       6.281  24.156  53.842  1.00  0.00     0.129 C 
HETATM   27  C   UNL     1       7.461  24.099  52.873  1.00  0.00     0.032 C 
HETATM   28  C   UNL     1       8.380  23.070  53.500  1.00  0.00     0.002 C 
HETATM   29  C   UNL     1       8.329  23.416  54.979  1.00  0.00     0.002 C 
HETATM   30  C   UNL     1       6.920  23.952  55.225  1.00  0.00     0.032 C 
ENDBRANCH  25  26
ENDBRANCH  20  25
ENDBRANCH  14  17
BRANCH   1  31
HETATM   31  O   UNL     1      -1.331  29.660  46.154  1.00  0.00    -0.356 OA
HETATM   32  C   UNL     1      -1.838  29.494  44.835  1.00  0.00     0.210 C 
ENDBRANCH   1  31
TORSDOF 5
ENDMDL
MODEL 10
REMARK VINA RESULT:      -8.1      3.520      4.603
REMARK  5 active torsions:
REMARK  status: ('A' for Active; 'I' for Inactive)
REMARK    1  A    between atoms: O_2  and  C_3 
REMARK    2  A    between atoms: C_16  and  C_17 
REMARK    3  A    between atoms: C_19  and  O_20 
REMARK    4  A    between atoms: C_22  and  O_23 
REMARK    5  A    between atoms: O_23  and  C_24 
ROOT
HETATM    1  C   UNL     1       5.964  33.364  47.731  1.00  0.00     0.069 A 
HETATM    2  C   UNL     1       5.276  32.154  47.570  1.00  0.00     0.051 A 
HETATM    3  C   UNL     1       4.963  31.367  48.694  1.00  0.00     0.002 A 
HETATM    4  C   UNL     1       5.344  31.823  49.956  1.00  0.00     0.043 A 
HETATM    5  N   UNL     1       4.938  30.885  50.882  1.00  0.00    -0.356 N 
HETATM    6  H   UNL     1       5.115  30.966  51.876  1.00  0.00     0.166 HD
HETATM    7  C   UNL     1       4.324  29.842  50.238  1.00  0.00     0.052 A 
HETATM    8  C   UNL     1       4.315  30.119  48.883  1.00  0.00    -0.019 A 
HETATM    9  C   UNL     1       3.711  29.190  47.886  1.00  0.00     0.069 C 
HETATM   10  C   UNL     1       3.543  27.785  48.491  1.00  0.00     0.238 C 
HETATM   11  N   UNL     1       2.965  27.855  49.885  1.00  0.00    -0.061 N 
HETATM   12  H   UNL     1       2.053  28.323  49.834  1.00  0.00     0.278 HD
HETATM   13  H   UNL     1       2.802  26.907  50.241  1.00  0.00     0.278 HD
HETATM   14  C   UNL     1       3.801  28.609  50.891  1.00  0.00     0.269 C 
HETATM   15  C   UNL     1       6.022  33.032  50.142  1.00  0.00     0.033 A 
HETATM   16  C   UNL     1       6.326  33.794  49.006  1.00  0.00     0.039 A 
ENDROOT
BRANCH  14  17
HETATM   17  C   UNL     1       4.862  27.711  51.501  1.00  0.00    -0.019 A 
HETATM   18  C   UNL     1       5.661  28.123  52.586  1.00  0.00     0.049 A 
HETATM   19  C   UNL     1       6.659  27.292  53.107  1.00  0.00     0.102 A 
HETATM   20  C   UNL     1       6.891  26.034  52.524  1.00  0.00     0.102 A 
HETATM   21  C   UNL     1       6.100  25.613  51.455  1.00  0.00     0.040 A 
HETATM   22  C   UNL     1       5.099  26.445  50.944  1.00  0.00     0.012 A 
BRANCH  19  23
HETATM   23  O   UNL     1       7.481  27.637  54.149  1.00  0.00    -0.353 OA
HETATM   24  C   UNL     1       6.900  27.795  55.436  1.00  0.00     0.210 C 
ENDBRANCH  19  23
BRANCH  20  25
HETATM   25  O   UNL     1       7.873  25.273  53.101  1.00  0.00    -0.343 OA
BRANCH  25  26
HETATM   26  C   UNL     1       7.515  24.046  53.728  1.00  0.00     0.129 C 
HETATM   27  C   UNL     1       7.958  22.823  52.926  1.00  0.00     0.032 C 
HETATM   28  C   UNL     1       8.127  21.752  53.987  1.00  0.00     0.002 C 
HETATM   29  C   UNL     1       8.813  22.495  55.122  1.00  0.00     0.002 C 
HETATM   30  C   UNL     1       8.282  23.926  55.054  1.00  0.00     0.032 C 
ENDBRANCH  25  26
ENDBRANCH  20  25
ENDBRANCH  14  17
BRANCH   1  31
HETATM   31  O   UNL     1       6.217  34.024  46.558  1.00  0.00    -0.356 OA
HETATM   32  C   UNL     1       7.544  33.954  46.051  1.00  0.00     0.210 C 
ENDBRANCH   1  31
TORSDOF 5
ENDMDL
