MODEL 1
REMARK VINA RESULT:     -11.4      0.000      0.000
REMARK  8 active torsions:
REMARK  status: ('A' for Active; 'I' for Inactive)
REMARK    1  A    between atoms: C_6  and  S_7 
REMARK    2  A    between atoms: S_7  and  C_8 
REMARK    3  A    between atoms: C_8  and  C_9 
REMARK       I    between atoms: C_9  and  N_10 
REMARK    4  A    between atoms: N_10  and  C_11 
REMARK    5  A    between atoms: C_24  and  C_25 
REMARK    6  A    between atoms: C_25  and  C_26 
REMARK       I    between atoms: C_26  and  N_27 
REMARK    7  A    between atoms: N_27  and  C_28 
REMARK    8  A    between atoms: C_28  and  C_29 
ROOT
HETATM    1  C   UNL     1      10.547  30.246  57.656  1.00  0.00     0.001 A 
HETATM    2  C   UNL     1       9.527  29.573  56.985  1.00  0.00     0.018 A 
HETATM    3  C   UNL     1       8.196  29.880  57.283  1.00  0.00     0.039 A 
HETATM    4  C   UNL     1       7.867  30.838  58.249  1.00  0.00     0.073 A 
HETATM    5  N   UNL     1       6.536  31.184  58.549  1.00  0.00    -0.223 NA
HETATM    6  C   UNL     1       5.596  30.607  57.869  1.00  0.00     0.178 A 
HETATM    7  N   UNL     1       5.826  29.646  56.897  1.00  0.00    -0.241 N 
HETATM    8  C   UNL     1       7.082  29.252  56.565  1.00  0.00     0.147 A 
HETATM    9  N   UNL     1       7.209  28.356  55.628  1.00  0.00    -0.256 NA
HETATM   10  C   UNL     1       4.950  28.915  56.130  1.00  0.00     0.257 C 
HETATM   11  O   UNL     1       3.733  28.856  56.189  1.00  0.00    -0.270 OA
HETATM   12  C   UNL     1       5.814  28.127  55.163  1.00  0.00     0.211 C 
HETATM   13  C   UNL     1       8.899  31.502  58.913  1.00  0.00     0.032 A 
HETATM   14  C   UNL     1      10.234  31.212  58.616  1.00  0.00     0.002 A 
ENDROOT
BRANCH  12  15
HETATM   15  C   UNL     1       5.383  26.673  55.081  1.00  0.00     0.140 C 
BRANCH  15  16
HETATM   16  C   UNL     1       5.865  25.735  56.162  1.00  0.00     0.220 C 
HETATM   17  N   UNL     1       7.212  25.466  56.115  1.00  0.00    -0.357 N 
HETATM   18  H   UNL     1       7.808  26.247  55.862  1.00  0.00     0.162 HD
HETATM   19  O   UNL     1       5.088  25.185  56.936  1.00  0.00    -0.274 OA
BRANCH  17  20
HETATM   20  C   UNL     1       7.780  24.440  56.960  1.00  0.00     0.161 C 
BRANCH  20  21
HETATM   21  C   UNL     1       7.996  23.128  56.240  1.00  0.00    -0.038 A 
HETATM   22  C   UNL     1       7.883  23.098  54.838  1.00  0.00     0.048 A 
HETATM   23  C   UNL     1       8.117  21.904  54.185  1.00  0.00     0.105 A 
HETATM   24  C   UNL     1       8.458  20.761  54.864  1.00  0.00     0.105 A 
HETATM   25  O   UNL     1       8.050  21.709  52.841  1.00  0.00    -0.323 OA
HETATM   26  O   UNL     1       8.641  19.698  54.037  1.00  0.00    -0.323 OA
HETATM   27  C   UNL     1       8.599  20.748  56.233  1.00  0.00     0.040 A 
HETATM   28  C   UNL     1       8.387  20.308  52.754  1.00  0.00     0.352 A 
HETATM   29  C   UNL     1       8.379  21.947  56.922  1.00  0.00     0.012 A 
ENDBRANCH  20  21
ENDBRANCH  17  20
ENDBRANCH  15  16
ENDBRANCH  12  15
BRANCH   6  30
HETATM   30  S   UNL     1       3.965  31.121  58.195  1.00  0.00    -0.082 SA
BRANCH  30  31
HETATM   31  C   UNL     1       4.322  32.810  58.759  1.00  0.00     0.185 C 
BRANCH  31  32
HETATM   32  C   UNL     1       4.535  32.835  60.263  1.00  0.00     0.232 C 
HETATM   33  N   UNL     1       5.782  33.324  60.625  1.00  0.00    -0.324 N 
HETATM   34  H   UNL     1       6.246  33.892  59.921  1.00  0.00     0.169 HD
HETATM   35  O   UNL     1       3.657  32.445  61.024  1.00  0.00    -0.272 OA
BRANCH  33  36
HETATM   36  C   UNL     1       6.313  33.383  61.932  1.00  0.00     0.073 A 
HETATM   37  C   UNL     1       5.846  34.224  62.951  1.00  0.00     0.143 A 
HETATM   38  F   UNL     1       4.758  34.989  62.792  1.00  0.00    -0.204 F 
HETATM   39  C   UNL     1       6.446  34.229  64.211  1.00  0.00     0.044 A 
HETATM   40  C   UNL     1       7.513  33.377  64.480  1.00  0.00     0.003 A 
HETATM   41  C   UNL     1       7.966  32.506  63.492  1.00  0.00     0.002 A 
HETATM   42  C   UNL     1       7.364  32.504  62.228  1.00  0.00     0.033 A 
ENDBRANCH  33  36
ENDBRANCH  31  32
ENDBRANCH  30  31
ENDBRANCH   6  30
TORSDOF 8
ENDMDL
MODEL 2
REMARK VINA RESULT:     -11.2      1.460      1.904
REMARK  8 active torsions:
REMARK  status: ('A' for Active; 'I' for Inactive)
REMARK    1  A    between atoms: C_6  and  S_7 
REMARK    2  A    between atoms: S_7  and  C_8 
REMARK    3  A    between atoms: C_8  and  C_9 
REMARK       I    between atoms: C_9  and  N_10 
REMARK    4  A    between atoms: N_10  and  C_11 
REMARK    5  A    between atoms: C_24  and  C_25 
REMARK    6  A    between atoms: C_25  and  C_26 
REMARK       I    between atoms: C_26  and  N_27 
REMARK    7  A    between atoms: N_27  and  C_28 
REMARK    8  A    between atoms: C_28  and  C_29 
ROOT
HETATM    1  C   UNL     1      10.135  30.810  58.779  1.00  0.00     0.001 A 
HETATM    2  C   UNL     1       9.156  30.179  58.012  1.00  0.00     0.018 A 
HETATM    3  C   UNL     1       7.826  30.589  58.133  1.00  0.00     0.039 A 
HETATM    4  C   UNL     1       7.454  31.611  59.015  1.00  0.00     0.073 A 
HETATM    5  N   UNL     1       6.126  32.061  59.136  1.00  0.00    -0.223 NA
HETATM    6  C   UNL     1       5.234  31.519  58.368  1.00  0.00     0.178 A 
HETATM    7  N   UNL     1       5.509  30.501  57.467  1.00  0.00    -0.241 N 
HETATM    8  C   UNL     1       6.762  30.007  57.307  1.00  0.00     0.147 A 
HETATM    9  N   UNL     1       6.935  29.063  56.427  1.00  0.00    -0.256 NA
HETATM   10  C   UNL     1       4.679  29.798  56.626  1.00  0.00     0.257 C 
HETATM   11  O   UNL     1       3.463  29.825  56.537  1.00  0.00    -0.270 OA
HETATM   12  C   UNL     1       5.592  28.909  55.802  1.00  0.00     0.211 C 
HETATM   13  C   UNL     1       8.446  32.232  59.776  1.00  0.00     0.032 A 
HETATM   14  C   UNL     1       9.781  31.838  59.657  1.00  0.00     0.002 A 
ENDROOT
BRANCH  12  15
HETATM   15  C   UNL     1       5.069  27.486  55.722  1.00  0.00     0.140 C 
BRANCH  15  16
HETATM   16  C   UNL     1       5.565  26.616  54.592  1.00  0.00     0.220 C 
HETATM   17  N   UNL     1       6.887  26.252  54.700  1.00  0.00    -0.357 N 
HETATM   18  H   UNL     1       7.210  26.045  55.638  1.00  0.00     0.162 HD
HETATM   19  O   UNL     1       4.866  26.359  53.617  1.00  0.00    -0.274 OA
BRANCH  17  20
HETATM   20  C   UNL     1       7.551  25.586  53.603  1.00  0.00     0.161 C 
BRANCH  20  21
HETATM   21  C   UNL     1       7.788  24.114  53.854  1.00  0.00    -0.038 A 
HETATM   22  C   UNL     1       7.969  23.674  55.178  1.00  0.00     0.048 A 
HETATM   23  C   UNL     1       8.149  22.324  55.403  1.00  0.00     0.105 A 
HETATM   24  C   UNL     1       8.150  21.411  54.378  1.00  0.00     0.105 A 
HETATM   25  O   UNL     1       8.337  21.740  56.618  1.00  0.00    -0.323 OA
HETATM   26  O   UNL     1       8.346  20.138  54.812  1.00  0.00    -0.323 OA
HETATM   27  C   UNL     1       7.956  21.794  53.069  1.00  0.00     0.040 A 
HETATM   28  C   UNL     1       8.457  20.353  56.235  1.00  0.00     0.352 A 
HETATM   29  C   UNL     1       7.760  23.155  52.811  1.00  0.00     0.012 A 
ENDBRANCH  20  21
ENDBRANCH  17  20
ENDBRANCH  15  16
ENDBRANCH  12  15
BRANCH   6  30
HETATM   30  S   UNL     1       3.618  32.158  58.471  1.00  0.00    -0.082 SA
BRANCH  30  31
HETATM   31  C   UNL     1       3.266  31.724  60.199  1.00  0.00     0.185 C 
BRANCH  31  32
HETATM   32  C   UNL     1       4.002  32.660  61.143  1.00  0.00     0.232 C 
HETATM   33  N   UNL     1       4.876  31.996  61.991  1.00  0.00    -0.324 N 
HETATM   34  H   UNL     1       5.165  31.072  61.679  1.00  0.00     0.169 HD
HETATM   35  O   UNL     1       3.797  33.869  61.109  1.00  0.00    -0.272 OA
BRANCH  33  36
HETATM   36  C   UNL     1       5.630  32.572  63.038  1.00  0.00     0.073 A 
HETATM   37  C   UNL     1       5.092  33.293  64.112  1.00  0.00     0.143 A 
HETATM   38  F   UNL     1       3.770  33.410  64.293  1.00  0.00    -0.204 F 
HETATM   39  C   UNL     1       5.917  33.844  65.093  1.00  0.00     0.044 A 
HETATM   40  C   UNL     1       7.296  33.665  65.028  1.00  0.00     0.003 A 
HETATM   41  C   UNL     1       7.845  32.918  63.989  1.00  0.00     0.002 A 
HETATM   42  C   UNL     1       7.016  32.368  63.004  1.00  0.00     0.033 A 
ENDBRANCH  33  36
ENDBRANCH  31  32
ENDBRANCH  30  31
ENDBRANCH   6  30
TORSDOF 8
ENDMDL
MODEL 3
REMARK VINA RESULT:     -11.1      4.154     10.822
REMARK  8 active torsions:
REMARK  status: ('A' for Active; 'I' for Inactive)
REMARK    1  A    between atoms: C_6  and  S_7 
REMARK    2  A    between atoms: S_7  and  C_8 
REMARK    3  A    between atoms: C_8  and  C_9 
REMARK       I    between atoms: C_9  and  N_10 
REMARK    4  A    between atoms: N_10  and  C_11 
REMARK    5  A    between atoms: C_24  and  C_25 
REMARK    6  A    between atoms: C_25  and  C_26 
REMARK       I    between atoms: C_26  and  N_27 
REMARK    7  A    between atoms: N_27  and  C_28 
REMARK    8  A    between atoms: C_28  and  C_29 
ROOT
HETATM    1  C   UNL     1       8.714  23.968  57.038  1.00  0.00     0.001 A 
HETATM    2  C   UNL     1       8.657  25.315  57.393  1.00  0.00     0.018 A 
HETATM    3  C   UNL     1       7.636  26.115  56.872  1.00  0.00     0.039 A 
HETATM    4  C   UNL     1       6.677  25.595  55.994  1.00  0.00     0.073 A 
HETATM    5  N   UNL     1       5.624  26.371  55.477  1.00  0.00    -0.223 NA
HETATM    6  C   UNL     1       5.536  27.603  55.868  1.00  0.00     0.178 A 
HETATM    7  N   UNL     1       6.438  28.204  56.732  1.00  0.00    -0.241 N 
HETATM    8  C   UNL     1       7.487  27.522  57.258  1.00  0.00     0.147 A 
HETATM    9  N   UNL     1       8.277  28.158  58.075  1.00  0.00    -0.256 NA
HETATM   10  C   UNL     1       6.511  29.495  57.201  1.00  0.00     0.257 C 
HETATM   11  O   UNL     1       5.850  30.471  56.887  1.00  0.00    -0.270 OA
HETATM   12  C   UNL     1       7.643  29.499  58.211  1.00  0.00     0.211 C 
HETATM   13  C   UNL     1       6.748  24.244  55.649  1.00  0.00     0.032 A 
HETATM   14  C   UNL     1       7.759  23.432  56.170  1.00  0.00     0.002 A 
ENDROOT
BRANCH  12  15
HETATM   15  C   UNL     1       8.571  30.683  58.011  1.00  0.00     0.140 C 
BRANCH  15  16
HETATM   16  C   UNL     1       9.128  31.357  59.243  1.00  0.00     0.220 C 
HETATM   17  N   UNL     1       8.805  30.730  60.423  1.00  0.00    -0.357 N 
HETATM   18  H   UNL     1       8.800  29.717  60.395  1.00  0.00     0.162 HD
HETATM   19  O   UNL     1       9.721  32.430  59.182  1.00  0.00    -0.274 OA
BRANCH  17  20
HETATM   20  C   UNL     1       9.101  31.363  61.688  1.00  0.00     0.161 C 
BRANCH  20  21
HETATM   21  C   UNL     1       7.864  31.810  62.435  1.00  0.00    -0.038 A 
HETATM   22  C   UNL     1       8.020  32.546  63.624  1.00  0.00     0.048 A 
HETATM   23  C   UNL     1       6.887  32.982  64.281  1.00  0.00     0.105 A 
HETATM   24  C   UNL     1       5.626  32.721  63.804  1.00  0.00     0.105 A 
HETATM   25  O   UNL     1       6.866  33.701  65.435  1.00  0.00    -0.323 OA
HETATM   26  O   UNL     1       4.651  33.234  64.599  1.00  0.00    -0.323 OA
HETATM   27  C   UNL     1       5.426  32.022  62.635  1.00  0.00     0.040 A 
HETATM   28  C   UNL     1       5.445  33.861  65.629  1.00  0.00     0.352 A 
HETATM   29  C   UNL     1       6.557  31.577  61.940  1.00  0.00     0.012 A 
ENDBRANCH  20  21
ENDBRANCH  17  20
ENDBRANCH  15  16
ENDBRANCH  12  15
BRANCH   6  30
HETATM   30  S   UNL     1       4.170  28.515  55.287  1.00  0.00    -0.082 SA
BRANCH  30  31
HETATM   31  C   UNL     1       4.948  29.265  53.828  1.00  0.00     0.185 C 
BRANCH  31  32
HETATM   32  C   UNL     1       4.282  28.769  52.555  1.00  0.00     0.232 C 
HETATM   33  N   UNL     1       5.193  28.400  51.577  1.00  0.00    -0.324 N 
HETATM   34  H   UNL     1       6.129  28.188  51.913  1.00  0.00     0.169 HD
HETATM   35  O   UNL     1       3.060  28.728  52.467  1.00  0.00    -0.272 OA
BRANCH  33  36
HETATM   36  C   UNL     1       4.889  27.989  50.260  1.00  0.00     0.073 A 
HETATM   37  C   UNL     1       4.735  26.660  49.848  1.00  0.00     0.143 A 
HETATM   38  F   UNL     1       4.762  25.642  50.720  1.00  0.00    -0.204 F 
HETATM   39  C   UNL     1       4.453  26.346  48.518  1.00  0.00     0.044 A 
HETATM   40  C   UNL     1       4.300  27.361  47.578  1.00  0.00     0.003 A 
HETATM   41  C   UNL     1       4.411  28.691  47.977  1.00  0.00     0.002 A 
HETATM   42  C   UNL     1       4.696  29.004  49.311  1.00  0.00     0.033 A 
ENDBRANCH  33  36
ENDBRANCH  31  32
ENDBRANCH  30  31
ENDBRANCH   6  30
TORSDOF 8
ENDMDL
MODEL 4
REMARK VINA RESULT:     -11.0      3.396     10.373
REMARK  8 active torsions:
REMARK  status: ('A' for Active; 'I' for Inactive)
REMARK    1  A    between atoms: C_6  and  S_7 
REMARK    2  A    between atoms: S_7  and  C_8 
REMARK    3  A    between atoms: C_8  and  C_9 
REMARK       I    between atoms: C_9  and  N_10 
REMARK    4  A    between atoms: N_10  and  C_11 
REMARK    5  A    between atoms: C_24  and  C_25 
REMARK    6  A    between atoms: C_25  and  C_26 
REMARK       I    between atoms: C_26  and  N_27 
REMARK    7  A    between atoms: N_27  and  C_28 
REMARK    8  A    between atoms: C_28  and  C_29 
ROOT
HETATM    1  C   UNL     1      10.193  30.558  58.203  1.00  0.00     0.001 A 
HETATM    2  C   UNL     1       8.804  30.455  58.156  1.00  0.00     0.018 A 
HETATM    3  C   UNL     1       8.203  29.831  57.059  1.00  0.00     0.039 A 
HETATM    4  C   UNL     1       8.966  29.317  56.003  1.00  0.00     0.073 A 
HETATM    5  N   UNL     1       8.387  28.660  54.901  1.00  0.00    -0.223 NA
HETATM    6  C   UNL     1       7.101  28.504  54.901  1.00  0.00     0.178 A 
HETATM    7  N   UNL     1       6.266  28.980  55.900  1.00  0.00    -0.241 N 
HETATM    8  C   UNL     1       6.751  29.636  56.984  1.00  0.00     0.147 A 
HETATM    9  N   UNL     1       5.898  30.034  57.885  1.00  0.00    -0.256 NA
HETATM   10  C   UNL     1       4.897  28.939  56.022  1.00  0.00     0.257 C 
HETATM   11  O   UNL     1       4.059  28.560  55.222  1.00  0.00    -0.270 OA
HETATM   12  C   UNL     1       4.593  29.510  57.395  1.00  0.00     0.211 C 
HETATM   13  C   UNL     1      10.355  29.428  56.066  1.00  0.00     0.032 A 
HETATM   14  C   UNL     1      10.968  30.042  57.161  1.00  0.00     0.002 A 
ENDROOT
BRANCH  12  15
HETATM   15  C   UNL     1       3.461  30.520  57.346  1.00  0.00     0.140 C 
BRANCH  15  16
HETATM   16  C   UNL     1       3.592  31.766  58.189  1.00  0.00     0.220 C 
HETATM   17  N   UNL     1       3.562  31.535  59.544  1.00  0.00    -0.357 N 
HETATM   18  H   UNL     1       4.035  30.695  59.858  1.00  0.00     0.162 HD
HETATM   19  O   UNL     1       3.613  32.887  57.690  1.00  0.00    -0.274 OA
BRANCH  17  20
HETATM   20  C   UNL     1       3.482  32.642  60.470  1.00  0.00     0.161 C 
BRANCH  20  21
HETATM   21  C   UNL     1       4.722  32.798  61.321  1.00  0.00    -0.038 A 
HETATM   22  C   UNL     1       4.572  32.990  62.707  1.00  0.00     0.048 A 
HETATM   23  C   UNL     1       5.709  33.095  63.483  1.00  0.00     0.105 A 
HETATM   24  C   UNL     1       6.967  33.014  62.940  1.00  0.00     0.105 A 
HETATM   25  O   UNL     1       5.736  33.281  64.830  1.00  0.00    -0.323 OA
HETATM   26  O   UNL     1       7.947  33.146  63.873  1.00  0.00    -0.323 OA
HETATM   27  C   UNL     1       7.162  32.808  61.593  1.00  0.00     0.040 A 
HETATM   28  C   UNL     1       7.158  33.308  65.071  1.00  0.00     0.352 A 
HETATM   29  C   UNL     1       6.027  32.686  60.783  1.00  0.00     0.012 A 
ENDBRANCH  20  21
ENDBRANCH  17  20
ENDBRANCH  15  16
ENDBRANCH  12  15
BRANCH   6  30
HETATM   30  S   UNL     1       6.421  27.606  53.573  1.00  0.00    -0.082 SA
BRANCH  30  31
HETATM   31  C   UNL     1       7.716  26.343  53.410  1.00  0.00     0.185 C 
BRANCH  31  32
HETATM   32  C   UNL     1       7.305  25.065  54.123  1.00  0.00     0.232 C 
HETATM   33  N   UNL     1       8.341  24.148  54.228  1.00  0.00    -0.324 N 
HETATM   34  H   UNL     1       9.275  24.537  54.136  1.00  0.00     0.169 HD
HETATM   35  O   UNL     1       6.159  24.922  54.536  1.00  0.00    -0.272 OA
BRANCH  33  36
HETATM   36  C   UNL     1       8.251  22.839  54.751  1.00  0.00     0.073 A 
HETATM   37  C   UNL     1       7.959  21.693  54.000  1.00  0.00     0.143 A 
HETATM   38  F   UNL     1       7.840  21.733  52.666  1.00  0.00    -0.204 F 
HETATM   39  C   UNL     1       7.872  20.439  54.606  1.00  0.00     0.044 A 
HETATM   40  C   UNL     1       8.097  20.306  55.973  1.00  0.00     0.003 A 
HETATM   41  C   UNL     1       8.426  21.429  56.729  1.00  0.00     0.002 A 
HETATM   42  C   UNL     1       8.511  22.686  56.120  1.00  0.00     0.033 A 
ENDBRANCH  33  36
ENDBRANCH  31  32
ENDBRANCH  30  31
ENDBRANCH   6  30
TORSDOF 8
ENDMDL
MODEL 5
REMARK VINA RESULT:     -11.0      4.609     11.098
REMARK  8 active torsions:
REMARK  status: ('A' for Active; 'I' for Inactive)
REMARK    1  A    between atoms: C_6  and  S_7 
REMARK    2  A    between atoms: S_7  and  C_8 
REMARK    3  A    between atoms: C_8  and  C_9 
REMARK       I    between atoms: C_9  and  N_10 
REMARK    4  A    between atoms: N_10  and  C_11 
REMARK    5  A    between atoms: C_24  and  C_25 
REMARK    6  A    between atoms: C_25  and  C_26 
REMARK       I    between atoms: C_26  and  N_27 
REMARK    7  A    between atoms: N_27  and  C_28 
REMARK    8  A    between atoms: C_28  and  C_29 
ROOT
HETATM    1  C   UNL     1       8.642  20.369  56.285  1.00  0.00     0.001 A 
HETATM    2  C   UNL     1       8.347  21.696  56.596  1.00  0.00     0.018 A 
HETATM    3  C   UNL     1       8.149  22.612  55.560  1.00  0.00     0.039 A 
HETATM    4  C   UNL     1       8.251  22.229  54.217  1.00  0.00     0.073 A 
HETATM    5  N   UNL     1       8.031  23.125  53.155  1.00  0.00    -0.223 NA
HETATM    6  C   UNL     1       7.686  24.338  53.453  1.00  0.00     0.178 A 
HETATM    7  N   UNL     1       7.561  24.807  54.752  1.00  0.00    -0.241 N 
HETATM    8  C   UNL     1       7.774  24.005  55.825  1.00  0.00     0.147 A 
HETATM    9  N   UNL     1       7.618  24.522  57.010  1.00  0.00    -0.256 NA
HETATM   10  C   UNL     1       7.254  26.060  55.229  1.00  0.00     0.257 C 
HETATM   11  O   UNL     1       7.115  27.108  54.620  1.00  0.00    -0.270 OA
HETATM   12  C   UNL     1       7.144  25.907  56.735  1.00  0.00     0.211 C 
HETATM   13  C   UNL     1       8.548  20.897  53.922  1.00  0.00     0.032 A 
HETATM   14  C   UNL     1       8.738  19.969  54.950  1.00  0.00     0.002 A 
ENDROOT
BRANCH  12  15
HETATM   15  C   UNL     1       7.887  27.009  57.468  1.00  0.00     0.140 C 
BRANCH  15  16
HETATM   16  C   UNL     1       7.215  28.357  57.581  1.00  0.00     0.220 C 
HETATM   17  N   UNL     1       8.074  29.393  57.863  1.00  0.00    -0.357 N 
HETATM   18  H   UNL     1       8.980  29.348  57.411  1.00  0.00     0.162 HD
HETATM   19  O   UNL     1       5.996  28.478  57.530  1.00  0.00    -0.274 OA
BRANCH  17  20
HETATM   20  C   UNL     1       7.554  30.701  58.190  1.00  0.00     0.161 C 
BRANCH  20  21
HETATM   21  C   UNL     1       7.809  31.101  59.627  1.00  0.00    -0.038 A 
HETATM   22  C   UNL     1       6.943  32.029  60.233  1.00  0.00     0.048 A 
HETATM   23  C   UNL     1       7.160  32.363  61.556  1.00  0.00     0.105 A 
HETATM   24  C   UNL     1       8.185  31.813  62.284  1.00  0.00     0.105 A 
HETATM   25  O   UNL     1       6.417  33.239  62.285  1.00  0.00    -0.323 OA
HETATM   26  O   UNL     1       8.225  32.277  63.561  1.00  0.00    -0.323 OA
HETATM   27  C   UNL     1       9.044  30.886  61.737  1.00  0.00     0.040 A 
HETATM   28  C   UNL     1       7.097  33.176  63.557  1.00  0.00     0.352 A 
HETATM   29  C   UNL     1       8.842  30.520  60.401  1.00  0.00     0.012 A 
ENDBRANCH  20  21
ENDBRANCH  17  20
ENDBRANCH  15  16
ENDBRANCH  12  15
BRANCH   6  30
HETATM   30  S   UNL     1       7.327  25.400  52.121  1.00  0.00    -0.082 SA
BRANCH  30  31
HETATM   31  C   UNL     1       5.521  25.215  52.106  1.00  0.00     0.185 C 
BRANCH  31  32
HETATM   32  C   UNL     1       4.872  26.379  51.376  1.00  0.00     0.232 C 
HETATM   33  N   UNL     1       4.667  26.125  50.027  1.00  0.00    -0.324 N 
HETATM   34  H   UNL     1       4.653  25.143  49.768  1.00  0.00     0.169 HD
HETATM   35  O   UNL     1       4.587  27.410  51.975  1.00  0.00    -0.272 OA
BRANCH  33  36
HETATM   36  C   UNL     1       4.174  27.037  49.068  1.00  0.00     0.073 A 
HETATM   37  C   UNL     1       4.818  28.218  48.677  1.00  0.00     0.143 A 
HETATM   38  F   UNL     1       6.041  28.536  49.121  1.00  0.00    -0.204 F 
HETATM   39  C   UNL     1       4.245  29.072  47.733  1.00  0.00     0.044 A 
HETATM   40  C   UNL     1       3.026  28.746  47.146  1.00  0.00     0.003 A 
HETATM   41  C   UNL     1       2.390  27.557  47.494  1.00  0.00     0.002 A 
HETATM   42  C   UNL     1       2.964  26.703  48.443  1.00  0.00     0.033 A 
ENDBRANCH  33  36
ENDBRANCH  31  32
ENDBRANCH  30  31
ENDBRANCH   6  30
TORSDOF 8
ENDMDL
MODEL 6
REMARK VINA RESULT:     -11.0      3.517     11.138
REMARK  8 active torsions:
REMARK  status: ('A' for Active; 'I' for Inactive)
REMARK    1  A    between atoms: C_6  and  S_7 
REMARK    2  A    between atoms: S_7  and  C_8 
REMARK    3  A    between atoms: C_8  and  C_9 
REMARK       I    between atoms: C_9  and  N_10 
REMARK    4  A    between atoms: N_10  and  C_11 
REMARK    5  A    between atoms: C_24  and  C_25 
REMARK    6  A    between atoms: C_25  and  C_26 
REMARK       I    between atoms: C_26  and  N_27 
REMARK    7  A    between atoms: N_27  and  C_28 
REMARK    8  A    between atoms: C_28  and  C_29 
ROOT
HETATM    1  C   UNL     1       3.785  33.114  56.113  1.00  0.00     0.001 A 
HETATM    2  C   UNL     1       4.914  32.579  56.733  1.00  0.00     0.018 A 
HETATM    3  C   UNL     1       5.096  31.194  56.741  1.00  0.00     0.039 A 
HETATM    4  C   UNL     1       4.164  30.331  56.150  1.00  0.00     0.073 A 
HETATM    5  N   UNL     1       4.337  28.935  56.121  1.00  0.00    -0.223 NA
HETATM    6  C   UNL     1       5.424  28.452  56.635  1.00  0.00     0.178 A 
HETATM    7  N   UNL     1       6.400  29.227  57.242  1.00  0.00    -0.241 N 
HETATM    8  C   UNL     1       6.294  30.578  57.321  1.00  0.00     0.147 A 
HETATM    9  N   UNL     1       7.265  31.231  57.893  1.00  0.00    -0.256 NA
HETATM   10  C   UNL     1       7.571  28.870  57.868  1.00  0.00     0.257 C 
HETATM   11  O   UNL     1       7.997  27.759  58.139  1.00  0.00    -0.270 OA
HETATM   12  C   UNL     1       8.266  30.175  58.210  1.00  0.00     0.211 C 
HETATM   13  C   UNL     1       3.040  30.882  55.534  1.00  0.00     0.032 A 
HETATM   14  C   UNL     1       2.851  32.267  55.511  1.00  0.00     0.002 A 
ENDROOT
BRANCH  12  15
HETATM   15  C   UNL     1       8.787  30.177  59.636  1.00  0.00     0.140 C 
BRANCH  15  16
HETATM   16  C   UNL     1       8.982  31.513  60.312  1.00  0.00     0.220 C 
HETATM   17  N   UNL     1       8.775  31.493  61.671  1.00  0.00    -0.357 N 
HETATM   18  H   UNL     1       9.101  30.663  62.153  1.00  0.00     0.162 HD
HETATM   19  O   UNL     1       9.199  32.537  59.672  1.00  0.00    -0.274 OA
BRANCH  17  20
HETATM   20  C   UNL     1       8.735  32.728  62.420  1.00  0.00     0.161 C 
BRANCH  20  21
HETATM   21  C   UNL     1       7.442  32.922  63.181  1.00  0.00    -0.038 A 
HETATM   22  C   UNL     1       7.501  33.376  64.511  1.00  0.00     0.048 A 
HETATM   23  C   UNL     1       6.316  33.586  65.188  1.00  0.00     0.105 A 
HETATM   24  C   UNL     1       5.096  33.368  64.597  1.00  0.00     0.105 A 
HETATM   25  O   UNL     1       6.202  34.021  66.472  1.00  0.00    -0.323 OA
HETATM   26  O   UNL     1       4.058  33.631  65.435  1.00  0.00    -0.323 OA
HETATM   27  C   UNL     1       4.990  32.944  63.292  1.00  0.00     0.040 A 
HETATM   28  C   UNL     1       4.766  34.051  66.620  1.00  0.00     0.352 A 
HETATM   29  C   UNL     1       6.175  32.733  62.577  1.00  0.00     0.012 A 
ENDBRANCH  20  21
ENDBRANCH  17  20
ENDBRANCH  15  16
ENDBRANCH  12  15
BRANCH   6  30
HETATM   30  S   UNL     1       5.657  26.732  56.502  1.00  0.00    -0.082 SA
BRANCH  30  31
HETATM   31  C   UNL     1       5.907  26.631  54.706  1.00  0.00     0.185 C 
BRANCH  31  32
HETATM   32  C   UNL     1       5.961  25.180  54.256  1.00  0.00     0.232 C 
HETATM   33  N   UNL     1       7.035  24.488  54.796  1.00  0.00    -0.324 N 
HETATM   34  H   UNL     1       7.436  24.894  55.637  1.00  0.00     0.169 HD
HETATM   35  O   UNL     1       5.114  24.732  53.492  1.00  0.00    -0.272 OA
BRANCH  33  36
HETATM   36  C   UNL     1       7.411  23.159  54.498  1.00  0.00     0.073 A 
HETATM   37  C   UNL     1       7.748  22.685  53.224  1.00  0.00     0.143 A 
HETATM   38  F   UNL     1       7.844  23.505  52.168  1.00  0.00    -0.204 F 
HETATM   39  C   UNL     1       8.088  21.347  53.020  1.00  0.00     0.044 A 
HETATM   40  C   UNL     1       8.118  20.463  54.094  1.00  0.00     0.003 A 
HETATM   41  C   UNL     1       7.823  20.924  55.375  1.00  0.00     0.002 A 
HETATM   42  C   UNL     1       7.480  22.265  55.577  1.00  0.00     0.033 A 
ENDBRANCH  33  36
ENDBRANCH  31  32
ENDBRANCH  30  31
ENDBRANCH   6  30
TORSDOF 8
ENDMDL
MODEL 7
REMARK VINA RESULT:     -10.9      4.745     11.421
REMARK  8 active torsions:
REMARK  status: ('A' for Active; 'I' for Inactive)
REMARK    1  A    between atoms: C_6  and  S_7 
REMARK    2  A    between atoms: S_7  and  C_8 
REMARK    3  A    between atoms: C_8  and  C_9 
REMARK       I    between atoms: C_9  and  N_10 
REMARK    4  A    between atoms: N_10  and  C_11 
REMARK    5  A    between atoms: C_24  and  C_25 
REMARK    6  A    between atoms: C_25  and  C_26 
REMARK       I    between atoms: C_26  and  N_27 
REMARK    7  A    between atoms: N_27  and  C_28 
REMARK    8  A    between atoms: C_28  and  C_29 
ROOT
HETATM    1  C   UNL     1       8.645  23.632  56.856  1.00  0.00     0.001 A 
HETATM    2  C   UNL     1       8.329  24.939  57.224  1.00  0.00     0.018 A 
HETATM    3  C   UNL     1       7.527  25.711  56.379  1.00  0.00     0.039 A 
HETATM    4  C   UNL     1       7.043  25.204  55.167  1.00  0.00     0.073 A 
HETATM    5  N   UNL     1       6.212  25.951  54.312  1.00  0.00    -0.223 NA
HETATM    6  C   UNL     1       5.865  27.138  54.696  1.00  0.00     0.178 A 
HETATM    7  N   UNL     1       6.296  27.724  55.877  1.00  0.00    -0.241 N 
HETATM    8  C   UNL     1       7.110  27.069  56.743  1.00  0.00     0.147 A 
HETATM    9  N   UNL     1       7.453  27.687  57.838  1.00  0.00    -0.256 NA
HETATM   10  C   UNL     1       6.059  28.974  56.399  1.00  0.00     0.257 C 
HETATM   11  O   UNL     1       5.489  29.927  55.896  1.00  0.00    -0.270 OA
HETATM   12  C   UNL     1       6.697  28.968  57.776  1.00  0.00     0.211 C 
HETATM   13  C   UNL     1       7.368  23.894  54.813  1.00  0.00     0.032 A 
HETATM   14  C   UNL     1       8.162  23.108  55.654  1.00  0.00     0.002 A 
ENDROOT
BRANCH  12  15
HETATM   15  C   UNL     1       7.517  30.222  58.021  1.00  0.00     0.140 C 
BRANCH  15  16
HETATM   16  C   UNL     1       8.327  30.295  59.293  1.00  0.00     0.220 C 
HETATM   17  N   UNL     1       7.639  30.801  60.371  1.00  0.00    -0.357 N 
HETATM   18  H   UNL     1       6.667  30.524  60.441  1.00  0.00     0.162 HD
HETATM   19  O   UNL     1       9.524  30.025  59.315  1.00  0.00    -0.274 OA
BRANCH  17  20
HETATM   20  C   UNL     1       8.336  31.111  61.599  1.00  0.00     0.161 C 
BRANCH  20  21
HETATM   21  C   UNL     1       7.523  31.966  62.546  1.00  0.00    -0.038 A 
HETATM   22  C   UNL     1       6.136  32.072  62.340  1.00  0.00     0.048 A 
HETATM   23  C   UNL     1       5.395  32.825  63.230  1.00  0.00     0.105 A 
HETATM   24  C   UNL     1       5.974  33.461  64.300  1.00  0.00     0.105 A 
HETATM   25  O   UNL     1       4.051  33.026  63.172  1.00  0.00    -0.323 OA
HETATM   26  O   UNL     1       5.073  34.149  65.048  1.00  0.00    -0.323 OA
HETATM   27  C   UNL     1       7.325  33.368  64.551  1.00  0.00     0.040 A 
HETATM   28  C   UNL     1       3.853  33.863  64.331  1.00  0.00     0.352 A 
HETATM   29  C   UNL     1       8.100  32.602  63.672  1.00  0.00     0.012 A 
ENDBRANCH  20  21
ENDBRANCH  17  20
ENDBRANCH  15  16
ENDBRANCH  12  15
BRANCH   6  30
HETATM   30  S   UNL     1       4.761  28.004  53.665  1.00  0.00    -0.082 SA
BRANCH  30  31
HETATM   31  C   UNL     1       5.714  27.922  52.121  1.00  0.00     0.185 C 
BRANCH  31  32
HETATM   32  C   UNL     1       4.951  27.139  51.065  1.00  0.00     0.232 C 
HETATM   33  N   UNL     1       4.338  27.955  50.125  1.00  0.00    -0.324 N 
HETATM   34  H   UNL     1       4.722  28.892  50.048  1.00  0.00     0.169 HD
HETATM   35  O   UNL     1       4.917  25.914  51.100  1.00  0.00    -0.272 OA
BRANCH  33  36
HETATM   36  C   UNL     1       3.484  27.535  49.080  1.00  0.00     0.073 A 
HETATM   37  C   UNL     1       3.866  26.714  48.012  1.00  0.00     0.143 A 
HETATM   38  F   UNL     1       5.083  26.158  47.949  1.00  0.00    -0.204 F 
HETATM   39  C   UNL     1       2.957  26.365  47.012  1.00  0.00     0.044 A 
HETATM   40  C   UNL     1       1.643  26.816  47.075  1.00  0.00     0.003 A 
HETATM   41  C   UNL     1       1.234  27.603  48.150  1.00  0.00     0.002 A 
HETATM   42  C   UNL     1       2.148  27.953  49.151  1.00  0.00     0.033 A 
ENDBRANCH  33  36
ENDBRANCH  31  32
ENDBRANCH  30  31
ENDBRANCH   6  30
TORSDOF 8
ENDMDL
MODEL 8
REMARK VINA RESULT:     -10.6      3.541      8.150
REMARK  8 active torsions:
REMARK  status: ('A' for Active; 'I' for Inactive)
REMARK    1  A    between atoms: C_6  and  S_7 
REMARK    2  A    between atoms: S_7  and  C_8 
REMARK    3  A    between atoms: C_8  and  C_9 
REMARK       I    between atoms: C_9  and  N_10 
REMARK    4  A    between atoms: N_10  and  C_11 
REMARK    5  A    between atoms: C_24  and  C_25 
REMARK    6  A    between atoms: C_25  and  C_26 
REMARK       I    between atoms: C_26  and  N_27 
REMARK    7  A    between atoms: N_27  and  C_28 
REMARK    8  A    between atoms: C_28  and  C_29 
ROOT
HETATM    1  C   UNL     1       7.605  32.583  62.002  1.00  0.00     0.001 A 
HETATM    2  C   UNL     1       6.874  32.469  60.820  1.00  0.00     0.018 A 
HETATM    3  C   UNL     1       7.270  31.535  59.860  1.00  0.00     0.039 A 
HETATM    4  C   UNL     1       8.392  30.718  60.054  1.00  0.00     0.073 A 
HETATM    5  N   UNL     1       8.796  29.751  59.116  1.00  0.00    -0.223 NA
HETATM    6  C   UNL     1       8.069  29.602  58.054  1.00  0.00     0.178 A 
HETATM    7  N   UNL     1       6.945  30.364  57.775  1.00  0.00    -0.241 N 
HETATM    8  C   UNL     1       6.505  31.325  58.627  1.00  0.00     0.147 A 
HETATM    9  N   UNL     1       5.430  31.983  58.296  1.00  0.00    -0.256 NA
HETATM   10  C   UNL     1       6.104  30.362  56.687  1.00  0.00     0.257 C 
HETATM   11  O   UNL     1       6.201  29.752  55.635  1.00  0.00    -0.270 OA
HETATM   12  C   UNL     1       4.989  31.332  57.031  1.00  0.00     0.211 C 
HETATM   13  C   UNL     1       9.113  30.845  61.242  1.00  0.00     0.032 A 
HETATM   14  C   UNL     1       8.721  31.770  62.214  1.00  0.00     0.002 A 
ENDROOT
BRANCH  12  15
HETATM   15  C   UNL     1       4.689  32.276  55.881  1.00  0.00     0.140 C 
BRANCH  15  16
HETATM   16  C   UNL     1       3.899  31.734  54.713  1.00  0.00     0.220 C 
HETATM   17  N   UNL     1       4.657  31.457  53.600  1.00  0.00    -0.357 N 
HETATM   18  H   UNL     1       5.573  31.063  53.779  1.00  0.00     0.162 HD
HETATM   19  O   UNL     1       2.675  31.659  54.739  1.00  0.00    -0.274 OA
BRANCH  17  20
HETATM   20  C   UNL     1       4.017  31.119  52.350  1.00  0.00     0.161 C 
BRANCH  20  21
HETATM   21  C   UNL     1       4.361  29.730  51.860  1.00  0.00    -0.038 A 
HETATM   22  C   UNL     1       4.401  28.675  52.790  1.00  0.00     0.048 A 
HETATM   23  C   UNL     1       4.680  27.403  52.330  1.00  0.00     0.105 A 
HETATM   24  C   UNL     1       4.913  27.147  51.002  1.00  0.00     0.105 A 
HETATM   25  O   UNL     1       4.755  26.281  53.096  1.00  0.00    -0.323 OA
HETATM   26  O   UNL     1       5.172  25.835  50.762  1.00  0.00    -0.323 OA
HETATM   27  C   UNL     1       4.865  28.145  50.054  1.00  0.00     0.040 A 
HETATM   28  C   UNL     1       5.063  25.290  52.093  1.00  0.00     0.352 A 
HETATM   29  C   UNL     1       4.573  29.443  50.489  1.00  0.00     0.012 A 
ENDBRANCH  20  21
ENDBRANCH  17  20
ENDBRANCH  15  16
ENDBRANCH  12  15
BRANCH   6  30
HETATM   30  S   UNL     1       8.537  28.335  56.955  1.00  0.00    -0.082 SA
BRANCH  30  31
HETATM   31  C   UNL     1       7.587  26.974  57.691  1.00  0.00     0.185 C 
BRANCH  31  32
HETATM   32  C   UNL     1       7.162  25.982  56.620  1.00  0.00     0.232 C 
HETATM   33  N   UNL     1       8.094  24.976  56.414  1.00  0.00    -0.324 N 
HETATM   34  H   UNL     1       8.745  24.824  57.181  1.00  0.00     0.169 HD
HETATM   35  O   UNL     1       6.093  26.117  56.034  1.00  0.00    -0.272 OA
BRANCH  33  36
HETATM   36  C   UNL     1       8.034  23.965  55.430  1.00  0.00     0.073 A 
HETATM   37  C   UNL     1       7.974  24.192  54.049  1.00  0.00     0.143 A 
HETATM   38  F   UNL     1       8.078  25.423  53.530  1.00  0.00    -0.204 F 
HETATM   39  C   UNL     1       7.897  23.129  53.147  1.00  0.00     0.044 A 
HETATM   40  C   UNL     1       7.899  21.818  53.612  1.00  0.00     0.003 A 
HETATM   41  C   UNL     1       7.996  21.572  54.980  1.00  0.00     0.002 A 
HETATM   42  C   UNL     1       8.071  22.639  55.883  1.00  0.00     0.033 A 
ENDBRANCH  33  36
ENDBRANCH  31  32
ENDBRANCH  30  31
ENDBRANCH   6  30
TORSDOF 8
ENDMDL
MODEL 9
REMARK VINA RESULT:     -10.4      2.934      6.218
REMARK  8 active torsions:
REMARK  status: ('A' for Active; 'I' for Inactive)
REMARK    1  A    between atoms: C_6  and  S_7 
REMARK    2  A    between atoms: S_7  and  C_8 
REMARK    3  A    between atoms: C_8  and  C_9 
REMARK       I    between atoms: C_9  and  N_10 
REMARK    4  A    between atoms: N_10  and  C_11 
REMARK    5  A    between atoms: C_24  and  C_25 
REMARK    6  A    between atoms: C_25  and  C_26 
REMARK       I    between atoms: C_26  and  N_27 
REMARK    7  A    between atoms: N_27  and  C_28 
REMARK    8  A    between atoms: C_28  and  C_29 
ROOT
HETATM    1  C   UNL     1       6.865  33.994  66.069  1.00  0.00     0.001 A 
HETATM    2  C   UNL     1       7.410  33.583  64.852  1.00  0.00     0.018 A 
HETATM    3  C   UNL     1       6.555  33.176  63.825  1.00  0.00     0.039 A 
HETATM    4  C   UNL     1       5.165  33.161  63.994  1.00  0.00     0.073 A 
HETATM    5  N   UNL     1       4.282  32.781  62.966  1.00  0.00    -0.223 NA
HETATM    6  C   UNL     1       4.793  32.471  61.817  1.00  0.00     0.178 A 
HETATM    7  N   UNL     1       6.154  32.455  61.558  1.00  0.00    -0.241 N 
HETATM    8  C   UNL     1       7.066  32.795  62.504  1.00  0.00     0.147 A 
HETATM    9  N   UNL     1       8.325  32.769  62.171  1.00  0.00    -0.256 NA
HETATM   10  C   UNL     1       6.849  32.109  60.423  1.00  0.00     0.257 C 
HETATM   11  O   UNL     1       6.439  31.624  59.381  1.00  0.00    -0.270 OA
HETATM   12  C   UNL     1       8.303  32.425  60.722  1.00  0.00     0.211 C 
HETATM   13  C   UNL     1       4.635  33.575  65.217  1.00  0.00     0.032 A 
HETATM   14  C   UNL     1       5.480  33.993  66.249  1.00  0.00     0.002 A 
ENDROOT
BRANCH  12  15
HETATM   15  C   UNL     1       9.222  31.289  60.307  1.00  0.00     0.140 C 
BRANCH  15  16
HETATM   16  C   UNL     1       9.585  31.176  58.846  1.00  0.00     0.220 C 
HETATM   17  N   UNL     1       9.012  30.102  58.205  1.00  0.00    -0.357 N 
HETATM   18  H   UNL     1       8.061  29.883  58.479  1.00  0.00     0.162 HD
HETATM   19  O   UNL     1      10.405  31.922  58.322  1.00  0.00    -0.274 OA
BRANCH  17  20
HETATM   20  C   UNL     1       9.418  29.754  56.863  1.00  0.00     0.161 C 
BRANCH  20  21
HETATM   21  C   UNL     1       8.635  28.598  56.283  1.00  0.00    -0.038 A 
HETATM   22  C   UNL     1       8.253  27.545  57.135  1.00  0.00     0.048 A 
HETATM   23  C   UNL     1       7.506  26.510  56.607  1.00  0.00     0.105 A 
HETATM   24  C   UNL     1       7.129  26.488  55.287  1.00  0.00     0.105 A 
HETATM   25  O   UNL     1       7.059  25.424  57.293  1.00  0.00    -0.323 OA
HETATM   26  O   UNL     1       6.404  25.383  54.971  1.00  0.00    -0.323 OA
HETATM   27  C   UNL     1       7.463  27.506  54.423  1.00  0.00     0.040 A 
HETATM   28  C   UNL     1       6.358  24.715  56.250  1.00  0.00     0.352 A 
HETATM   29  C   UNL     1       8.210  28.574  54.932  1.00  0.00     0.012 A 
ENDBRANCH  20  21
ENDBRANCH  17  20
ENDBRANCH  15  16
ENDBRANCH  12  15
BRANCH   6  30
HETATM   30  S   UNL     1       3.673  32.096  60.537  1.00  0.00    -0.082 SA
BRANCH  30  31
HETATM   31  C   UNL     1       2.819  33.696  60.448  1.00  0.00     0.185 C 
BRANCH  31  32
HETATM   32  C   UNL     1       3.814  34.817  60.193  1.00  0.00     0.232 C 
HETATM   33  N   UNL     1       3.911  35.706  61.253  1.00  0.00    -0.324 N 
HETATM   34  H   UNL     1       3.594  35.347  62.150  1.00  0.00     0.169 HD
HETATM   35  O   UNL     1       4.432  34.873  59.135  1.00  0.00    -0.272 OA
BRANCH  33  36
HETATM   36  C   UNL     1       4.673  36.895  61.284  1.00  0.00     0.073 A 
HETATM   37  C   UNL     1       5.713  37.160  62.184  1.00  0.00     0.143 A 
HETATM   38  F   UNL     1       6.150  36.235  63.050  1.00  0.00    -0.204 F 
HETATM   39  C   UNL     1       6.400  38.374  62.153  1.00  0.00     0.044 A 
HETATM   40  C   UNL     1       6.072  39.338  61.205  1.00  0.00     0.003 A 
HETATM   41  C   UNL     1       5.067  39.077  60.276  1.00  0.00     0.002 A 
HETATM   42  C   UNL     1       4.377  37.859  60.310  1.00  0.00     0.033 A 
ENDBRANCH  33  36
ENDBRANCH  31  32
ENDBRANCH  30  31
ENDBRANCH   6  30
TORSDOF 8
ENDMDL
MODEL 10
REMARK VINA RESULT:     -10.4      5.379      8.004
REMARK  8 active torsions:
REMARK  status: ('A' for Active; 'I' for Inactive)
REMARK    1  A    between atoms: C_6  and  S_7 
REMARK    2  A    between atoms: S_7  and  C_8 
REMARK    3  A    between atoms: C_8  and  C_9 
REMARK       I    between atoms: C_9  and  N_10 
REMARK    4  A    between atoms: N_10  and  C_11 
REMARK    5  A    between atoms: C_24  and  C_25 
REMARK    6  A    between atoms: C_25  and  C_26 
REMARK       I    between atoms: C_26  and  N_27 
REMARK    7  A    between atoms: N_27  and  C_28 
REMARK    8  A    between atoms: C_28  and  C_29 
ROOT
HETATM    1  C   UNL     1       8.026  22.112  53.610  1.00  0.00     0.001 A 
HETATM    2  C   UNL     1       7.548  23.361  53.213  1.00  0.00     0.018 A 
HETATM    3  C   UNL     1       7.409  24.373  54.166  1.00  0.00     0.039 A 
HETATM    4  C   UNL     1       7.728  24.156  55.513  1.00  0.00     0.073 A 
HETATM    5  N   UNL     1       7.622  25.166  56.488  1.00  0.00    -0.223 NA
HETATM    6  C   UNL     1       7.247  26.343  56.097  1.00  0.00     0.178 A 
HETATM    7  N   UNL     1       6.909  26.650  54.788  1.00  0.00    -0.241 N 
HETATM    8  C   UNL     1       6.973  25.724  53.798  1.00  0.00     0.147 A 
HETATM    9  N   UNL     1       6.655  26.101  52.592  1.00  0.00    -0.256 NA
HETATM   10  C   UNL     1       6.454  27.820  54.228  1.00  0.00     0.257 C 
HETATM   11  O   UNL     1       6.132  28.864  54.770  1.00  0.00    -0.270 OA
HETATM   12  C   UNL     1       6.391  27.560  52.734  1.00  0.00     0.211 C 
HETATM   13  C   UNL     1       8.204  22.901  55.894  1.00  0.00     0.032 A 
HETATM   14  C   UNL     1       8.357  21.884  54.948  1.00  0.00     0.002 A 
ENDROOT
BRANCH  12  15
HETATM   15  C   UNL     1       5.084  28.048  52.133  1.00  0.00     0.140 C 
BRANCH  15  16
HETATM   16  C   UNL     1       4.913  27.938  50.637  1.00  0.00     0.220 C 
HETATM   17  N   UNL     1       3.931  27.059  50.246  1.00  0.00    -0.357 N 
HETATM   18  H   UNL     1       3.098  27.045  50.823  1.00  0.00     0.162 HD
HETATM   19  O   UNL     1       5.667  28.508  49.855  1.00  0.00    -0.274 OA
BRANCH  17  20
HETATM   20  C   UNL     1       3.785  26.704  48.852  1.00  0.00     0.161 C 
BRANCH  20  21
HETATM   21  C   UNL     1       2.651  27.434  48.168  1.00  0.00    -0.038 A 
HETATM   22  C   UNL     1       1.925  26.767  47.163  1.00  0.00     0.048 A 
HETATM   23  C   UNL     1       0.868  27.426  46.568  1.00  0.00     0.105 A 
HETATM   24  C   UNL     1       0.511  28.701  46.932  1.00  0.00     0.105 A 
HETATM   25  O   UNL     1       0.071  26.924  45.587  1.00  0.00    -0.323 OA
HETATM   26  O   UNL     1      -0.551  29.167  46.223  1.00  0.00    -0.323 OA
HETATM   27  C   UNL     1       1.179  29.384  47.923  1.00  0.00     0.040 A 
HETATM   28  C   UNL     1      -0.829  28.032  45.377  1.00  0.00     0.352 A 
HETATM   29  C   UNL     1       2.249  28.736  48.553  1.00  0.00     0.012 A 
ENDBRANCH  20  21
ENDBRANCH  17  20
ENDBRANCH  15  16
ENDBRANCH  12  15
BRANCH   6  30
HETATM   30  S   UNL     1       7.215  27.596  57.305  1.00  0.00    -0.082 SA
BRANCH  30  31
HETATM   31  C   UNL     1       8.831  28.348  56.958  1.00  0.00     0.185 C 
BRANCH  31  32
HETATM   32  C   UNL     1       9.057  29.559  57.847  1.00  0.00     0.232 C 
HETATM   33  N   UNL     1       8.218  29.584  58.952  1.00  0.00    -0.324 N 
HETATM   34  H   UNL     1       7.818  28.686  59.212  1.00  0.00     0.169 HD
HETATM   35  O   UNL     1       9.907  30.395  57.559  1.00  0.00    -0.272 OA
BRANCH  33  36
HETATM   36  C   UNL     1       8.120  30.618  59.908  1.00  0.00     0.073 A 
HETATM   37  C   UNL     1       7.156  31.635  59.896  1.00  0.00     0.143 A 
HETATM   38  F   UNL     1       6.154  31.648  59.005  1.00  0.00    -0.204 F 
HETATM   39  C   UNL     1       7.147  32.630  60.874  1.00  0.00     0.044 A 
HETATM   40  C   UNL     1       8.091  32.614  61.895  1.00  0.00     0.003 A 
HETATM   41  C   UNL     1       9.034  31.589  61.946  1.00  0.00     0.002 A 
HETATM   42  C   UNL     1       9.043  30.593  60.963  1.00  0.00     0.033 A 
ENDBRANCH  33  36
ENDBRANCH  31  32
ENDBRANCH  30  31
ENDBRANCH   6  30
TORSDOF 8
ENDMDL
