MODEL 1
REMARK VINA RESULT:     -11.8      0.000      0.000
REMARK  6 active torsions:
REMARK  status: ('A' for Active; 'I' for Inactive)
REMARK    1  A    between atoms: N_4  and  C_5 
REMARK    2  A    between atoms: C_13  and  C_14 
REMARK    3  A    between atoms: C_18  and  C_19 
REMARK       I    between atoms: C_19  and  N_20 
REMARK    4  A    between atoms: N_20  and  N_21 
REMARK    5  A    between atoms: C_22  and  C_23 
REMARK    6  A    between atoms: C_24  and  O_25 
ROOT
HETATM    1  C   UNL     1       7.840  31.625  59.558  1.00  0.00     0.093 A 
HETATM    2  N   UNL     1       9.051  32.090  59.238  1.00  0.00    -0.173 NA
HETATM    3  N   UNL     1       9.455  31.286  58.243  1.00  0.00    -0.272 N 
HETATM    4  H   UNL     1      10.366  31.438  57.820  1.00  0.00     0.189 HD
HETATM    5  C   UNL     1       8.555  30.304  57.917  1.00  0.00     0.121 A 
HETATM    6  C   UNL     1       7.483  30.509  58.766  1.00  0.00     0.071 A 
ENDROOT
BRANCH   5   7
HETATM    7  C   UNL     1       8.854  29.341  56.888  1.00  0.00     0.289 C 
HETATM    8  N   UNL     1       7.748  28.796  56.251  1.00  0.00    -0.242 N 
HETATM    9  H   UNL     1       6.812  29.078  56.511  1.00  0.00     0.192 HD
HETATM   10  O   UNL     1      10.014  29.038  56.616  1.00  0.00    -0.264 OA
BRANCH   8  11
HETATM   11  N   UNL     1       7.924  27.840  55.297  1.00  0.00    -0.183 NA
HETATM   12  C   UNL     1       7.336  26.703  55.507  1.00  0.00     0.153 C 
BRANCH  12  13
HETATM   13  C   UNL     1       7.484  25.574  54.552  1.00  0.00     0.027 A 
HETATM   14  C   UNL     1       7.289  25.809  53.178  1.00  0.00     0.078 A 
HETATM   15  C   UNL     1       7.467  24.792  52.252  1.00  0.00     0.038 A 
HETATM   16  C   UNL     1       7.837  23.522  52.682  1.00  0.00     0.015 A 
HETATM   17  C   UNL     1       8.026  23.248  54.044  1.00  0.00    -0.025 A 
HETATM   18  C   UNL     1       7.849  24.272  55.015  1.00  0.00    -0.012 A 
HETATM   19  C   UNL     1       8.392  21.951  54.437  1.00  0.00     0.012 A 
HETATM   20  C   UNL     1       8.043  23.903  56.373  1.00  0.00     0.013 A 
HETATM   21  C   UNL     1       8.402  22.605  56.746  1.00  0.00     0.001 A 
HETATM   22  C   UNL     1       8.581  21.629  55.778  1.00  0.00     0.001 A 
BRANCH  14  23
HETATM   23  O   UNL     1       6.929  27.021  52.650  1.00  0.00    -0.360 OA
HETATM   24  H   UNL     1       6.837  27.672  53.383  1.00  0.00     0.217 HD
ENDBRANCH  14  23
ENDBRANCH  12  13
ENDBRANCH   8  11
ENDBRANCH   5   7
BRANCH   1  25
HETATM   25  C   UNL     1       7.033  32.200  60.633  1.00  0.00     0.045 C 
HETATM   26  C   UNL     1       5.839  32.936  60.495  1.00  0.00     0.066 C 
HETATM   27  C   UNL     1       5.117  33.354  59.267  1.00  0.00     0.073 C 
HETATM   28  N   UNL     1       5.329  33.260  61.685  1.00  0.00    -0.171 NA
HETATM   29  N   UNL     1       6.268  32.882  62.599  1.00  0.00    -0.237 N 
HETATM   30  C   UNL     1       7.261  32.116  61.998  1.00  0.00     0.047 C 
HETATM   31  C   UNL     1       8.300  31.327  62.712  1.00  0.00     0.071 C 
BRANCH  29  32
HETATM   32  C   UNL     1       6.106  33.295  63.958  1.00  0.00     0.058 A 
HETATM   33  C   UNL     1       4.805  33.458  64.469  1.00  0.00     0.031 A 
HETATM   34  C   UNL     1       4.603  33.863  65.790  1.00  0.00     0.002 A 
HETATM   35  C   UNL     1       5.694  34.126  66.612  1.00  0.00     0.000 A 
HETATM   36  C   UNL     1       6.987  33.996  66.110  1.00  0.00     0.002 A 
HETATM   37  C   UNL     1       7.195  33.587  64.788  1.00  0.00     0.031 A 
ENDBRANCH  29  32
ENDBRANCH   1  25
TORSDOF 6
ENDMDL
MODEL 2
REMARK VINA RESULT:     -11.6      1.578      2.548
REMARK  6 active torsions:
REMARK  status: ('A' for Active; 'I' for Inactive)
REMARK    1  A    between atoms: N_4  and  C_5 
REMARK    2  A    between atoms: C_13  and  C_14 
REMARK    3  A    between atoms: C_18  and  C_19 
REMARK       I    between atoms: C_19  and  N_20 
REMARK    4  A    between atoms: N_20  and  N_21 
REMARK    5  A    between atoms: C_22  and  C_23 
REMARK    6  A    between atoms: C_24  and  O_25 
ROOT
HETATM    1  C   UNL     1       7.564  32.202  60.153  1.00  0.00     0.093 A 
HETATM    2  N   UNL     1       8.769  32.714  59.888  1.00  0.00    -0.173 NA
HETATM    3  N   UNL     1       9.346  31.792  59.103  1.00  0.00    -0.272 N 
HETATM    4  H   UNL     1      10.289  31.952  58.760  1.00  0.00     0.189 HD
HETATM    5  C   UNL     1       8.564  30.693  58.862  1.00  0.00     0.121 A 
HETATM    6  C   UNL     1       7.385  30.940  59.540  1.00  0.00     0.071 A 
ENDROOT
BRANCH   5   7
HETATM    7  C   UNL     1       9.053  29.600  58.060  1.00  0.00     0.289 C 
HETATM    8  N   UNL     1       8.199  28.511  57.964  1.00  0.00    -0.242 N 
HETATM    9  H   UNL     1       7.302  28.515  58.432  1.00  0.00     0.192 HD
HETATM   10  O   UNL     1      10.153  29.652  57.514  1.00  0.00    -0.264 OA
BRANCH   8  11
HETATM   11  N   UNL     1       8.591  27.407  57.268  1.00  0.00    -0.183 NA
HETATM   12  C   UNL     1       7.649  26.595  56.899  1.00  0.00     0.153 C 
BRANCH  12  13
HETATM   13  C   UNL     1       7.960  25.341  56.165  1.00  0.00     0.027 A 
HETATM   14  C   UNL     1       8.455  24.234  56.879  1.00  0.00     0.078 A 
HETATM   15  C   UNL     1       8.710  23.031  56.236  1.00  0.00     0.038 A 
HETATM   16  C   UNL     1       8.479  22.916  54.869  1.00  0.00     0.015 A 
HETATM   17  C   UNL     1       8.000  24.001  54.124  1.00  0.00    -0.025 A 
HETATM   18  C   UNL     1       7.732  25.246  54.757  1.00  0.00    -0.012 A 
HETATM   19  C   UNL     1       7.788  23.844  52.744  1.00  0.00     0.012 A 
HETATM   20  C   UNL     1       7.266  26.298  53.924  1.00  0.00     0.013 A 
HETATM   21  C   UNL     1       7.065  26.126  52.551  1.00  0.00     0.001 A 
HETATM   22  C   UNL     1       7.322  24.897  51.962  1.00  0.00     0.001 A 
BRANCH  14  23
HETATM   23  O   UNL     1       8.712  24.241  58.224  1.00  0.00    -0.360 OA
HETATM   24  H   UNL     1       8.689  23.314  58.556  1.00  0.00     0.217 HD
ENDBRANCH  14  23
ENDBRANCH  12  13
ENDBRANCH   8  11
ENDBRANCH   5   7
BRANCH   1  25
HETATM   25  C   UNL     1       6.593  32.876  61.014  1.00  0.00     0.045 C 
HETATM   26  C   UNL     1       5.349  33.415  60.629  1.00  0.00     0.066 C 
HETATM   27  C   UNL     1       4.720  33.487  59.286  1.00  0.00     0.073 C 
HETATM   28  N   UNL     1       4.687  33.905  61.679  1.00  0.00    -0.171 NA
HETATM   29  N   UNL     1       5.560  33.836  62.724  1.00  0.00    -0.237 N 
HETATM   30  C   UNL     1       6.685  33.096  62.380  1.00  0.00     0.047 C 
HETATM   31  C   UNL     1       7.721  32.600  63.326  1.00  0.00     0.071 C 
BRANCH  29  32
HETATM   32  C   UNL     1       5.214  34.490  63.948  1.00  0.00     0.058 A 
HETATM   33  C   UNL     1       4.856  33.706  65.060  1.00  0.00     0.031 A 
HETATM   34  C   UNL     1       4.509  34.305  66.273  1.00  0.00     0.002 A 
HETATM   35  C   UNL     1       4.500  35.691  66.388  1.00  0.00     0.000 A 
HETATM   36  C   UNL     1       4.826  36.480  65.287  1.00  0.00     0.002 A 
HETATM   37  C   UNL     1       5.177  35.885  64.070  1.00  0.00     0.031 A 
ENDBRANCH  29  32
ENDBRANCH   1  25
TORSDOF 6
ENDMDL
MODEL 3
REMARK VINA RESULT:     -11.5      1.718      2.510
REMARK  6 active torsions:
REMARK  status: ('A' for Active; 'I' for Inactive)
REMARK    1  A    between atoms: N_4  and  C_5 
REMARK    2  A    between atoms: C_13  and  C_14 
REMARK    3  A    between atoms: C_18  and  C_19 
REMARK       I    between atoms: C_19  and  N_20 
REMARK    4  A    between atoms: N_20  and  N_21 
REMARK    5  A    between atoms: C_22  and  C_23 
REMARK    6  A    between atoms: C_24  and  O_25 
ROOT
HETATM    1  C   UNL     1       6.527  31.097  58.080  1.00  0.00     0.093 A 
HETATM    2  N   UNL     1       5.765  31.696  57.161  1.00  0.00    -0.173 NA
HETATM    3  N   UNL     1       5.567  30.745  56.235  1.00  0.00    -0.272 N 
HETATM    4  H   UNL     1       5.005  30.959  55.416  1.00  0.00     0.189 HD
HETATM    5  C   UNL     1       6.187  29.555  56.514  1.00  0.00     0.121 A 
HETATM    6  C   UNL     1       6.822  29.760  57.725  1.00  0.00     0.071 A 
ENDROOT
BRANCH   5   7
HETATM    7  C   UNL     1       6.094  28.443  55.602  1.00  0.00     0.289 C 
HETATM    8  N   UNL     1       6.707  27.275  56.033  1.00  0.00    -0.242 N 
HETATM    9  H   UNL     1       7.173  27.237  56.930  1.00  0.00     0.192 HD
HETATM   10  O   UNL     1       5.513  28.549  54.525  1.00  0.00    -0.264 OA
BRANCH   8  11
HETATM   11  N   UNL     1       6.717  26.181  55.221  1.00  0.00    -0.183 NA
HETATM   12  C   UNL     1       7.607  25.276  55.486  1.00  0.00     0.153 C 
BRANCH  12  13
HETATM   13  C   UNL     1       7.736  24.056  54.648  1.00  0.00     0.027 A 
HETATM   14  C   UNL     1       7.631  24.172  53.249  1.00  0.00     0.078 A 
HETATM   15  C   UNL     1       7.795  23.063  52.431  1.00  0.00     0.038 A 
HETATM   16  C   UNL     1       8.061  21.820  52.996  1.00  0.00     0.015 A 
HETATM   17  C   UNL     1       8.158  21.665  54.385  1.00  0.00    -0.025 A 
HETATM   18  C   UNL     1       7.993  22.784  55.247  1.00  0.00    -0.012 A 
HETATM   19  C   UNL     1       8.419  20.391  54.915  1.00  0.00     0.012 A 
HETATM   20  C   UNL     1       8.089  22.534  56.643  1.00  0.00     0.013 A 
HETATM   21  C   UNL     1       8.345  21.258  57.153  1.00  0.00     0.001 A 
HETATM   22  C   UNL     1       8.515  20.187  56.289  1.00  0.00     0.001 A 
BRANCH  14  23
HETATM   23  O   UNL     1       7.377  25.347  52.593  1.00  0.00    -0.360 OA
HETATM   24  H   UNL     1       6.431  25.362  52.323  1.00  0.00     0.217 HD
ENDBRANCH  14  23
ENDBRANCH  12  13
ENDBRANCH   8  11
ENDBRANCH   5   7
BRANCH   1  25
HETATM   25  C   UNL     1       7.013  31.788  59.274  1.00  0.00     0.045 C 
HETATM   26  C   UNL     1       8.355  32.045  59.616  1.00  0.00     0.066 C 
HETATM   27  C   UNL     1       9.605  31.663  58.912  1.00  0.00     0.073 C 
HETATM   28  N   UNL     1       8.440  32.751  60.746  1.00  0.00    -0.171 NA
HETATM   29  N   UNL     1       7.168  32.818  61.231  1.00  0.00    -0.237 N 
HETATM   30  C   UNL     1       6.256  32.351  60.291  1.00  0.00     0.047 C 
HETATM   31  C   UNL     1       4.779  32.503  60.364  1.00  0.00     0.071 C 
BRANCH  29  32
HETATM   32  C   UNL     1       6.965  33.330  62.550  1.00  0.00     0.058 A 
HETATM   33  C   UNL     1       6.190  34.493  62.716  1.00  0.00     0.031 A 
HETATM   34  C   UNL     1       5.970  35.027  63.988  1.00  0.00     0.002 A 
HETATM   35  C   UNL     1       6.531  34.419  65.106  1.00  0.00     0.000 A 
HETATM   36  C   UNL     1       7.323  33.283  64.952  1.00  0.00     0.002 A 
HETATM   37  C   UNL     1       7.544  32.742  63.681  1.00  0.00     0.031 A 
ENDBRANCH  29  32
ENDBRANCH   1  25
TORSDOF 6
ENDMDL
MODEL 4
REMARK VINA RESULT:     -11.2      2.731     11.596
REMARK  6 active torsions:
REMARK  status: ('A' for Active; 'I' for Inactive)
REMARK    1  A    between atoms: N_4  and  C_5 
REMARK    2  A    between atoms: C_13  and  C_14 
REMARK    3  A    between atoms: C_18  and  C_19 
REMARK       I    between atoms: C_19  and  N_20 
REMARK    4  A    between atoms: N_20  and  N_21 
REMARK    5  A    between atoms: C_22  and  C_23 
REMARK    6  A    between atoms: C_24  and  O_25 
ROOT
HETATM    1  C   UNL     1       6.240  27.416  55.309  1.00  0.00     0.093 A 
HETATM    2  N   UNL     1       6.849  28.502  54.825  1.00  0.00    -0.173 NA
HETATM    3  N   UNL     1       6.371  29.504  55.578  1.00  0.00    -0.272 N 
HETATM    4  H   UNL     1       6.689  30.453  55.402  1.00  0.00     0.189 HD
HETATM    5  C   UNL     1       5.461  29.109  56.524  1.00  0.00     0.121 A 
HETATM    6  C   UNL     1       5.360  27.739  56.369  1.00  0.00     0.071 A 
ENDROOT
BRANCH   5   7
HETATM    7  C   UNL     1       4.834  30.072  57.393  1.00  0.00     0.289 C 
HETATM    8  N   UNL     1       5.702  30.769  58.223  1.00  0.00    -0.242 N 
HETATM    9  H   UNL     1       6.697  30.593  58.194  1.00  0.00     0.192 HD
HETATM   10  O   UNL     1       3.618  30.242  57.384  1.00  0.00    -0.264 OA
BRANCH   8  11
HETATM   11  N   UNL     1       5.202  31.667  59.117  1.00  0.00    -0.183 NA
HETATM   12  C   UNL     1       6.072  32.362  59.782  1.00  0.00     0.153 C 
BRANCH  12  13
HETATM   13  C   UNL     1       5.645  33.347  60.809  1.00  0.00     0.027 A 
HETATM   14  C   UNL     1       4.576  34.217  60.521  1.00  0.00     0.078 A 
HETATM   15  C   UNL     1       4.117  35.117  61.472  1.00  0.00     0.038 A 
HETATM   16  C   UNL     1       4.720  35.167  62.724  1.00  0.00     0.015 A 
HETATM   17  C   UNL     1       5.796  34.326  63.041  1.00  0.00    -0.025 A 
HETATM   18  C   UNL     1       6.288  33.396  62.085  1.00  0.00    -0.012 A 
HETATM   19  C   UNL     1       6.382  34.415  64.314  1.00  0.00     0.012 A 
HETATM   20  C   UNL     1       7.392  32.595  62.483  1.00  0.00     0.013 A 
HETATM   21  C   UNL     1       7.966  32.700  63.753  1.00  0.00     0.001 A 
HETATM   22  C   UNL     1       7.458  33.607  64.671  1.00  0.00     0.001 A 
BRANCH  14  23
HETATM   23  O   UNL     1       3.911  34.245  59.323  1.00  0.00    -0.360 OA
HETATM   24  H   UNL     1       3.359  35.059  59.286  1.00  0.00     0.217 HD
ENDBRANCH  14  23
ENDBRANCH  12  13
ENDBRANCH   8  11
ENDBRANCH   5   7
BRANCH   1  25
HETATM   25  C   UNL     1       6.450  26.080  54.753  1.00  0.00     0.045 C 
HETATM   26  C   UNL     1       5.834  25.532  53.610  1.00  0.00     0.066 C 
HETATM   27  C   UNL     1       4.808  26.116  52.711  1.00  0.00     0.073 C 
HETATM   28  N   UNL     1       6.300  24.308  53.350  1.00  0.00    -0.171 NA
HETATM   29  N   UNL     1       7.098  23.988  54.408  1.00  0.00    -0.237 N 
HETATM   30  C   UNL     1       7.311  25.098  55.218  1.00  0.00     0.047 C 
HETATM   31  C   UNL     1       8.318  25.195  56.309  1.00  0.00     0.071 C 
BRANCH  29  32
HETATM   32  C   UNL     1       7.574  22.645  54.524  1.00  0.00     0.058 A 
HETATM   33  C   UNL     1       7.981  21.965  53.363  1.00  0.00     0.031 A 
HETATM   34  C   UNL     1       8.449  20.651  53.432  1.00  0.00     0.002 A 
HETATM   35  C   UNL     1       8.504  19.995  54.658  1.00  0.00     0.000 A 
HETATM   36  C   UNL     1       8.078  20.648  55.813  1.00  0.00     0.002 A 
HETATM   37  C   UNL     1       7.610  21.966  55.748  1.00  0.00     0.031 A 
ENDBRANCH  29  32
ENDBRANCH   1  25
TORSDOF 6
ENDMDL
MODEL 5
REMARK VINA RESULT:     -10.6      8.111     12.543
REMARK  6 active torsions:
REMARK  status: ('A' for Active; 'I' for Inactive)
REMARK    1  A    between atoms: N_4  and  C_5 
REMARK    2  A    between atoms: C_13  and  C_14 
REMARK    3  A    between atoms: C_18  and  C_19 
REMARK       I    between atoms: C_19  and  N_20 
REMARK    4  A    between atoms: N_20  and  N_21 
REMARK    5  A    between atoms: C_22  and  C_23 
REMARK    6  A    between atoms: C_24  and  O_25 
ROOT
HETATM    1  C   UNL     1       3.774  28.085  48.313  1.00  0.00     0.093 A 
HETATM    2  N   UNL     1       4.602  27.165  47.810  1.00  0.00    -0.173 NA
HETATM    3  N   UNL     1       5.310  26.751  48.872  1.00  0.00    -0.272 N 
HETATM    4  H   UNL     1       6.022  26.037  48.747  1.00  0.00     0.189 HD
HETATM    5  C   UNL     1       4.981  27.382  50.044  1.00  0.00     0.121 A 
HETATM    6  C   UNL     1       3.971  28.262  49.702  1.00  0.00     0.071 A 
ENDROOT
BRANCH   5   7
HETATM    7  C   UNL     1       5.672  27.070  51.269  1.00  0.00     0.289 C 
HETATM    8  N   UNL     1       6.412  25.896  51.245  1.00  0.00    -0.242 N 
HETATM    9  H   UNL     1       6.445  25.324  50.412  1.00  0.00     0.192 HD
HETATM   10  O   UNL     1       5.593  27.805  52.251  1.00  0.00    -0.264 OA
BRANCH   8  11
HETATM   11  N   UNL     1       7.062  25.487  52.371  1.00  0.00    -0.183 NA
HETATM   12  C   UNL     1       6.655  24.374  52.898  1.00  0.00     0.153 C 
BRANCH  12  13
HETATM   13  C   UNL     1       7.266  23.847  54.146  1.00  0.00     0.027 A 
HETATM   14  C   UNL     1       7.291  24.661  55.293  1.00  0.00     0.078 A 
HETATM   15  C   UNL     1       7.808  24.186  56.490  1.00  0.00     0.038 A 
HETATM   16  C   UNL     1       8.313  22.891  56.559  1.00  0.00     0.015 A 
HETATM   17  C   UNL     1       8.316  22.057  55.433  1.00  0.00    -0.025 A 
HETATM   18  C   UNL     1       7.794  22.519  54.194  1.00  0.00    -0.012 A 
HETATM   19  C   UNL     1       8.842  20.760  55.543  1.00  0.00     0.012 A 
HETATM   20  C   UNL     1       7.854  21.616  53.099  1.00  0.00     0.013 A 
HETATM   21  C   UNL     1       8.385  20.329  53.226  1.00  0.00     0.001 A 
HETATM   22  C   UNL     1       8.876  19.899  54.450  1.00  0.00     0.001 A 
BRANCH  14  23
HETATM   23  O   UNL     1       6.817  25.945  55.334  1.00  0.00    -0.360 OA
HETATM   24  H   UNL     1       6.783  26.300  54.416  1.00  0.00     0.217 HD
ENDBRANCH  14  23
ENDBRANCH  12  13
ENDBRANCH   8  11
ENDBRANCH   5   7
BRANCH   1  25
HETATM   25  C   UNL     1       2.825  28.829  47.485  1.00  0.00     0.045 C 
HETATM   26  C   UNL     1       3.070  30.026  46.784  1.00  0.00     0.066 C 
HETATM   27  C   UNL     1       4.298  30.859  46.726  1.00  0.00     0.073 C 
HETATM   28  N   UNL     1       2.001  30.402  46.079  1.00  0.00    -0.171 NA
HETATM   29  N   UNL     1       1.005  29.545  46.443  1.00  0.00    -0.237 N 
HETATM   30  C   UNL     1       1.510  28.495  47.202  1.00  0.00     0.047 C 
HETATM   31  C   UNL     1       0.776  27.252  47.560  1.00  0.00     0.071 C 
BRANCH  29  32
HETATM   32  C   UNL     1      -0.330  29.827  46.016  1.00  0.00     0.058 A 
HETATM   33  C   UNL     1      -1.129  30.678  46.802  1.00  0.00     0.031 A 
HETATM   34  C   UNL     1      -2.440  30.977  46.422  1.00  0.00     0.002 A 
HETATM   35  C   UNL     1      -2.974  30.420  45.265  1.00  0.00     0.000 A 
HETATM   36  C   UNL     1      -2.203  29.554  44.493  1.00  0.00     0.002 A 
HETATM   37  C   UNL     1      -0.888  29.253  44.867  1.00  0.00     0.031 A 
ENDBRANCH  29  32
ENDBRANCH   1  25
TORSDOF 6
ENDMDL
MODEL 6
REMARK VINA RESULT:     -10.5      2.413     11.886
REMARK  6 active torsions:
REMARK  status: ('A' for Active; 'I' for Inactive)
REMARK    1  A    between atoms: N_4  and  C_5 
REMARK    2  A    between atoms: C_13  and  C_14 
REMARK    3  A    between atoms: C_18  and  C_19 
REMARK       I    between atoms: C_19  and  N_20 
REMARK    4  A    between atoms: N_20  and  N_21 
REMARK    5  A    between atoms: C_22  and  C_23 
REMARK    6  A    between atoms: C_24  and  O_25 
ROOT
HETATM    1  C   UNL     1       6.984  27.886  56.573  1.00  0.00     0.093 A 
HETATM    2  N   UNL     1       5.755  28.363  56.789  1.00  0.00    -0.173 NA
HETATM    3  N   UNL     1       5.937  29.324  57.707  1.00  0.00    -0.272 N 
HETATM    4  H   UNL     1       5.134  29.848  58.043  1.00  0.00     0.189 HD
HETATM    5  C   UNL     1       7.239  29.476  58.107  1.00  0.00     0.121 A 
HETATM    6  C   UNL     1       7.948  28.543  57.373  1.00  0.00     0.071 A 
ENDROOT
BRANCH   5   7
HETATM    7  C   UNL     1       7.595  30.448  59.110  1.00  0.00     0.289 C 
HETATM    8  N   UNL     1       6.527  31.140  59.664  1.00  0.00    -0.242 N 
HETATM    9  H   UNL     1       5.579  30.950  59.367  1.00  0.00     0.192 HD
HETATM   10  O   UNL     1       8.766  30.634  59.430  1.00  0.00    -0.264 OA
BRANCH   8  11
HETATM   11  N   UNL     1       6.762  32.115  60.586  1.00  0.00    -0.183 NA
HETATM   12  C   UNL     1       5.933  32.178  61.581  1.00  0.00     0.153 C 
BRANCH  12  13
HETATM   13  C   UNL     1       6.069  33.222  62.630  1.00  0.00     0.027 A 
HETATM   14  C   UNL     1       7.132  33.134  63.549  1.00  0.00     0.078 A 
HETATM   15  C   UNL     1       7.322  34.116  64.511  1.00  0.00     0.038 A 
HETATM   16  C   UNL     1       6.451  35.198  64.574  1.00  0.00     0.015 A 
HETATM   17  C   UNL     1       5.374  35.311  63.684  1.00  0.00    -0.025 A 
HETATM   18  C   UNL     1       5.155  34.319  62.690  1.00  0.00    -0.012 A 
HETATM   19  C   UNL     1       4.513  36.416  63.788  1.00  0.00     0.012 A 
HETATM   20  C   UNL     1       4.030  34.502  61.842  1.00  0.00     0.013 A 
HETATM   21  C   UNL     1       3.181  35.606  61.963  1.00  0.00     0.001 A 
HETATM   22  C   UNL     1       3.425  36.566  62.934  1.00  0.00     0.001 A 
BRANCH  14  23
HETATM   23  O   UNL     1       8.047  32.114  63.569  1.00  0.00    -0.360 OA
HETATM   24  H   UNL     1       8.952  32.498  63.515  1.00  0.00     0.217 HD
ENDBRANCH  14  23
ENDBRANCH  12  13
ENDBRANCH   8  11
ENDBRANCH   5   7
BRANCH   1  25
HETATM   25  C   UNL     1       7.252  26.786  55.648  1.00  0.00     0.045 C 
HETATM   26  C   UNL     1       7.258  26.846  54.240  1.00  0.00     0.066 C 
HETATM   27  C   UNL     1       6.965  27.986  53.336  1.00  0.00     0.073 C 
HETATM   28  N   UNL     1       7.601  25.671  53.707  1.00  0.00    -0.171 NA
HETATM   29  N   UNL     1       7.660  24.799  54.753  1.00  0.00    -0.237 N 
HETATM   30  C   UNL     1       7.578  25.476  55.965  1.00  0.00     0.047 C 
HETATM   31  C   UNL     1       7.857  24.894  57.305  1.00  0.00     0.071 C 
BRANCH  29  32
HETATM   32  C   UNL     1       7.793  23.403  54.474  1.00  0.00     0.058 A 
HETATM   33  C   UNL     1       7.594  22.479  55.516  1.00  0.00     0.031 A 
HETATM   34  C   UNL     1       7.718  21.107  55.287  1.00  0.00     0.002 A 
HETATM   35  C   UNL     1       8.057  20.640  54.020  1.00  0.00     0.000 A 
HETATM   36  C   UNL     1       8.284  21.546  52.987  1.00  0.00     0.002 A 
HETATM   37  C   UNL     1       8.158  22.922  53.211  1.00  0.00     0.031 A 
ENDBRANCH  29  32
ENDBRANCH   1  25
TORSDOF 6
ENDMDL
MODEL 7
REMARK VINA RESULT:     -10.2      2.344      2.630
REMARK  6 active torsions:
REMARK  status: ('A' for Active; 'I' for Inactive)
REMARK    1  A    between atoms: N_4  and  C_5 
REMARK    2  A    between atoms: C_13  and  C_14 
REMARK    3  A    between atoms: C_18  and  C_19 
REMARK       I    between atoms: C_19  and  N_20 
REMARK    4  A    between atoms: N_20  and  N_21 
REMARK    5  A    between atoms: C_22  and  C_23 
REMARK    6  A    between atoms: C_24  and  O_25 
ROOT
HETATM    1  C   UNL     1       5.018  32.568  59.834  1.00  0.00     0.093 A 
HETATM    2  N   UNL     1       6.184  32.689  59.194  1.00  0.00    -0.173 NA
HETATM    3  N   UNL     1       6.096  31.802  58.191  1.00  0.00    -0.272 N 
HETATM    4  H   UNL     1       6.875  31.701  57.547  1.00  0.00     0.189 HD
HETATM    5  C   UNL     1       4.920  31.098  58.168  1.00  0.00     0.121 A 
HETATM    6  C   UNL     1       4.192  31.587  59.238  1.00  0.00     0.071 A 
ENDROOT
BRANCH   5   7
HETATM    7  C   UNL     1       4.685  30.086  57.169  1.00  0.00     0.289 C 
HETATM    8  N   UNL     1       5.076  28.803  57.527  1.00  0.00    -0.242 N 
HETATM    9  H   UNL     1       5.490  28.623  58.432  1.00  0.00     0.192 HD
HETATM   10  O   UNL     1       4.177  30.366  56.086  1.00  0.00    -0.264 OA
BRANCH   8  11
HETATM   11  N   UNL     1       4.941  27.785  56.632  1.00  0.00    -0.183 NA
HETATM   12  C   UNL     1       6.036  27.342  56.095  1.00  0.00     0.153 C 
BRANCH  12  13
HETATM   13  C   UNL     1       6.009  26.257  55.081  1.00  0.00     0.027 A 
HETATM   14  C   UNL     1       5.091  26.336  54.017  1.00  0.00     0.078 A 
HETATM   15  C   UNL     1       5.070  25.367  53.024  1.00  0.00     0.038 A 
HETATM   16  C   UNL     1       5.963  24.302  53.079  1.00  0.00     0.015 A 
HETATM   17  C   UNL     1       6.882  24.184  54.131  1.00  0.00    -0.025 A 
HETATM   18  C   UNL     1       6.924  25.161  55.162  1.00  0.00    -0.012 A 
HETATM   19  C   UNL     1       7.760  23.088  54.152  1.00  0.00     0.012 A 
HETATM   20  C   UNL     1       7.873  24.954  56.199  1.00  0.00     0.013 A 
HETATM   21  C   UNL     1       8.736  23.855  56.207  1.00  0.00     0.001 A 
HETATM   22  C   UNL     1       8.682  22.923  55.181  1.00  0.00     0.001 A 
BRANCH  14  23
HETATM   23  O   UNL     1       4.175  27.343  53.867  1.00  0.00    -0.360 OA
HETATM   24  H   UNL     1       3.415  27.006  53.340  1.00  0.00     0.217 HD
ENDBRANCH  14  23
ENDBRANCH  12  13
ENDBRANCH   8  11
ENDBRANCH   5   7
BRANCH   1  25
HETATM   25  C   UNL     1       4.690  33.343  61.030  1.00  0.00     0.045 C 
HETATM   26  C   UNL     1       4.137  34.639  61.075  1.00  0.00     0.066 C 
HETATM   27  C   UNL     1       3.785  35.560  59.966  1.00  0.00     0.073 C 
HETATM   28  N   UNL     1       3.910  35.025  62.333  1.00  0.00    -0.171 NA
HETATM   29  N   UNL     1       4.461  34.056  63.117  1.00  0.00    -0.237 N 
HETATM   30  C   UNL     1       4.832  32.954  62.354  1.00  0.00     0.047 C 
HETATM   31  C   UNL     1       5.229  31.623  62.886  1.00  0.00     0.071 C 
BRANCH  29  32
HETATM   32  C   UNL     1       4.570  34.293  64.523  1.00  0.00     0.058 A 
HETATM   33  C   UNL     1       3.468  34.837  65.208  1.00  0.00     0.031 A 
HETATM   34  C   UNL     1       3.533  35.086  66.580  1.00  0.00     0.002 A 
HETATM   35  C   UNL     1       4.702  34.811  67.283  1.00  0.00     0.000 A 
HETATM   36  C   UNL     1       5.809  34.298  66.612  1.00  0.00     0.002 A 
HETATM   37  C   UNL     1       5.748  34.043  65.237  1.00  0.00     0.031 A 
ENDBRANCH  29  32
ENDBRANCH   1  25
TORSDOF 6
ENDMDL
MODEL 8
REMARK VINA RESULT:     -10.2      3.252     11.966
REMARK  6 active torsions:
REMARK  status: ('A' for Active; 'I' for Inactive)
REMARK    1  A    between atoms: N_4  and  C_5 
REMARK    2  A    between atoms: C_13  and  C_14 
REMARK    3  A    between atoms: C_18  and  C_19 
REMARK       I    between atoms: C_19  and  N_20 
REMARK    4  A    between atoms: N_20  and  N_21 
REMARK    5  A    between atoms: C_22  and  C_23 
REMARK    6  A    between atoms: C_24  and  O_25 
ROOT
HETATM    1  C   UNL     1       7.175  27.696  53.942  1.00  0.00     0.093 A 
HETATM    2  N   UNL     1       8.218  28.528  53.869  1.00  0.00    -0.173 NA
HETATM    3  N   UNL     1       8.457  28.860  55.147  1.00  0.00    -0.272 N 
HETATM    4  H   UNL     1       9.219  29.497  55.360  1.00  0.00     0.189 HD
HETATM    5  C   UNL     1       7.596  28.285  56.045  1.00  0.00     0.121 A 
HETATM    6  C   UNL     1       6.745  27.512  55.277  1.00  0.00     0.071 A 
ENDROOT
BRANCH   5   7
HETATM    7  C   UNL     1       7.704  28.565  57.454  1.00  0.00     0.289 C 
HETATM    8  N   UNL     1       7.752  29.913  57.784  1.00  0.00    -0.242 N 
HETATM    9  H   UNL     1       7.710  30.622  57.065  1.00  0.00     0.192 HD
HETATM   10  O   UNL     1       7.752  27.660  58.283  1.00  0.00    -0.264 OA
BRANCH   8  11
HETATM   11  N   UNL     1       7.904  30.281  59.087  1.00  0.00    -0.183 NA
HETATM   12  C   UNL     1       7.178  31.277  59.492  1.00  0.00     0.153 C 
BRANCH  12  13
HETATM   13  C   UNL     1       7.283  31.789  60.882  1.00  0.00     0.027 A 
HETATM   14  C   UNL     1       8.207  31.196  61.763  1.00  0.00     0.078 A 
HETATM   15  C   UNL     1       8.369  31.679  63.053  1.00  0.00     0.038 A 
HETATM   16  C   UNL     1       7.607  32.758  63.488  1.00  0.00     0.015 A 
HETATM   17  C   UNL     1       6.667  33.365  62.643  1.00  0.00    -0.025 A 
HETATM   18  C   UNL     1       6.480  32.889  61.316  1.00  0.00    -0.012 A 
HETATM   19  C   UNL     1       5.913  34.447  63.124  1.00  0.00     0.012 A 
HETATM   20  C   UNL     1       5.494  33.550  60.535  1.00  0.00     0.013 A 
HETATM   21  C   UNL     1       4.749  34.623  61.032  1.00  0.00     0.001 A 
HETATM   22  C   UNL     1       4.961  35.075  62.325  1.00  0.00     0.001 A 
BRANCH  14  23
HETATM   23  O   UNL     1       9.008  30.134  61.434  1.00  0.00    -0.360 OA
HETATM   24  H   UNL     1       8.523  29.299  61.628  1.00  0.00     0.217 HD
ENDBRANCH  14  23
ENDBRANCH  12  13
ENDBRANCH   8  11
ENDBRANCH   5   7
BRANCH   1  25
HETATM   25  C   UNL     1       6.554  27.104  52.758  1.00  0.00     0.045 C 
HETATM   26  C   UNL     1       6.752  25.801  52.259  1.00  0.00     0.066 C 
HETATM   27  C   UNL     1       7.644  24.721  52.751  1.00  0.00     0.073 C 
HETATM   28  N   UNL     1       5.983  25.568  51.194  1.00  0.00    -0.171 NA
HETATM   29  N   UNL     1       5.402  26.764  50.895  1.00  0.00    -0.237 N 
HETATM   30  C   UNL     1       5.630  27.690  51.906  1.00  0.00     0.047 C 
HETATM   31  C   UNL     1       4.951  29.006  52.048  1.00  0.00     0.071 C 
BRANCH  29  32
HETATM   32  C   UNL     1       4.683  26.887  49.665  1.00  0.00     0.058 A 
HETATM   33  C   UNL     1       3.984  25.771  49.171  1.00  0.00     0.031 A 
HETATM   34  C   UNL     1       3.272  25.848  47.972  1.00  0.00     0.002 A 
HETATM   35  C   UNL     1       3.261  27.033  47.244  1.00  0.00     0.000 A 
HETATM   36  C   UNL     1       3.972  28.138  47.708  1.00  0.00     0.002 A 
HETATM   37  C   UNL     1       4.685  28.066  48.910  1.00  0.00     0.031 A 
ENDBRANCH  29  32
ENDBRANCH   1  25
TORSDOF 6
ENDMDL
MODEL 9
REMARK VINA RESULT:     -10.1      2.256      2.604
REMARK  6 active torsions:
REMARK  status: ('A' for Active; 'I' for Inactive)
REMARK    1  A    between atoms: N_4  and  C_5 
REMARK    2  A    between atoms: C_13  and  C_14 
REMARK    3  A    between atoms: C_18  and  C_19 
REMARK       I    between atoms: C_19  and  N_20 
REMARK    4  A    between atoms: N_20  and  N_21 
REMARK    5  A    between atoms: C_22  and  C_23 
REMARK    6  A    between atoms: C_24  and  O_25 
ROOT
HETATM    1  C   UNL     1       5.555  31.764  58.656  1.00  0.00     0.093 A 
HETATM    2  N   UNL     1       6.832  31.374  58.629  1.00  0.00    -0.173 NA
HETATM    3  N   UNL     1       6.815  30.261  57.881  1.00  0.00    -0.272 N 
HETATM    4  H   UNL     1       7.685  29.765  57.709  1.00  0.00     0.189 HD
HETATM    5  C   UNL     1       5.568  29.904  57.436  1.00  0.00     0.121 A 
HETATM    6  C   UNL     1       4.722  30.880  57.931  1.00  0.00     0.071 A 
ENDROOT
BRANCH   5   7
HETATM    7  C   UNL     1       5.379  28.715  56.646  1.00  0.00     0.289 C 
HETATM    8  N   UNL     1       6.530  27.976  56.408  1.00  0.00    -0.242 N 
HETATM    9  H   UNL     1       7.421  28.275  56.780  1.00  0.00     0.192 HD
HETATM   10  O   UNL     1       4.270  28.402  56.220  1.00  0.00    -0.264 OA
BRANCH   8  11
HETATM   11  N   UNL     1       6.465  26.860  55.629  1.00  0.00    -0.183 NA
HETATM   12  C   UNL     1       7.554  26.163  55.531  1.00  0.00     0.153 C 
BRANCH  12  13
HETATM   13  C   UNL     1       7.612  24.945  54.682  1.00  0.00     0.027 A 
HETATM   14  C   UNL     1       7.432  25.070  53.291  1.00  0.00     0.078 A 
HETATM   15  C   UNL     1       7.529  23.963  52.461  1.00  0.00     0.038 A 
HETATM   16  C   UNL     1       7.802  22.712  53.005  1.00  0.00     0.015 A 
HETATM   17  C   UNL     1       7.973  22.548  54.387  1.00  0.00    -0.025 A 
HETATM   18  C   UNL     1       7.878  23.665  55.261  1.00  0.00    -0.012 A 
HETATM   19  C   UNL     1       8.239  21.266  54.896  1.00  0.00     0.012 A 
HETATM   20  C   UNL     1       8.046  23.407  56.648  1.00  0.00     0.013 A 
HETATM   21  C   UNL     1       8.306  22.123  57.138  1.00  0.00     0.001 A 
HETATM   22  C   UNL     1       8.406  21.054  56.261  1.00  0.00     0.001 A 
BRANCH  14  23
HETATM   23  O   UNL     1       7.165  26.253  52.655  1.00  0.00    -0.360 OA
HETATM   24  H   UNL     1       6.331  26.628  53.019  1.00  0.00     0.217 HD
ENDBRANCH  14  23
ENDBRANCH  12  13
ENDBRANCH   8  11
ENDBRANCH   5   7
BRANCH   1  25
HETATM   25  C   UNL     1       5.105  32.942  59.397  1.00  0.00     0.045 C 
HETATM   26  C   UNL     1       4.457  34.077  58.870  1.00  0.00     0.066 C 
HETATM   27  C   UNL     1       4.102  34.402  57.465  1.00  0.00     0.073 C 
HETATM   28  N   UNL     1       4.131  34.940  59.834  1.00  0.00    -0.171 NA
HETATM   29  N   UNL     1       4.707  34.452  60.970  1.00  0.00    -0.237 N 
HETATM   30  C   UNL     1       5.199  33.169  60.761  1.00  0.00     0.047 C 
HETATM   31  C   UNL     1       5.661  32.234  61.822  1.00  0.00     0.071 C 
BRANCH  29  32
HETATM   32  C   UNL     1       4.718  35.275  62.139  1.00  0.00     0.058 A 
HETATM   33  C   UNL     1       5.748  36.220  62.296  1.00  0.00     0.031 A 
HETATM   34  C   UNL     1       5.798  37.041  63.425  1.00  0.00     0.002 A 
HETATM   35  C   UNL     1       4.830  36.920  64.417  1.00  0.00     0.000 A 
HETATM   36  C   UNL     1       3.820  35.968  64.287  1.00  0.00     0.002 A 
HETATM   37  C   UNL     1       3.765  35.145  63.157  1.00  0.00     0.031 A 
ENDBRANCH  29  32
ENDBRANCH   1  25
TORSDOF 6
ENDMDL
MODEL 10
REMARK VINA RESULT:     -10.1      2.100      3.478
REMARK  6 active torsions:
REMARK  status: ('A' for Active; 'I' for Inactive)
REMARK    1  A    between atoms: N_4  and  C_5 
REMARK    2  A    between atoms: C_13  and  C_14 
REMARK    3  A    between atoms: C_18  and  C_19 
REMARK       I    between atoms: C_19  and  N_20 
REMARK    4  A    between atoms: N_20  and  N_21 
REMARK    5  A    between atoms: C_22  and  C_23 
REMARK    6  A    between atoms: C_24  and  O_25 
ROOT
HETATM    1  C   UNL     1       8.017  30.599  59.095  1.00  0.00     0.093 A 
HETATM    2  N   UNL     1       9.214  30.630  58.501  1.00  0.00    -0.173 NA
HETATM    3  N   UNL     1       9.193  29.572  57.677  1.00  0.00    -0.272 N 
HETATM    4  H   UNL     1      10.007  29.375  57.102  1.00  0.00     0.189 HD
HETATM    5  C   UNL     1       8.032  28.846  57.727  1.00  0.00     0.121 A 
HETATM    6  C   UNL     1       7.241  29.504  58.651  1.00  0.00     0.071 A 
ENDROOT
BRANCH   5   7
HETATM    7  C   UNL     1       7.866  27.662  56.922  1.00  0.00     0.289 C 
HETATM    8  N   UNL     1       7.481  26.525  57.619  1.00  0.00    -0.242 N 
HETATM    9  H   UNL     1       7.331  26.558  58.619  1.00  0.00     0.192 HD
HETATM   10  O   UNL     1       8.063  27.683  55.710  1.00  0.00    -0.264 OA
BRANCH   8  11
HETATM   11  N   UNL     1       7.346  25.343  56.955  1.00  0.00    -0.183 NA
HETATM   12  C   UNL     1       8.249  24.443  57.194  1.00  0.00     0.153 C 
BRANCH  12  13
HETATM   13  C   UNL     1       8.224  23.128  56.504  1.00  0.00     0.027 A 
HETATM   14  C   UNL     1       8.296  21.950  57.271  1.00  0.00     0.078 A 
HETATM   15  C   UNL     1       8.225  20.703  56.666  1.00  0.00     0.038 A 
HETATM   16  C   UNL     1       8.087  20.612  55.285  1.00  0.00     0.015 A 
HETATM   17  C   UNL     1       8.025  21.763  54.488  1.00  0.00    -0.025 A 
HETATM   18  C   UNL     1       8.097  23.053  55.082  1.00  0.00    -0.012 A 
HETATM   19  C   UNL     1       7.893  21.626  53.097  1.00  0.00     0.012 A 
HETATM   20  C   UNL     1       8.046  24.166  54.199  1.00  0.00     0.013 A 
HETATM   21  C   UNL     1       7.919  24.011  52.816  1.00  0.00     0.001 A 
HETATM   22  C   UNL     1       7.838  22.741  52.265  1.00  0.00     0.001 A 
BRANCH  14  23
HETATM   23  O   UNL     1       8.428  21.929  58.634  1.00  0.00    -0.360 OA
HETATM   24  H   UNL     1       9.120  22.578  58.896  1.00  0.00     0.217 HD
ENDBRANCH  14  23
ENDBRANCH  12  13
ENDBRANCH   8  11
ENDBRANCH   5   7
BRANCH   1  25
HETATM   25  C   UNL     1       7.615  31.572  60.110  1.00  0.00     0.045 C 
HETATM   26  C   UNL     1       8.279  31.858  61.320  1.00  0.00     0.066 C 
HETATM   27  C   UNL     1       9.499  31.246  61.901  1.00  0.00     0.073 C 
HETATM   28  N   UNL     1       7.672  32.844  61.984  1.00  0.00    -0.171 NA
HETATM   29  N   UNL     1       6.523  33.095  61.294  1.00  0.00    -0.237 N 
HETATM   30  C   UNL     1       6.522  32.425  60.076  1.00  0.00     0.047 C 
HETATM   31  C   UNL     1       5.564  32.652  58.961  1.00  0.00     0.071 C 
BRANCH  29  32
HETATM   32  C   UNL     1       5.547  33.960  61.882  1.00  0.00     0.058 A 
HETATM   33  C   UNL     1       5.931  35.258  62.264  1.00  0.00     0.031 A 
HETATM   34  C   UNL     1       5.009  36.132  62.844  1.00  0.00     0.002 A 
HETATM   35  C   UNL     1       3.699  35.719  63.063  1.00  0.00     0.000 A 
HETATM   36  C   UNL     1       3.313  34.426  62.715  1.00  0.00     0.002 A 
HETATM   37  C   UNL     1       4.232  33.547  62.131  1.00  0.00     0.031 A 
ENDBRANCH  29  32
ENDBRANCH   1  25
TORSDOF 6
ENDMDL
