MODEL 1
REMARK VINA RESULT:      -9.8      0.000      0.000
REMARK  7 active torsions:
REMARK  status: ('A' for Active; 'I' for Inactive)
REMARK    1  A    between atoms: O_2  and  C_3 
REMARK    2  A    between atoms: C_3  and  C_4 
REMARK    3  A    between atoms: C_8  and  C_9 
REMARK    4  A    between atoms: C_9  and  N_10 
REMARK    5  A    between atoms: C_13  and  C_14 
REMARK    6  A    between atoms: C_14  and  N_15 
REMARK       I    between atoms: N_15  and  C_16 
REMARK       I    between atoms: C_16  and  N_17 
REMARK    7  A    between atoms: N_17  and  C_18 
ROOT
HETATM    1  N   UNL     1       9.635  30.573  58.720  1.00  0.00    -0.067 N 
HETATM    2  H   UNL     1      10.102  29.862  59.297  1.00  0.00     0.280 HD
HETATM    3  C   UNL     1       8.316  29.970  58.281  1.00  0.00     0.241 C 
HETATM    4  C   UNL     1       8.601  28.665  57.536  1.00  0.00     0.029 C 
HETATM    5  C   UNL     1       9.512  28.931  56.326  1.00  0.00     0.009 C 
HETATM    6  C   UNL     1      10.802  29.621  56.757  1.00  0.00     0.028 C 
HETATM    7  C   UNL     1      10.533  30.889  57.555  1.00  0.00     0.235 C 
ENDROOT
BRANCH   4   8
HETATM    8  C   UNL     1       7.317  27.943  57.093  1.00  0.00     0.130 C 
BRANCH   8   9
HETATM    9  N   UNL     1       7.431  27.040  55.957  1.00  0.00    -0.342 N 
HETATM   10  C   UNL     1       7.302  25.666  56.080  1.00  0.00     0.320 C 
HETATM   11  N   UNL     1       7.665  25.030  54.916  1.00  0.00    -0.309 N 
HETATM   12  O   UNL     1       6.855  25.146  57.093  1.00  0.00    -0.247 OA
HETATM   13  H   UNL     1       7.866  25.620  54.122  1.00  0.00     0.170 HD
HETATM   14  H   UNL     1       8.135  27.314  55.283  1.00  0.00     0.164 HD
BRANCH  11  15
HETATM   15  C   UNL     1       7.717  23.640  54.677  1.00  0.00     0.039 A 
HETATM   16  C   UNL     1       7.660  22.674  55.681  1.00  0.00     0.071 A 
HETATM   17  C   UNL     1       7.736  21.323  55.346  1.00  0.00     0.118 A 
HETATM   18  F   UNL     1       7.680  20.403  56.319  1.00  0.00    -0.206 F 
HETATM   19  C   UNL     1       7.867  20.911  54.028  1.00  0.00     0.042 A 
HETATM   20  C   UNL     1       7.928  21.867  53.019  1.00  0.00     0.005 A 
HETATM   21  C   UNL     1       7.854  23.225  53.343  1.00  0.00     0.030 A 
ENDBRANCH  11  15
ENDBRANCH   8   9
ENDBRANCH   4   8
BRANCH   1  22
HETATM   22  C   UNL     1       9.460  31.768  59.626  1.00  0.00     0.274 C 
BRANCH  22  23
HETATM   23  C   UNL     1       8.612  31.520  60.830  1.00  0.00    -0.015 A 
HETATM   24  C   UNL     1       8.908  30.661  61.873  1.00  0.00     0.097 A 
HETATM   25  N   UNL     1       7.873  30.687  62.771  1.00  0.00    -0.360 N 
HETATM   26  C   UNL     1       6.898  31.556  62.341  1.00  0.00     0.108 A 
HETATM   27  H   UNL     1       7.808  30.146  63.629  1.00  0.00     0.165 HD
HETATM   28  C   UNL     1       7.333  32.078  61.135  1.00  0.00     0.046 A 
BRANCH  26  29
HETATM   29  C   UNL     1       5.688  31.782  63.097  1.00  0.00     0.309 C 
HETATM   30  O   UNL     1       4.864  30.914  63.348  1.00  0.00    -0.258 OA
BRANCH  29  31
HETATM   31  O   UNL     1       5.606  33.088  63.466  1.00  0.00    -0.321 OA
HETATM   32  C   UNL     1       6.352  33.408  64.642  1.00  0.00     0.213 C 
ENDBRANCH  29  31
ENDBRANCH  26  29
ENDBRANCH  22  23
ENDBRANCH   1  22
TORSDOF 7
ENDMDL
MODEL 2
REMARK VINA RESULT:      -9.7      0.831      1.251
REMARK  7 active torsions:
REMARK  status: ('A' for Active; 'I' for Inactive)
REMARK    1  A    between atoms: O_2  and  C_3 
REMARK    2  A    between atoms: C_3  and  C_4 
REMARK    3  A    between atoms: C_8  and  C_9 
REMARK    4  A    between atoms: C_9  and  N_10 
REMARK    5  A    between atoms: C_13  and  C_14 
REMARK    6  A    between atoms: C_14  and  N_15 
REMARK       I    between atoms: N_15  and  C_16 
REMARK       I    between atoms: C_16  and  N_17 
REMARK    7  A    between atoms: N_17  and  C_18 
ROOT
HETATM    1  N   UNL     1       9.490  30.673  58.674  1.00  0.00    -0.067 N 
HETATM    2  H   UNL     1       9.899  30.016  59.349  1.00  0.00     0.280 HD
HETATM    3  C   UNL     1       8.251  30.000  58.118  1.00  0.00     0.241 C 
HETATM    4  C   UNL     1       8.658  28.661  57.503  1.00  0.00     0.029 C 
HETATM    5  C   UNL     1       9.704  28.878  56.398  1.00  0.00     0.009 C 
HETATM    6  C   UNL     1      10.914  29.637  56.936  1.00  0.00     0.028 C 
HETATM    7  C   UNL     1      10.517  30.943  57.608  1.00  0.00     0.235 C 
ENDROOT
BRANCH   4   8
HETATM    8  C   UNL     1       7.456  27.871  56.956  1.00  0.00     0.130 C 
BRANCH   8   9
HETATM    9  N   UNL     1       7.749  26.801  56.014  1.00  0.00    -0.342 N 
HETATM   10  C   UNL     1       7.497  25.468  56.295  1.00  0.00     0.320 C 
HETATM   11  N   UNL     1       8.058  24.647  55.345  1.00  0.00    -0.309 N 
HETATM   12  O   UNL     1       6.805  25.127  57.244  1.00  0.00    -0.247 OA
HETATM   13  H   UNL     1       8.469  25.101  54.542  1.00  0.00     0.170 HD
HETATM   14  H   UNL     1       8.600  26.941  55.484  1.00  0.00     0.164 HD
BRANCH  11  15
HETATM   15  C   UNL     1       8.060  23.237  55.322  1.00  0.00     0.039 A 
HETATM   16  C   UNL     1       7.742  22.474  54.199  1.00  0.00     0.071 A 
HETATM   17  C   UNL     1       7.757  21.083  54.280  1.00  0.00     0.118 A 
HETATM   18  F   UNL     1       7.449  20.361  53.194  1.00  0.00    -0.206 F 
HETATM   19  C   UNL     1       8.084  20.431  55.460  1.00  0.00     0.042 A 
HETATM   20  C   UNL     1       8.400  21.182  56.587  1.00  0.00     0.005 A 
HETATM   21  C   UNL     1       8.387  22.579  56.519  1.00  0.00     0.030 A 
ENDBRANCH  11  15
ENDBRANCH   8   9
ENDBRANCH   4   8
BRANCH   1  22
HETATM   22  C   UNL     1       9.175  31.917  59.469  1.00  0.00     0.274 C 
BRANCH  22  23
HETATM   23  C   UNL     1       8.375  31.679  60.708  1.00  0.00    -0.015 A 
HETATM   24  C   UNL     1       8.696  30.807  61.731  1.00  0.00     0.097 A 
HETATM   25  N   UNL     1       7.702  30.850  62.675  1.00  0.00    -0.360 N 
HETATM   26  C   UNL     1       6.730  31.744  62.293  1.00  0.00     0.108 A 
HETATM   27  H   UNL     1       7.663  30.304  63.531  1.00  0.00     0.165 HD
HETATM   28  C   UNL     1       7.124  32.265  61.072  1.00  0.00     0.046 A 
BRANCH  26  29
HETATM   29  C   UNL     1       5.560  31.994  63.103  1.00  0.00     0.309 C 
HETATM   30  O   UNL     1       4.708  31.152  63.353  1.00  0.00    -0.258 OA
BRANCH  29  31
HETATM   31  O   UNL     1       5.550  33.286  63.523  1.00  0.00    -0.321 OA
HETATM   32  C   UNL     1       5.103  33.457  64.869  1.00  0.00     0.213 C 
ENDBRANCH  29  31
ENDBRANCH  26  29
ENDBRANCH  22  23
ENDBRANCH   1  22
TORSDOF 7
ENDMDL
MODEL 3
REMARK VINA RESULT:      -9.2      1.987      2.510
REMARK  7 active torsions:
REMARK  status: ('A' for Active; 'I' for Inactive)
REMARK    1  A    between atoms: O_2  and  C_3 
REMARK    2  A    between atoms: C_3  and  C_4 
REMARK    3  A    between atoms: C_8  and  C_9 
REMARK    4  A    between atoms: C_9  and  N_10 
REMARK    5  A    between atoms: C_13  and  C_14 
REMARK    6  A    between atoms: C_14  and  N_15 
REMARK       I    between atoms: N_15  and  C_16 
REMARK       I    between atoms: C_16  and  N_17 
REMARK    7  A    between atoms: N_17  and  C_18 
ROOT
HETATM    1  N   UNL     1       5.938  30.737  58.660  1.00  0.00    -0.067 N 
HETATM    2  H   UNL     1       5.654  30.093  59.409  1.00  0.00     0.280 HD
HETATM    3  C   UNL     1       5.577  30.059  57.353  1.00  0.00     0.241 C 
HETATM    4  C   UNL     1       6.279  28.702  57.298  1.00  0.00     0.029 C 
HETATM    5  C   UNL     1       7.800  28.885  57.416  1.00  0.00     0.009 C 
HETATM    6  C   UNL     1       8.160  29.647  58.688  1.00  0.00     0.028 C 
HETATM    7  C   UNL     1       7.418  30.973  58.788  1.00  0.00     0.235 C 
ENDROOT
BRANCH   4   8
HETATM    8  C   UNL     1       5.931  27.907  56.027  1.00  0.00     0.130 C 
BRANCH   8   9
HETATM    9  N   UNL     1       6.913  26.931  55.575  1.00  0.00    -0.342 N 
HETATM   10  C   UNL     1       6.570  25.637  55.220  1.00  0.00     0.320 C 
HETATM   11  N   UNL     1       7.691  24.860  55.042  1.00  0.00    -0.309 N 
HETATM   12  O   UNL     1       5.408  25.302  55.039  1.00  0.00    -0.247 OA
HETATM   13  H   UNL     1       8.581  25.334  55.084  1.00  0.00     0.170 HD
HETATM   14  H   UNL     1       7.802  26.989  56.056  1.00  0.00     0.164 HD
BRANCH  11  15
HETATM   15  C   UNL     1       7.742  23.485  54.732  1.00  0.00     0.039 A 
HETATM   16  C   UNL     1       7.606  22.467  55.676  1.00  0.00     0.071 A 
HETATM   17  C   UNL     1       7.687  21.135  55.274  1.00  0.00     0.118 A 
HETATM   18  F   UNL     1       7.554  20.166  56.189  1.00  0.00    -0.206 F 
HETATM   19  C   UNL     1       7.901  20.792  53.946  1.00  0.00     0.042 A 
HETATM   20  C   UNL     1       8.041  21.799  52.998  1.00  0.00     0.005 A 
HETATM   21  C   UNL     1       7.963  23.140  53.389  1.00  0.00     0.030 A 
ENDBRANCH  11  15
ENDBRANCH   8   9
ENDBRANCH   4   8
BRANCH   1  22
HETATM   22  C   UNL     1       5.151  32.002  58.901  1.00  0.00     0.274 C 
BRANCH  22  23
HETATM   23  C   UNL     1       4.753  32.228  60.323  1.00  0.00    -0.015 A 
HETATM   24  C   UNL     1       3.511  31.973  60.872  1.00  0.00     0.097 A 
HETATM   25  N   UNL     1       3.530  32.339  62.194  1.00  0.00    -0.360 N 
HETATM   26  C   UNL     1       4.772  32.826  62.528  1.00  0.00     0.108 A 
HETATM   27  H   UNL     1       2.753  32.277  62.846  1.00  0.00     0.165 HD
HETATM   28  C   UNL     1       5.544  32.773  61.381  1.00  0.00     0.046 A 
BRANCH  26  29
HETATM   29  C   UNL     1       5.079  33.284  63.864  1.00  0.00     0.309 C 
HETATM   30  O   UNL     1       4.300  33.222  64.805  1.00  0.00    -0.258 OA
BRANCH  29  31
HETATM   31  O   UNL     1       6.337  33.797  63.903  1.00  0.00    -0.321 OA
HETATM   32  C   UNL     1       7.047  33.505  65.108  1.00  0.00     0.213 C 
ENDBRANCH  29  31
ENDBRANCH  26  29
ENDBRANCH  22  23
ENDBRANCH   1  22
TORSDOF 7
ENDMDL
MODEL 4
REMARK VINA RESULT:      -9.1      3.619     10.666
REMARK  7 active torsions:
REMARK  status: ('A' for Active; 'I' for Inactive)
REMARK    1  A    between atoms: O_2  and  C_3 
REMARK    2  A    between atoms: C_3  and  C_4 
REMARK    3  A    between atoms: C_8  and  C_9 
REMARK    4  A    between atoms: C_9  and  N_10 
REMARK    5  A    between atoms: C_13  and  C_14 
REMARK    6  A    between atoms: C_14  and  N_15 
REMARK       I    between atoms: N_15  and  C_16 
REMARK       I    between atoms: C_16  and  N_17 
REMARK    7  A    between atoms: N_17  and  C_18 
ROOT
HETATM    1  N   UNL     1       6.967  27.980  55.231  1.00  0.00    -0.067 N 
HETATM    2  H   UNL     1       6.986  27.128  55.806  1.00  0.00     0.280 HD
HETATM    3  C   UNL     1       7.812  29.006  55.960  1.00  0.00     0.241 C 
HETATM    4  C   UNL     1       7.240  29.199  57.364  1.00  0.00     0.029 C 
HETATM    5  C   UNL     1       5.775  29.655  57.284  1.00  0.00     0.009 C 
HETATM    6  C   UNL     1       4.941  28.668  56.473  1.00  0.00     0.028 C 
HETATM    7  C   UNL     1       5.535  28.416  55.095  1.00  0.00     0.235 C 
ENDROOT
BRANCH   4   8
HETATM    8  C   UNL     1       8.064  30.187  58.209  1.00  0.00     0.130 C 
BRANCH   8   9
HETATM    9  N   UNL     1       7.850  30.157  59.648  1.00  0.00    -0.342 N 
HETATM   10  C   UNL     1       7.301  31.222  60.343  1.00  0.00     0.320 C 
HETATM   11  N   UNL     1       7.406  31.032  61.701  1.00  0.00    -0.309 N 
HETATM   12  O   UNL     1       6.750  32.153  59.772  1.00  0.00    -0.247 OA
HETATM   13  H   UNL     1       7.754  30.135  62.007  1.00  0.00     0.170 HD
HETATM   14  H   UNL     1       8.580  29.680  60.163  1.00  0.00     0.164 HD
BRANCH  11  15
HETATM   15  C   UNL     1       7.012  31.919  62.726  1.00  0.00     0.039 A 
HETATM   16  C   UNL     1       5.684  32.209  63.038  1.00  0.00     0.071 A 
HETATM   17  C   UNL     1       5.396  33.113  64.058  1.00  0.00     0.118 A 
HETATM   18  F   UNL     1       4.116  33.384  64.351  1.00  0.00    -0.206 F 
HETATM   19  C   UNL     1       6.404  33.738  64.779  1.00  0.00     0.042 A 
HETATM   20  C   UNL     1       7.732  33.458  64.473  1.00  0.00     0.005 A 
HETATM   21  C   UNL     1       8.034  32.554  63.450  1.00  0.00     0.030 A 
ENDBRANCH  11  15
ENDBRANCH   8   9
ENDBRANCH   4   8
BRANCH   1  22
HETATM   22  C   UNL     1       7.555  27.575  53.901  1.00  0.00     0.274 C 
BRANCH  22  23
HETATM   23  C   UNL     1       7.652  26.101  53.684  1.00  0.00    -0.015 A 
HETATM   24  C   UNL     1       7.790  25.463  52.465  1.00  0.00     0.097 A 
HETATM   25  N   UNL     1       7.813  24.109  52.676  1.00  0.00    -0.360 N 
HETATM   26  C   UNL     1       7.699  23.841  54.020  1.00  0.00     0.108 A 
HETATM   27  H   UNL     1       7.892  23.390  51.962  1.00  0.00     0.165 HD
HETATM   28  C   UNL     1       7.590  25.062  54.663  1.00  0.00     0.046 A 
BRANCH  26  29
HETATM   29  C   UNL     1       7.697  22.490  54.533  1.00  0.00     0.309 C 
HETATM   30  O   UNL     1       7.680  21.490  53.829  1.00  0.00    -0.258 OA
BRANCH  29  31
HETATM   31  O   UNL     1       7.704  22.508  55.892  1.00  0.00    -0.321 OA
HETATM   32  C   UNL     1       8.235  21.322  56.486  1.00  0.00     0.213 C 
ENDBRANCH  29  31
ENDBRANCH  26  29
ENDBRANCH  22  23
ENDBRANCH   1  22
TORSDOF 7
ENDMDL
MODEL 5
REMARK VINA RESULT:      -8.8      2.919      4.542
REMARK  7 active torsions:
REMARK  status: ('A' for Active; 'I' for Inactive)
REMARK    1  A    between atoms: O_2  and  C_3 
REMARK    2  A    between atoms: C_3  and  C_4 
REMARK    3  A    between atoms: C_8  and  C_9 
REMARK    4  A    between atoms: C_9  and  N_10 
REMARK    5  A    between atoms: C_13  and  C_14 
REMARK    6  A    between atoms: C_14  and  N_15 
REMARK       I    between atoms: N_15  and  C_16 
REMARK       I    between atoms: C_16  and  N_17 
REMARK    7  A    between atoms: N_17  and  C_18 
ROOT
HETATM    1  N   UNL     1       5.441  28.832  55.435  1.00  0.00    -0.067 N 
HETATM    2  H   UNL     1       6.123  29.548  55.155  1.00  0.00     0.280 HD
HETATM    3  C   UNL     1       5.733  27.608  54.590  1.00  0.00     0.241 C 
HETATM    4  C   UNL     1       5.639  28.001  53.115  1.00  0.00     0.029 C 
HETATM    5  C   UNL     1       4.244  28.563  52.801  1.00  0.00     0.009 C 
HETATM    6  C   UNL     1       3.912  29.739  53.715  1.00  0.00     0.028 C 
HETATM    7  C   UNL     1       4.063  29.380  55.186  1.00  0.00     0.235 C 
ENDROOT
BRANCH   4   8
HETATM    8  C   UNL     1       5.974  26.835  52.169  1.00  0.00     0.130 C 
BRANCH   8   9
HETATM    9  N   UNL     1       7.048  25.942  52.583  1.00  0.00    -0.342 N 
HETATM   10  C   UNL     1       6.815  24.655  53.038  1.00  0.00     0.320 C 
HETATM   11  N   UNL     1       7.958  24.103  53.566  1.00  0.00    -0.309 N 
HETATM   12  O   UNL     1       5.730  24.107  52.901  1.00  0.00    -0.247 OA
HETATM   13  H   UNL     1       8.808  24.638  53.463  1.00  0.00     0.170 HD
HETATM   14  H   UNL     1       7.802  26.407  53.073  1.00  0.00     0.164 HD
BRANCH  11  15
HETATM   15  C   UNL     1       8.099  22.837  54.173  1.00  0.00     0.039 A 
HETATM   16  C   UNL     1       8.153  22.635  55.552  1.00  0.00     0.071 A 
HETATM   17  C   UNL     1       8.311  21.346  56.057  1.00  0.00     0.118 A 
HETATM   18  F   UNL     1       8.361  21.163  57.383  1.00  0.00    -0.206 F 
HETATM   19  C   UNL     1       8.416  20.248  55.215  1.00  0.00     0.042 A 
HETATM   20  C   UNL     1       8.366  20.439  53.838  1.00  0.00     0.005 A 
HETATM   21  C   UNL     1       8.210  21.728  53.320  1.00  0.00     0.030 A 
ENDBRANCH  11  15
ENDBRANCH   8   9
ENDBRANCH   4   8
BRANCH   1  22
HETATM   22  C   UNL     1       5.690  28.601  56.907  1.00  0.00     0.274 C 
BRANCH  22  23
HETATM   23  C   UNL     1       6.997  29.119  57.408  1.00  0.00    -0.015 A 
HETATM   24  C   UNL     1       8.244  28.590  57.132  1.00  0.00     0.097 A 
HETATM   25  N   UNL     1       9.191  29.325  57.798  1.00  0.00    -0.360 N 
HETATM   26  C   UNL     1       8.588  30.338  58.505  1.00  0.00     0.108 A 
HETATM   27  H   UNL     1      10.194  29.159  57.792  1.00  0.00     0.165 HD
HETATM   28  C   UNL     1       7.227  30.224  58.284  1.00  0.00     0.046 A 
BRANCH  26  29
HETATM   29  C   UNL     1       9.350  31.273  59.301  1.00  0.00     0.309 C 
HETATM   30  O   UNL     1       9.806  32.325  58.874  1.00  0.00    -0.258 OA
BRANCH  29  31
HETATM   31  O   UNL     1       9.486  30.803  60.569  1.00  0.00    -0.321 OA
HETATM   32  C   UNL     1       8.680  31.484  61.532  1.00  0.00     0.213 C 
ENDBRANCH  29  31
ENDBRANCH  26  29
ENDBRANCH  22  23
ENDBRANCH   1  22
TORSDOF 7
ENDMDL
MODEL 6
REMARK VINA RESULT:      -8.7      1.906      2.230
REMARK  7 active torsions:
REMARK  status: ('A' for Active; 'I' for Inactive)
REMARK    1  A    between atoms: O_2  and  C_3 
REMARK    2  A    between atoms: C_3  and  C_4 
REMARK    3  A    between atoms: C_8  and  C_9 
REMARK    4  A    between atoms: C_9  and  N_10 
REMARK    5  A    between atoms: C_13  and  C_14 
REMARK    6  A    between atoms: C_14  and  N_15 
REMARK       I    between atoms: N_15  and  C_16 
REMARK       I    between atoms: C_16  and  N_17 
REMARK    7  A    between atoms: N_17  and  C_18 
ROOT
HETATM    1  N   UNL     1       8.875  31.269  59.679  1.00  0.00    -0.067 N 
HETATM    2  H   UNL     1       9.241  30.562  60.330  1.00  0.00     0.280 HD
HETATM    3  C   UNL     1       7.683  30.638  58.988  1.00  0.00     0.241 C 
HETATM    4  C   UNL     1       8.142  29.351  58.302  1.00  0.00     0.029 C 
HETATM    5  C   UNL     1       9.262  29.654  57.294  1.00  0.00     0.009 C 
HETATM    6  C   UNL     1      10.425  30.371  57.972  1.00  0.00     0.028 C 
HETATM    7  C   UNL     1       9.973  31.621  58.713  1.00  0.00     0.235 C 
ENDROOT
BRANCH   4   8
HETATM    8  C   UNL     1       6.988  28.602  57.614  1.00  0.00     0.130 C 
BRANCH   8   9
HETATM    9  N   UNL     1       7.161  27.171  57.414  1.00  0.00    -0.342 N 
HETATM   10  C   UNL     1       7.451  26.619  56.178  1.00  0.00     0.320 C 
HETATM   11  N   UNL     1       7.348  25.248  56.212  1.00  0.00    -0.309 N 
HETATM   12  O   UNL     1       7.810  27.305  55.231  1.00  0.00    -0.247 OA
HETATM   13  H   UNL     1       7.189  24.829  57.117  1.00  0.00     0.170 HD
HETATM   14  H   UNL     1       6.533  26.600  57.967  1.00  0.00     0.164 HD
BRANCH  11  15
HETATM   15  C   UNL     1       7.515  24.347  55.139  1.00  0.00     0.039 A 
HETATM   16  C   UNL     1       8.535  23.398  55.068  1.00  0.00     0.071 A 
HETATM   17  C   UNL     1       8.627  22.563  53.957  1.00  0.00     0.118 A 
HETATM   18  F   UNL     1       9.610  21.655  53.900  1.00  0.00    -0.206 F 
HETATM   19  C   UNL     1       7.720  22.650  52.910  1.00  0.00     0.042 A 
HETATM   20  C   UNL     1       6.701  23.594  52.969  1.00  0.00     0.005 A 
HETATM   21  C   UNL     1       6.600  24.440  54.078  1.00  0.00     0.030 A 
ENDBRANCH  11  15
ENDBRANCH   8   9
ENDBRANCH   4   8
BRANCH   1  22
HETATM   22  C   UNL     1       8.496  32.447  60.543  1.00  0.00     0.274 C 
BRANCH  22  23
HETATM   23  C   UNL     1       7.200  32.297  61.269  1.00  0.00    -0.015 A 
HETATM   24  C   UNL     1       6.954  31.450  62.333  1.00  0.00     0.097 A 
HETATM   25  N   UNL     1       5.640  31.578  62.704  1.00  0.00    -0.360 N 
HETATM   26  C   UNL     1       5.014  32.505  61.904  1.00  0.00     0.108 A 
HETATM   27  H   UNL     1       5.174  31.068  63.450  1.00  0.00     0.165 HD
HETATM   28  C   UNL     1       5.961  32.958  61.002  1.00  0.00     0.046 A 
BRANCH  26  29
HETATM   29  C   UNL     1       3.619  32.842  62.073  1.00  0.00     0.309 C 
HETATM   30  O   UNL     1       3.087  33.035  63.157  1.00  0.00    -0.258 OA
BRANCH  29  31
HETATM   31  O   UNL     1       3.004  32.898  60.862  1.00  0.00    -0.321 OA
HETATM   32  C   UNL     1       2.269  34.103  60.638  1.00  0.00     0.213 C 
ENDBRANCH  29  31
ENDBRANCH  26  29
ENDBRANCH  22  23
ENDBRANCH   1  22
TORSDOF 7
ENDMDL
MODEL 7
REMARK VINA RESULT:      -8.7      5.424      9.247
REMARK  7 active torsions:
REMARK  status: ('A' for Active; 'I' for Inactive)
REMARK    1  A    between atoms: O_2  and  C_3 
REMARK    2  A    between atoms: C_3  and  C_4 
REMARK    3  A    between atoms: C_8  and  C_9 
REMARK    4  A    between atoms: C_9  and  N_10 
REMARK    5  A    between atoms: C_13  and  C_14 
REMARK    6  A    between atoms: C_14  and  N_15 
REMARK       I    between atoms: N_15  and  C_16 
REMARK       I    between atoms: C_16  and  N_17 
REMARK    7  A    between atoms: N_17  and  C_18 
ROOT
HETATM    1  N   UNL     1       5.018  28.723  53.328  1.00  0.00    -0.067 N 
HETATM    2  H   UNL     1       4.312  27.978  53.272  1.00  0.00     0.280 HD
HETATM    3  C   UNL     1       6.165  28.166  54.146  1.00  0.00     0.241 C 
HETATM    4  C   UNL     1       5.625  27.727  55.508  1.00  0.00     0.029 C 
HETATM    5  C   UNL     1       4.966  28.914  56.227  1.00  0.00     0.009 C 
HETATM    6  C   UNL     1       3.870  29.534  55.365  1.00  0.00     0.028 C 
HETATM    7  C   UNL     1       4.379  29.918  53.983  1.00  0.00     0.235 C 
ENDROOT
BRANCH   4   8
HETATM    8  C   UNL     1       6.708  27.093  56.398  1.00  0.00     0.130 C 
BRANCH   8   9
HETATM    9  N   UNL     1       7.619  26.157  55.756  1.00  0.00    -0.342 N 
HETATM   10  C   UNL     1       7.312  24.818  55.580  1.00  0.00     0.320 C 
HETATM   11  N   UNL     1       8.412  24.111  55.153  1.00  0.00    -0.309 N 
HETATM   12  O   UNL     1       6.178  24.388  55.736  1.00  0.00    -0.247 OA
HETATM   13  H   UNL     1       9.236  24.649  54.928  1.00  0.00     0.170 HD
HETATM   14  H   UNL     1       8.594  26.316  55.978  1.00  0.00     0.164 HD
BRANCH  11  15
HETATM   15  C   UNL     1       8.503  22.722  54.920  1.00  0.00     0.039 A 
HETATM   16  C   UNL     1       8.395  22.135  53.660  1.00  0.00     0.071 A 
HETATM   17  C   UNL     1       8.482  20.750  53.532  1.00  0.00     0.118 A 
HETATM   18  F   UNL     1       8.378  20.196  52.317  1.00  0.00    -0.206 F 
HETATM   19  C   UNL     1       8.675  19.933  54.637  1.00  0.00     0.042 A 
HETATM   20  C   UNL     1       8.780  20.508  55.899  1.00  0.00     0.005 A 
HETATM   21  C   UNL     1       8.693  21.897  56.040  1.00  0.00     0.030 A 
ENDBRANCH  11  15
ENDBRANCH   8   9
ENDBRANCH   4   8
BRANCH   1  22
HETATM   22  C   UNL     1       5.404  29.015  51.898  1.00  0.00     0.274 C 
BRANCH  22  23
HETATM   23  C   UNL     1       4.895  28.027  50.900  1.00  0.00    -0.015 A 
HETATM   24  C   UNL     1       5.023  26.653  50.975  1.00  0.00     0.097 A 
HETATM   25  N   UNL     1       4.455  26.096  49.858  1.00  0.00    -0.360 N 
HETATM   26  C   UNL     1       3.946  27.084  49.048  1.00  0.00     0.108 A 
HETATM   27  H   UNL     1       4.412  25.105  49.636  1.00  0.00     0.165 HD
HETATM   28  C   UNL     1       4.215  28.290  49.672  1.00  0.00     0.046 A 
BRANCH  26  29
HETATM   29  C   UNL     1       3.285  26.783  47.799  1.00  0.00     0.309 C 
HETATM   30  O   UNL     1       3.587  25.846  47.073  1.00  0.00    -0.258 OA
BRANCH  29  31
HETATM   31  O   UNL     1       2.306  27.694  47.558  1.00  0.00    -0.321 OA
HETATM   32  C   UNL     1       0.983  27.188  47.739  1.00  0.00     0.213 C 
ENDBRANCH  29  31
ENDBRANCH  26  29
ENDBRANCH  22  23
ENDBRANCH   1  22
TORSDOF 7
ENDMDL
MODEL 8
REMARK VINA RESULT:      -8.5      3.729     10.570
REMARK  7 active torsions:
REMARK  status: ('A' for Active; 'I' for Inactive)
REMARK    1  A    between atoms: O_2  and  C_3 
REMARK    2  A    between atoms: C_3  and  C_4 
REMARK    3  A    between atoms: C_8  and  C_9 
REMARK    4  A    between atoms: C_9  and  N_10 
REMARK    5  A    between atoms: C_13  and  C_14 
REMARK    6  A    between atoms: C_14  and  N_15 
REMARK       I    between atoms: N_15  and  C_16 
REMARK       I    between atoms: C_16  and  N_17 
REMARK    7  A    between atoms: N_17  and  C_18 
ROOT
HETATM    1  N   UNL     1       7.858  29.324  56.607  1.00  0.00    -0.067 N 
HETATM    2  H   UNL     1       7.564  30.272  56.340  1.00  0.00     0.280 HD
HETATM    3  C   UNL     1       7.990  29.326  58.117  1.00  0.00     0.241 C 
HETATM    4  C   UNL     1       8.986  30.415  58.518  1.00  0.00     0.029 C 
HETATM    5  C   UNL     1      10.347  30.164  57.851  1.00  0.00     0.009 C 
HETATM    6  C   UNL     1      10.202  30.071  56.335  1.00  0.00     0.028 C 
HETATM    7  C   UNL     1       9.166  29.035  55.923  1.00  0.00     0.235 C 
ENDROOT
BRANCH   4   8
HETATM    8  C   UNL     1       9.149  30.536  60.043  1.00  0.00     0.130 C 
BRANCH   8   9
HETATM    9  N   UNL     1       8.581  31.719  60.672  1.00  0.00    -0.342 N 
HETATM   10  C   UNL     1       8.114  31.721  61.975  1.00  0.00     0.320 C 
HETATM   11  N   UNL     1       7.435  32.883  62.256  1.00  0.00    -0.309 N 
HETATM   12  O   UNL     1       8.359  30.808  62.752  1.00  0.00    -0.247 OA
HETATM   13  H   UNL     1       7.455  33.601  61.546  1.00  0.00     0.170 HD
HETATM   14  H   UNL     1       8.021  32.287  60.048  1.00  0.00     0.164 HD
BRANCH  11  15
HETATM   15  C   UNL     1       6.773  33.223  63.455  1.00  0.00     0.039 A 
HETATM   16  C   UNL     1       7.427  33.527  64.648  1.00  0.00     0.071 A 
HETATM   17  C   UNL     1       6.684  33.836  65.786  1.00  0.00     0.118 A 
HETATM   18  F   UNL     1       7.323  34.127  66.927  1.00  0.00    -0.206 F 
HETATM   19  C   UNL     1       5.296  33.849  65.761  1.00  0.00     0.042 A 
HETATM   20  C   UNL     1       4.634  33.544  64.577  1.00  0.00     0.005 A 
HETATM   21  C   UNL     1       5.369  33.231  63.429  1.00  0.00     0.030 A 
ENDBRANCH  11  15
ENDBRANCH   8   9
ENDBRANCH   4   8
BRANCH   1  22
HETATM   22  C   UNL     1       6.760  28.413  56.116  1.00  0.00     0.274 C 
BRANCH  22  23
HETATM   23  C   UNL     1       7.208  27.035  55.752  1.00  0.00    -0.015 A 
HETATM   24  C   UNL     1       7.200  26.483  54.485  1.00  0.00     0.097 A 
HETATM   25  N   UNL     1       7.657  25.192  54.565  1.00  0.00    -0.360 N 
HETATM   26  C   UNL     1       7.973  24.885  55.867  1.00  0.00     0.108 A 
HETATM   27  H   UNL     1       7.747  24.539  53.792  1.00  0.00     0.165 HD
HETATM   28  C   UNL     1       7.696  26.012  56.622  1.00  0.00     0.046 A 
BRANCH  26  29
HETATM   29  C   UNL     1       8.483  23.587  56.243  1.00  0.00     0.309 C 
HETATM   30  O   UNL     1       8.383  23.110  57.366  1.00  0.00    -0.258 OA
BRANCH  29  31
HETATM   31  O   UNL     1       9.090  22.997  55.180  1.00  0.00    -0.321 OA
HETATM   32  C   UNL     1       8.927  21.579  55.129  1.00  0.00     0.213 C 
ENDBRANCH  29  31
ENDBRANCH  26  29
ENDBRANCH  22  23
ENDBRANCH   1  22
TORSDOF 7
ENDMDL
MODEL 9
REMARK VINA RESULT:      -8.5      2.659      4.423
REMARK  7 active torsions:
REMARK  status: ('A' for Active; 'I' for Inactive)
REMARK    1  A    between atoms: O_2  and  C_3 
REMARK    2  A    between atoms: C_3  and  C_4 
REMARK    3  A    between atoms: C_8  and  C_9 
REMARK    4  A    between atoms: C_9  and  N_10 
REMARK    5  A    between atoms: C_13  and  C_14 
REMARK    6  A    between atoms: C_14  and  N_15 
REMARK       I    between atoms: N_15  and  C_16 
REMARK       I    between atoms: C_16  and  N_17 
REMARK    7  A    between atoms: N_17  and  C_18 
ROOT
HETATM    1  N   UNL     1       7.125  32.544  62.084  1.00  0.00    -0.067 N 
HETATM    2  H   UNL     1       6.457  31.833  62.407  1.00  0.00     0.280 HD
HETATM    3  C   UNL     1       7.105  32.493  60.569  1.00  0.00     0.241 C 
HETATM    4  C   UNL     1       7.457  31.073  60.125  1.00  0.00     0.029 C 
HETATM    5  C   UNL     1       8.837  30.671  60.668  1.00  0.00     0.009 C 
HETATM    6  C   UNL     1       8.887  30.809  62.187  1.00  0.00     0.028 C 
HETATM    7  C   UNL     1       8.477  32.201  62.647  1.00  0.00     0.235 C 
ENDROOT
BRANCH   4   8
HETATM    8  C   UNL     1       7.410  30.901  58.597  1.00  0.00     0.130 C 
BRANCH   8   9
HETATM    9  N   UNL     1       6.768  29.697  58.091  1.00  0.00    -0.342 N 
HETATM   10  C   UNL     1       7.483  28.581  57.692  1.00  0.00     0.320 C 
HETATM   11  N   UNL     1       6.669  27.672  57.057  1.00  0.00    -0.309 N 
HETATM   12  O   UNL     1       8.670  28.444  57.955  1.00  0.00    -0.247 OA
HETATM   13  H   UNL     1       5.680  27.874  57.058  1.00  0.00     0.170 HD
HETATM   14  H   UNL     1       5.956  29.876  57.514  1.00  0.00     0.164 HD
BRANCH  11  15
HETATM   15  C   UNL     1       7.045  26.447  56.466  1.00  0.00     0.039 A 
HETATM   16  C   UNL     1       7.355  25.295  57.189  1.00  0.00     0.071 A 
HETATM   17  C   UNL     1       7.733  24.136  56.515  1.00  0.00     0.118 A 
HETATM   18  F   UNL     1       8.028  23.035  57.219  1.00  0.00    -0.206 F 
HETATM   19  C   UNL     1       7.808  24.097  55.129  1.00  0.00     0.042 A 
HETATM   20  C   UNL     1       7.505  25.241  54.399  1.00  0.00     0.005 A 
HETATM   21  C   UNL     1       7.126  26.411  55.065  1.00  0.00     0.030 A 
ENDBRANCH  11  15
ENDBRANCH   8   9
ENDBRANCH   4   8
BRANCH   1  22
HETATM   22  C   UNL     1       6.610  33.853  62.633  1.00  0.00     0.274 C 
BRANCH  22  23
HETATM   23  C   UNL     1       6.244  33.822  64.080  1.00  0.00    -0.015 A 
HETATM   24  C   UNL     1       5.026  33.432  64.605  1.00  0.00     0.097 A 
HETATM   25  N   UNL     1       5.070  33.570  65.969  1.00  0.00    -0.360 N 
HETATM   26  C   UNL     1       6.303  34.040  66.354  1.00  0.00     0.108 A 
HETATM   27  H   UNL     1       4.313  33.371  66.617  1.00  0.00     0.165 HD
HETATM   28  C   UNL     1       7.045  34.211  65.198  1.00  0.00     0.046 A 
BRANCH  26  29
HETATM   29  C   UNL     1       6.631  34.280  67.741  1.00  0.00     0.309 C 
HETATM   30  O   UNL     1       7.739  34.615  68.135  1.00  0.00    -0.258 OA
BRANCH  29  31
HETATM   31  O   UNL     1       5.539  34.065  68.522  1.00  0.00    -0.321 OA
HETATM   32  C   UNL     1       5.688  34.519  69.868  1.00  0.00     0.213 C 
ENDBRANCH  29  31
ENDBRANCH  26  29
ENDBRANCH  22  23
ENDBRANCH   1  22
TORSDOF 7
ENDMDL
MODEL 10
REMARK VINA RESULT:      -8.3      2.402      3.630
REMARK  7 active torsions:
REMARK  status: ('A' for Active; 'I' for Inactive)
REMARK    1  A    between atoms: O_2  and  C_3 
REMARK    2  A    between atoms: C_3  and  C_4 
REMARK    3  A    between atoms: C_8  and  C_9 
REMARK    4  A    between atoms: C_9  and  N_10 
REMARK    5  A    between atoms: C_13  and  C_14 
REMARK    6  A    between atoms: C_14  and  N_15 
REMARK       I    between atoms: N_15  and  C_16 
REMARK       I    between atoms: C_16  and  N_17 
REMARK    7  A    between atoms: N_17  and  C_18 
ROOT
HETATM    1  N   UNL     1       6.380  31.795  60.225  1.00  0.00    -0.067 N 
HETATM    2  H   UNL     1       5.881  30.949  60.527  1.00  0.00     0.280 HD
HETATM    3  C   UNL     1       7.017  31.464  58.890  1.00  0.00     0.241 C 
HETATM    4  C   UNL     1       7.925  30.247  59.072  1.00  0.00     0.029 C 
HETATM    5  C   UNL     1       8.998  30.538  60.133  1.00  0.00     0.009 C 
HETATM    6  C   UNL     1       8.359  30.960  61.452  1.00  0.00     0.028 C 
HETATM    7  C   UNL     1       7.403  32.130  61.276  1.00  0.00     0.235 C 
ENDROOT
BRANCH   4   8
HETATM    8  C   UNL     1       8.579  29.795  57.755  1.00  0.00     0.130 C 
BRANCH   8   9
HETATM    9  N   UNL     1       7.763  28.988  56.860  1.00  0.00    -0.342 N 
HETATM   10  C   UNL     1       8.058  27.667  56.569  1.00  0.00     0.320 C 
HETATM   11  N   UNL     1       7.272  27.199  55.542  1.00  0.00    -0.309 N 
HETATM   12  O   UNL     1       8.876  27.028  57.216  1.00  0.00    -0.247 OA
HETATM   13  H   UNL     1       6.539  27.814  55.218  1.00  0.00     0.170 HD
HETATM   14  H   UNL     1       7.396  29.498  56.066  1.00  0.00     0.164 HD
BRANCH  11  15
HETATM   15  C   UNL     1       7.320  25.927  54.933  1.00  0.00     0.039 A 
HETATM   16  C   UNL     1       7.132  24.727  55.619  1.00  0.00     0.071 A 
HETATM   17  C   UNL     1       7.215  23.518  54.932  1.00  0.00     0.118 A 
HETATM   18  F   UNL     1       7.032  22.371  55.601  1.00  0.00    -0.206 F 
HETATM   19  C   UNL     1       7.480  23.476  53.570  1.00  0.00     0.042 A 
HETATM   20  C   UNL     1       7.672  24.666  52.878  1.00  0.00     0.005 A 
HETATM   21  C   UNL     1       7.593  25.887  53.557  1.00  0.00     0.030 A 
ENDBRANCH  11  15
ENDBRANCH   8   9
ENDBRANCH   4   8
BRANCH   1  22
HETATM   22  C   UNL     1       5.321  32.866  60.119  1.00  0.00     0.274 C 
BRANCH  22  23
HETATM   23  C   UNL     1       4.761  33.322  61.427  1.00  0.00    -0.015 A 
HETATM   24  C   UNL     1       3.962  32.579  62.275  1.00  0.00     0.097 A 
HETATM   25  N   UNL     1       3.629  33.353  63.357  1.00  0.00    -0.360 N 
HETATM   26  C   UNL     1       4.203  34.597  63.239  1.00  0.00     0.108 A 
HETATM   27  H   UNL     1       3.039  33.075  64.136  1.00  0.00     0.165 HD
HETATM   28  C   UNL     1       4.904  34.602  62.046  1.00  0.00     0.046 A 
BRANCH  26  29
HETATM   29  C   UNL     1       4.021  35.621  64.242  1.00  0.00     0.309 C 
HETATM   30  O   UNL     1       3.689  36.772  63.994  1.00  0.00    -0.258 OA
BRANCH  29  31
HETATM   31  O   UNL     1       4.283  35.117  65.476  1.00  0.00    -0.321 OA
HETATM   32  C   UNL     1       3.281  35.413  66.451  1.00  0.00     0.213 C 
ENDBRANCH  29  31
ENDBRANCH  26  29
ENDBRANCH  22  23
ENDBRANCH   1  22
TORSDOF 7
ENDMDL
