MODEL 1
REMARK VINA RESULT:      -8.5      0.000      0.000
REMARK  8 active torsions:
REMARK  status: ('A' for Active; 'I' for Inactive)
REMARK    1  A    between atoms: C_2  and  O_3 
REMARK    2  A    between atoms: O_3  and  C_4 
REMARK    3  A    between atoms: C_4  and  C_5 
REMARK    4  A    between atoms: C_6  and  C_8 
REMARK    5  A    between atoms: C_6  and  O_7 
REMARK    6  A    between atoms: C_16  and  C_17 
REMARK    7  A    between atoms: C_18  and  C_19 
REMARK    8  A    between atoms: N_26  and  C_27 
ROOT
HETATM    1  C   UNL     1       4.745  33.849  60.895  1.00  0.00     0.177 C 
HETATM    2  C   UNL     1       4.115  35.246  61.010  1.00  0.00     0.250 C 
HETATM    3  N   UNL     1       2.714  35.174  61.366  1.00  0.00    -0.303 N 
HETATM    4  C   UNL     1       2.216  34.256  62.224  1.00  0.00     0.319 C 
HETATM    5  O   UNL     1       1.111  34.389  62.730  1.00  0.00    -0.247 OA
HETATM    6  N   UNL     1       2.969  33.158  62.453  1.00  0.00    -0.333 N 
HETATM    7  C   UNL     1       4.358  32.954  62.072  1.00  0.00     0.142 C 
HETATM    8  H   UNL     1       2.167  36.027  61.322  1.00  0.00     0.167 HD
HETATM    9  H   UNL     1       2.545  32.499  63.095  1.00  0.00     0.165 HD
ENDROOT
BRANCH   7  10
HETATM   10  C   UNL     1       5.217  33.074  63.307  1.00  0.00     0.015 A 
HETATM   11  C   UNL     1       6.608  32.779  63.472  1.00  0.00     0.097 A 
HETATM   12  N   UNL     1       7.026  33.088  64.707  1.00  0.00    -0.167 NA
HETATM   13  N   UNL     1       5.943  33.556  65.363  1.00  0.00    -0.244 N 
HETATM   14  C   UNL     1       4.825  33.494  64.568  1.00  0.00     0.130 A 
BRANCH  11  15
HETATM   15  C   UNL     1       7.565  32.258  62.498  1.00  0.00    -0.005 A 
HETATM   16  C   UNL     1       8.176  31.015  62.725  1.00  0.00     0.014 A 
HETATM   17  C   UNL     1       9.106  30.505  61.816  1.00  0.00     0.001 A 
HETATM   18  C   UNL     1       9.431  31.230  60.673  1.00  0.00     0.000 A 
HETATM   19  C   UNL     1       8.821  32.460  60.432  1.00  0.00     0.001 A 
HETATM   20  C   UNL     1       7.886  32.971  61.337  1.00  0.00     0.014 A 
ENDBRANCH  11  15
BRANCH  13  21
HETATM   21  C   UNL     1       6.042  34.051  66.694  1.00  0.00     0.058 A 
HETATM   22  C   UNL     1       4.874  34.244  67.447  1.00  0.00     0.031 A 
HETATM   23  C   UNL     1       4.954  34.704  68.763  1.00  0.00     0.002 A 
HETATM   24  C   UNL     1       6.194  34.977  69.336  1.00  0.00     0.000 A 
HETATM   25  C   UNL     1       7.358  34.792  68.594  1.00  0.00     0.002 A 
HETATM   26  C   UNL     1       7.288  34.330  67.276  1.00  0.00     0.031 A 
ENDBRANCH  13  21
ENDBRANCH   7  10
BRANCH   1  27
HETATM   27  C   UNL     1       4.370  33.083  59.640  1.00  0.00     0.270 C 
HETATM   28  O   UNL     1       3.206  32.881  59.315  1.00  0.00    -0.265 OA
BRANCH  27  29
HETATM   29  O   UNL     1       5.446  32.732  58.887  1.00  0.00    -0.321 OA
BRANCH  29  30
HETATM   30  C   UNL     1       5.302  31.582  58.038  1.00  0.00     0.174 C 
HETATM   31  C   UNL     1       6.550  30.726  58.137  1.00  0.00     0.034 C 
ENDBRANCH  29  30
ENDBRANCH  27  29
ENDBRANCH   1  27
BRANCH   2  32
HETATM   32  C   UNL     1       4.924  36.157  62.005  1.00  0.00     0.439 C 
HETATM   33  F   UNL     1       6.187  35.710  62.186  1.00  0.00    -0.166 F 
HETATM   34  F   UNL     1       5.009  37.427  61.529  1.00  0.00    -0.166 F 
HETATM   35  F   UNL     1       4.342  36.253  63.217  1.00  0.00    -0.166 F 
ENDBRANCH   2  32
BRANCH   2  36
HETATM   36  O   UNL     1       4.110  35.881  59.722  1.00  0.00    -0.363 OA
HETATM   37  H   UNL     1       4.595  36.718  59.853  1.00  0.00     0.213 HD
ENDBRANCH   2  36
TORSDOF 8
ENDMDL
MODEL 2
REMARK VINA RESULT:      -8.1      9.397     12.809
REMARK  8 active torsions:
REMARK  status: ('A' for Active; 'I' for Inactive)
REMARK    1  A    between atoms: C_2  and  O_3 
REMARK    2  A    between atoms: O_3  and  C_4 
REMARK    3  A    between atoms: C_4  and  C_5 
REMARK    4  A    between atoms: C_6  and  C_8 
REMARK    5  A    between atoms: C_6  and  O_7 
REMARK    6  A    between atoms: C_16  and  C_17 
REMARK    7  A    between atoms: C_18  and  C_19 
REMARK    8  A    between atoms: N_26  and  C_27 
ROOT
HETATM    1  C   UNL     1       5.523  28.608  54.159  1.00  0.00     0.177 C 
HETATM    2  C   UNL     1       6.475  28.810  55.349  1.00  0.00     0.250 C 
HETATM    3  N   UNL     1       5.856  28.427  56.599  1.00  0.00    -0.303 N 
HETATM    4  C   UNL     1       5.018  27.374  56.717  1.00  0.00     0.319 C 
HETATM    5  O   UNL     1       4.742  26.896  57.809  1.00  0.00    -0.247 OA
HETATM    6  N   UNL     1       4.454  26.908  55.581  1.00  0.00    -0.333 N 
HETATM    7  C   UNL     1       4.823  27.251  54.217  1.00  0.00     0.142 C 
HETATM    8  H   UNL     1       6.340  28.659  57.461  1.00  0.00     0.167 HD
HETATM    9  H   UNL     1       3.827  26.125  55.727  1.00  0.00     0.165 HD
ENDROOT
BRANCH   7  10
HETATM   10  C   UNL     1       5.576  26.090  53.616  1.00  0.00     0.015 A 
HETATM   11  C   UNL     1       5.882  25.824  52.244  1.00  0.00     0.097 A 
HETATM   12  N   UNL     1       6.636  24.724  52.119  1.00  0.00    -0.167 NA
HETATM   13  N   UNL     1       6.814  24.248  53.370  1.00  0.00    -0.244 N 
HETATM   14  C   UNL     1       6.130  25.009  54.285  1.00  0.00     0.130 A 
BRANCH  11  15
HETATM   15  C   UNL     1       5.527  26.591  51.051  1.00  0.00    -0.005 A 
HETATM   16  C   UNL     1       4.724  26.002  50.063  1.00  0.00     0.014 A 
HETATM   17  C   UNL     1       4.385  26.711  48.908  1.00  0.00     0.001 A 
HETATM   18  C   UNL     1       4.842  28.014  48.732  1.00  0.00     0.000 A 
HETATM   19  C   UNL     1       5.631  28.613  49.713  1.00  0.00     0.001 A 
HETATM   20  C   UNL     1       5.967  27.908  50.873  1.00  0.00     0.014 A 
ENDBRANCH  11  15
BRANCH  13  21
HETATM   21  C   UNL     1       7.639  23.114  53.618  1.00  0.00     0.058 A 
HETATM   22  C   UNL     1       8.446  23.088  54.766  1.00  0.00     0.031 A 
HETATM   23  C   UNL     1       9.241  21.973  55.041  1.00  0.00     0.002 A 
HETATM   24  C   UNL     1       9.241  20.882  54.174  1.00  0.00     0.000 A 
HETATM   25  C   UNL     1       8.447  20.904  53.030  1.00  0.00     0.002 A 
HETATM   26  C   UNL     1       7.646  22.014  52.748  1.00  0.00     0.031 A 
ENDBRANCH  13  21
ENDBRANCH   7  10
BRANCH   1  27
HETATM   27  C   UNL     1       4.423  29.647  54.040  1.00  0.00     0.270 C 
HETATM   28  O   UNL     1       3.677  29.926  54.971  1.00  0.00    -0.265 OA
BRANCH  27  29
HETATM   29  O   UNL     1       4.418  30.284  52.839  1.00  0.00    -0.321 OA
BRANCH  29  30
HETATM   30  C   UNL     1       3.143  30.465  52.201  1.00  0.00     0.174 C 
HETATM   31  C   UNL     1       2.632  29.124  51.712  1.00  0.00     0.034 C 
ENDBRANCH  29  30
ENDBRANCH  27  29
ENDBRANCH   1  27
BRANCH   2  32
HETATM   32  C   UNL     1       7.840  28.063  55.120  1.00  0.00     0.439 C 
HETATM   33  F   UNL     1       7.885  26.881  55.774  1.00  0.00    -0.166 F 
HETATM   34  F   UNL     1       8.026  27.803  53.799  1.00  0.00    -0.166 F 
HETATM   35  F   UNL     1       8.907  28.792  55.509  1.00  0.00    -0.166 F 
ENDBRANCH   2  32
BRANCH   2  36
HETATM   36  O   UNL     1       6.750  30.209  55.515  1.00  0.00    -0.363 OA
HETATM   37  H   UNL     1       7.030  30.301  56.446  1.00  0.00     0.213 HD
ENDBRANCH   2  36
TORSDOF 8
ENDMDL
MODEL 3
REMARK VINA RESULT:      -7.4      3.629      5.820
REMARK  8 active torsions:
REMARK  status: ('A' for Active; 'I' for Inactive)
REMARK    1  A    between atoms: C_2  and  O_3 
REMARK    2  A    between atoms: O_3  and  C_4 
REMARK    3  A    between atoms: C_4  and  C_5 
REMARK    4  A    between atoms: C_6  and  C_8 
REMARK    5  A    between atoms: C_6  and  O_7 
REMARK    6  A    between atoms: C_16  and  C_17 
REMARK    7  A    between atoms: C_18  and  C_19 
REMARK    8  A    between atoms: N_26  and  C_27 
ROOT
HETATM    1  C   UNL     1       2.180  35.210  59.180  1.00  0.00     0.177 C 
HETATM    2  C   UNL     1       2.536  36.277  60.229  1.00  0.00     0.250 C 
HETATM    3  N   UNL     1       2.082  35.900  61.550  1.00  0.00    -0.303 N 
HETATM    4  C   UNL     1       2.107  34.628  62.005  1.00  0.00     0.319 C 
HETATM    5  O   UNL     1       2.000  34.374  63.197  1.00  0.00    -0.247 OA
HETATM    6  N   UNL     1       2.199  33.647  61.081  1.00  0.00    -0.333 N 
HETATM    7  C   UNL     1       2.513  33.801  59.670  1.00  0.00     0.142 C 
HETATM    8  H   UNL     1       2.131  36.596  62.287  1.00  0.00     0.167 HD
HETATM    9  H   UNL     1       2.204  32.713  61.476  1.00  0.00     0.165 HD
ENDROOT
BRANCH   7  10
HETATM   10  C   UNL     1       3.931  33.337  59.440  1.00  0.00     0.015 A 
HETATM   11  C   UNL     1       4.644  33.188  58.208  1.00  0.00     0.097 A 
HETATM   12  N   UNL     1       5.914  32.820  58.424  1.00  0.00    -0.167 NA
HETATM   13  N   UNL     1       6.047  32.702  59.762  1.00  0.00    -0.244 N 
HETATM   14  C   UNL     1       4.852  32.939  60.396  1.00  0.00     0.130 A 
BRANCH  11  15
HETATM   15  C   UNL     1       4.185  33.419  56.839  1.00  0.00    -0.005 A 
HETATM   16  C   UNL     1       3.136  32.645  56.320  1.00  0.00     0.014 A 
HETATM   17  C   UNL     1       2.693  32.837  55.010  1.00  0.00     0.001 A 
HETATM   18  C   UNL     1       3.291  33.806  54.209  1.00  0.00     0.000 A 
HETATM   19  C   UNL     1       4.326  34.589  54.718  1.00  0.00     0.001 A 
HETATM   20  C   UNL     1       4.768  34.402  56.031  1.00  0.00     0.014 A 
ENDBRANCH  11  15
BRANCH  13  21
HETATM   21  C   UNL     1       7.305  32.394  60.355  1.00  0.00     0.058 A 
HETATM   22  C   UNL     1       7.405  32.310  61.752  1.00  0.00     0.031 A 
HETATM   23  C   UNL     1       8.624  31.982  62.351  1.00  0.00     0.002 A 
HETATM   24  C   UNL     1       9.748  31.741  61.564  1.00  0.00     0.000 A 
HETATM   25  C   UNL     1       9.657  31.828  60.176  1.00  0.00     0.002 A 
HETATM   26  C   UNL     1       8.441  32.153  59.568  1.00  0.00     0.031 A 
ENDBRANCH  13  21
ENDBRANCH   7  10
BRANCH   1  27
HETATM   27  C   UNL     1       0.719  35.181  58.772  1.00  0.00     0.270 C 
HETATM   28  O   UNL     1      -0.194  35.220  59.588  1.00  0.00    -0.265 OA
BRANCH  27  29
HETATM   29  O   UNL     1       0.541  35.199  57.424  1.00  0.00    -0.321 OA
BRANCH  29  30
HETATM   30  C   UNL     1       1.432  36.026  56.658  1.00  0.00     0.174 C 
HETATM   31  C   UNL     1       0.849  36.245  55.276  1.00  0.00     0.034 C 
ENDBRANCH  29  30
ENDBRANCH  27  29
ENDBRANCH   1  27
BRANCH   2  32
HETATM   32  C   UNL     1       4.074  36.603  60.210  1.00  0.00     0.439 C 
HETATM   33  F   UNL     1       4.753  35.890  61.137  1.00  0.00    -0.166 F 
HETATM   34  F   UNL     1       4.611  36.306  58.997  1.00  0.00    -0.166 F 
HETATM   35  F   UNL     1       4.334  37.910  60.422  1.00  0.00    -0.166 F 
ENDBRANCH   2  32
BRANCH   2  36
HETATM   36  O   UNL     1       1.816  37.487  59.950  1.00  0.00    -0.363 OA
HETATM   37  H   UNL     1       1.237  37.267  59.195  1.00  0.00     0.213 HD
ENDBRANCH   2  36
TORSDOF 8
ENDMDL
MODEL 4
REMARK VINA RESULT:      -7.2      9.515     12.809
REMARK  8 active torsions:
REMARK  status: ('A' for Active; 'I' for Inactive)
REMARK    1  A    between atoms: C_2  and  O_3 
REMARK    2  A    between atoms: O_3  and  C_4 
REMARK    3  A    between atoms: C_4  and  C_5 
REMARK    4  A    between atoms: C_6  and  C_8 
REMARK    5  A    between atoms: C_6  and  O_7 
REMARK    6  A    between atoms: C_16  and  C_17 
REMARK    7  A    between atoms: C_18  and  C_19 
REMARK    8  A    between atoms: N_26  and  C_27 
ROOT
HETATM    1  C   UNL     1       4.720  27.836  49.489  1.00  0.00     0.177 C 
HETATM    2  C   UNL     1       4.666  29.250  48.889  1.00  0.00     0.250 C 
HETATM    3  N   UNL     1       3.320  29.616  48.504  1.00  0.00    -0.303 N 
HETATM    4  C   UNL     1       2.226  29.258  49.212  1.00  0.00     0.319 C 
HETATM    5  O   UNL     1       1.148  29.810  49.041  1.00  0.00    -0.247 OA
HETATM    6  N   UNL     1       2.363  28.228  50.074  1.00  0.00    -0.333 N 
HETATM    7  C   UNL     1       3.605  27.609  50.508  1.00  0.00     0.142 C 
HETATM    8  H   UNL     1       3.194  30.465  47.962  1.00  0.00     0.167 HD
HETATM    9  H   UNL     1       1.510  27.995  50.571  1.00  0.00     0.165 HD
ENDROOT
BRANCH   7  10
HETATM   10  C   UNL     1       3.896  28.055  51.920  1.00  0.00     0.015 A 
HETATM   11  C   UNL     1       4.804  27.496  52.875  1.00  0.00     0.097 A 
HETATM   12  N   UNL     1       4.833  28.224  54.000  1.00  0.00    -0.167 NA
HETATM   13  N   UNL     1       3.953  29.231  53.818  1.00  0.00    -0.244 N 
HETATM   14  C   UNL     1       3.322  29.116  52.603  1.00  0.00     0.130 A 
BRANCH  11  15
HETATM   15  C   UNL     1       5.675  26.329  52.751  1.00  0.00    -0.005 A 
HETATM   16  C   UNL     1       5.207  25.070  53.157  1.00  0.00     0.014 A 
HETATM   17  C   UNL     1       6.027  23.944  53.063  1.00  0.00     0.001 A 
HETATM   18  C   UNL     1       7.320  24.065  52.559  1.00  0.00     0.000 A 
HETATM   19  C   UNL     1       7.790  25.309  52.142  1.00  0.00     0.001 A 
HETATM   20  C   UNL     1       6.970  26.437  52.230  1.00  0.00     0.014 A 
ENDBRANCH  11  15
BRANCH  13  21
HETATM   21  C   UNL     1       3.783  30.250  54.798  1.00  0.00     0.058 A 
HETATM   22  C   UNL     1       3.617  31.581  54.386  1.00  0.00     0.031 A 
HETATM   23  C   UNL     1       3.421  32.590  55.332  1.00  0.00     0.002 A 
HETATM   24  C   UNL     1       3.395  32.281  56.690  1.00  0.00     0.000 A 
HETATM   25  C   UNL     1       3.564  30.962  57.107  1.00  0.00     0.002 A 
HETATM   26  C   UNL     1       3.757  29.945  56.167  1.00  0.00     0.031 A 
ENDBRANCH  13  21
ENDBRANCH   7  10
BRANCH   1  27
HETATM   27  C   UNL     1       4.604  26.710  48.477  1.00  0.00     0.270 C 
HETATM   28  O   UNL     1       5.386  26.581  47.543  1.00  0.00    -0.265 OA
BRANCH  27  29
HETATM   29  O   UNL     1       3.610  25.830  48.770  1.00  0.00    -0.321 OA
BRANCH  29  30
HETATM   30  C   UNL     1       2.904  25.248  47.662  1.00  0.00     0.174 C 
HETATM   31  C   UNL     1       2.036  26.306  47.009  1.00  0.00     0.034 C 
ENDBRANCH  29  30
ENDBRANCH  27  29
ENDBRANCH   1  27
BRANCH   2  32
HETATM   32  C   UNL     1       5.303  30.308  49.863  1.00  0.00     0.439 C 
HETATM   33  F   UNL     1       6.077  29.724  50.806  1.00  0.00    -0.166 F 
HETATM   34  F   UNL     1       6.089  31.178  49.175  1.00  0.00    -0.166 F 
HETATM   35  F   UNL     1       4.379  31.061  50.494  1.00  0.00    -0.166 F 
ENDBRANCH   2  32
BRANCH   2  36
HETATM   36  O   UNL     1       5.397  29.279  47.654  1.00  0.00    -0.363 OA
HETATM   37  H   UNL     1       5.429  28.349  47.359  1.00  0.00     0.213 HD
ENDBRANCH   2  36
TORSDOF 8
ENDMDL
MODEL 5
REMARK VINA RESULT:      -7.2      3.110      7.021
REMARK  8 active torsions:
REMARK  status: ('A' for Active; 'I' for Inactive)
REMARK    1  A    between atoms: C_2  and  O_3 
REMARK    2  A    between atoms: O_3  and  C_4 
REMARK    3  A    between atoms: C_4  and  C_5 
REMARK    4  A    between atoms: C_6  and  C_8 
REMARK    5  A    between atoms: C_6  and  O_7 
REMARK    6  A    between atoms: C_16  and  C_17 
REMARK    7  A    between atoms: C_18  and  C_19 
REMARK    8  A    between atoms: N_26  and  C_27 
ROOT
HETATM    1  C   UNL     1       4.364  33.799  62.186  1.00  0.00     0.177 C 
HETATM    2  C   UNL     1       5.344  33.285  63.254  1.00  0.00     0.250 C 
HETATM    3  N   UNL     1       4.917  32.017  63.805  1.00  0.00    -0.303 N 
HETATM    4  C   UNL     1       4.326  31.052  63.068  1.00  0.00     0.319 C 
HETATM    5  O   UNL     1       4.241  29.901  63.473  1.00  0.00    -0.247 OA
HETATM    6  N   UNL     1       3.783  31.426  61.889  1.00  0.00    -0.333 N 
HETATM    7  C   UNL     1       3.966  32.696  61.205  1.00  0.00     0.142 C 
HETATM    8  H   UNL     1       5.408  31.663  64.619  1.00  0.00     0.167 HD
HETATM    9  H   UNL     1       3.345  30.666  61.381  1.00  0.00     0.165 HD
ENDROOT
BRANCH   7  10
HETATM   10  C   UNL     1       4.893  32.484  60.034  1.00  0.00     0.015 A 
HETATM   11  C   UNL     1       4.970  33.204  58.800  1.00  0.00     0.097 A 
HETATM   12  N   UNL     1       5.980  32.759  58.040  1.00  0.00    -0.167 NA
HETATM   13  N   UNL     1       6.553  31.751  58.732  1.00  0.00    -0.244 N 
HETATM   14  C   UNL     1       5.877  31.516  59.905  1.00  0.00     0.130 A 
BRANCH  11  15
HETATM   15  C   UNL     1       4.156  34.323  58.330  1.00  0.00    -0.005 A 
HETATM   16  C   UNL     1       3.324  34.153  57.213  1.00  0.00     0.014 A 
HETATM   17  C   UNL     1       2.549  35.212  56.736  1.00  0.00     0.001 A 
HETATM   18  C   UNL     1       2.597  36.450  57.372  1.00  0.00     0.000 A 
HETATM   19  C   UNL     1       3.412  36.627  58.490  1.00  0.00     0.001 A 
HETATM   20  C   UNL     1       4.184  35.566  58.972  1.00  0.00     0.014 A 
ENDBRANCH  11  15
BRANCH  13  21
HETATM   21  C   UNL     1       7.717  31.090  58.247  1.00  0.00     0.058 A 
HETATM   22  C   UNL     1       8.980  31.492  58.707  1.00  0.00     0.031 A 
HETATM   23  C   UNL     1      10.131  30.837  58.263  1.00  0.00     0.002 A 
HETATM   24  C   UNL     1      10.032  29.784  57.357  1.00  0.00     0.000 A 
HETATM   25  C   UNL     1       8.782  29.382  56.891  1.00  0.00     0.002 A 
HETATM   26  C   UNL     1       7.624  30.029  57.332  1.00  0.00     0.031 A 
ENDBRANCH  13  21
ENDBRANCH   7  10
BRANCH   1  27
HETATM   27  C   UNL     1       3.068  34.367  62.733  1.00  0.00     0.270 C 
HETATM   28  O   UNL     1       2.391  33.779  63.567  1.00  0.00    -0.265 OA
BRANCH  27  29
HETATM   29  O   UNL     1       2.796  35.617  62.270  1.00  0.00    -0.321 OA
BRANCH  29  30
HETATM   30  C   UNL     1       3.360  36.720  62.998  1.00  0.00     0.174 C 
HETATM   31  C   UNL     1       4.013  37.682  62.025  1.00  0.00     0.034 C 
ENDBRANCH  29  30
ENDBRANCH  27  29
ENDBRANCH   1  27
BRANCH   2  32
HETATM   32  C   UNL     1       6.812  33.213  62.693  1.00  0.00     0.439 C 
HETATM   33  F   UNL     1       6.993  34.044  61.642  1.00  0.00    -0.166 F 
HETATM   34  F   UNL     1       7.707  33.572  63.651  1.00  0.00    -0.166 F 
HETATM   35  F   UNL     1       7.163  31.971  62.304  1.00  0.00    -0.166 F 
ENDBRANCH   2  32
BRANCH   2  36
HETATM   36  O   UNL     1       5.337  34.172  64.382  1.00  0.00    -0.363 OA
HETATM   37  H   UNL     1       6.240  34.119  64.749  1.00  0.00     0.213 HD
ENDBRANCH   2  36
TORSDOF 8
ENDMDL
MODEL 6
REMARK VINA RESULT:      -7.1      3.421      7.691
REMARK  8 active torsions:
REMARK  status: ('A' for Active; 'I' for Inactive)
REMARK    1  A    between atoms: C_2  and  O_3 
REMARK    2  A    between atoms: O_3  and  C_4 
REMARK    3  A    between atoms: C_4  and  C_5 
REMARK    4  A    between atoms: C_6  and  C_8 
REMARK    5  A    between atoms: C_6  and  O_7 
REMARK    6  A    between atoms: C_16  and  C_17 
REMARK    7  A    between atoms: C_18  and  C_19 
REMARK    8  A    between atoms: N_26  and  C_27 
ROOT
HETATM    1  C   UNL     1       4.152  33.772  62.087  1.00  0.00     0.177 C 
HETATM    2  C   UNL     1       5.487  33.128  62.496  1.00  0.00     0.250 C 
HETATM    3  N   UNL     1       5.284  31.899  63.232  1.00  0.00    -0.303 N 
HETATM    4  C   UNL     1       4.295  31.023  62.950  1.00  0.00     0.319 C 
HETATM    5  O   UNL     1       4.315  29.877  63.379  1.00  0.00    -0.247 OA
HETATM    6  N   UNL     1       3.255  31.485  62.222  1.00  0.00    -0.333 N 
HETATM    7  C   UNL     1       3.183  32.746  61.502  1.00  0.00     0.142 C 
HETATM    8  H   UNL     1       6.090  31.472  63.677  1.00  0.00     0.167 HD
HETATM    9  H   UNL     1       2.538  30.790  62.047  1.00  0.00     0.165 HD
ENDROOT
BRANCH   7  10
HETATM   10  C   UNL     1       3.325  32.466  60.026  1.00  0.00     0.015 A 
HETATM   11  C   UNL     1       3.298  33.381  58.926  1.00  0.00     0.097 A 
HETATM   12  N   UNL     1       3.535  32.753  57.766  1.00  0.00    -0.167 NA
HETATM   13  N   UNL     1       3.694  31.448  58.073  1.00  0.00    -0.244 N 
HETATM   14  C   UNL     1       3.504  31.234  59.416  1.00  0.00     0.130 A 
BRANCH  11  15
HETATM   15  C   UNL     1       3.100  34.829  58.932  1.00  0.00    -0.005 A 
HETATM   16  C   UNL     1       4.097  35.668  58.411  1.00  0.00     0.014 A 
HETATM   17  C   UNL     1       3.936  37.055  58.420  1.00  0.00     0.001 A 
HETATM   18  C   UNL     1       2.776  37.616  58.948  1.00  0.00     0.000 A 
HETATM   19  C   UNL     1       1.773  36.792  59.458  1.00  0.00     0.001 A 
HETATM   20  C   UNL     1       1.930  35.403  59.444  1.00  0.00     0.014 A 
ENDBRANCH  11  15
BRANCH  13  21
HETATM   21  C   UNL     1       4.037  30.492  57.076  1.00  0.00     0.058 A 
HETATM   22  C   UNL     1       3.540  30.647  55.773  1.00  0.00     0.031 A 
HETATM   23  C   UNL     1       3.888  29.734  54.774  1.00  0.00     0.002 A 
HETATM   24  C   UNL     1       4.727  28.661  55.068  1.00  0.00     0.000 A 
HETATM   25  C   UNL     1       5.220  28.498  56.360  1.00  0.00     0.002 A 
HETATM   26  C   UNL     1       4.880  29.408  57.365  1.00  0.00     0.031 A 
ENDBRANCH  13  21
ENDBRANCH   7  10
BRANCH   1  27
HETATM   27  C   UNL     1       3.408  34.462  63.215  1.00  0.00     0.270 C 
HETATM   28  O   UNL     1       3.286  33.962  64.327  1.00  0.00    -0.265 OA
BRANCH  27  29
HETATM   29  O   UNL     1       2.978  35.710  62.886  1.00  0.00    -0.321 OA
BRANCH  29  30
HETATM   30  C   UNL     1       3.753  36.817  63.376  1.00  0.00     0.174 C 
HETATM   31  C   UNL     1       4.527  37.434  62.227  1.00  0.00     0.034 C 
ENDBRANCH  29  30
ENDBRANCH  27  29
ENDBRANCH   1  27
BRANCH   2  32
HETATM   32  C   UNL     1       6.422  32.913  61.249  1.00  0.00     0.439 C 
HETATM   33  F   UNL     1       6.070  33.706  60.212  1.00  0.00    -0.166 F 
HETATM   34  F   UNL     1       7.711  33.206  61.563  1.00  0.00    -0.166 F 
HETATM   35  F   UNL     1       6.426  31.638  60.812  1.00  0.00    -0.166 F 
ENDBRANCH   2  32
BRANCH   2  36
HETATM   36  O   UNL     1       6.169  33.979  63.428  1.00  0.00    -0.363 OA
HETATM   37  H   UNL     1       6.608  34.655  62.877  1.00  0.00     0.213 HD
ENDBRANCH   2  36
TORSDOF 8
ENDMDL
MODEL 7
REMARK VINA RESULT:      -7.1      2.770      6.665
REMARK  8 active torsions:
REMARK  status: ('A' for Active; 'I' for Inactive)
REMARK    1  A    between atoms: C_2  and  O_3 
REMARK    2  A    between atoms: O_3  and  C_4 
REMARK    3  A    between atoms: C_4  and  C_5 
REMARK    4  A    between atoms: C_6  and  C_8 
REMARK    5  A    between atoms: C_6  and  O_7 
REMARK    6  A    between atoms: C_16  and  C_17 
REMARK    7  A    between atoms: C_18  and  C_19 
REMARK    8  A    between atoms: N_26  and  C_27 
ROOT
HETATM    1  C   UNL     1       4.847  34.858  62.974  1.00  0.00     0.177 C 
HETATM    2  C   UNL     1       3.348  35.119  63.197  1.00  0.00     0.250 C 
HETATM    3  N   UNL     1       2.978  36.465  62.816  1.00  0.00    -0.303 N 
HETATM    4  C   UNL     1       3.512  37.107  61.754  1.00  0.00     0.319 C 
HETATM    5  O   UNL     1       2.988  38.106  61.282  1.00  0.00    -0.247 OA
HETATM    6  N   UNL     1       4.680  36.629  61.273  1.00  0.00    -0.333 N 
HETATM    7  C   UNL     1       5.313  35.364  61.609  1.00  0.00     0.142 C 
HETATM    8  H   UNL     1       2.048  36.790  63.061  1.00  0.00     0.167 HD
HETATM    9  H   UNL     1       5.042  37.152  60.484  1.00  0.00     0.165 HD
ENDROOT
BRANCH   7  10
HETATM   10  C   UNL     1       5.131  34.412  60.452  1.00  0.00     0.015 A 
HETATM   11  C   UNL     1       5.805  33.179  60.181  1.00  0.00     0.097 A 
HETATM   12  N   UNL     1       5.308  32.585  59.088  1.00  0.00    -0.167 NA
HETATM   13  N   UNL     1       4.342  33.405  58.622  1.00  0.00    -0.244 N 
HETATM   14  C   UNL     1       4.260  34.546  59.382  1.00  0.00     0.130 A 
BRANCH  11  15
HETATM   15  C   UNL     1       6.869  32.521  60.937  1.00  0.00    -0.005 A 
HETATM   16  C   UNL     1       8.188  32.568  60.459  1.00  0.00     0.014 A 
HETATM   17  C   UNL     1       9.218  31.933  61.156  1.00  0.00     0.001 A 
HETATM   18  C   UNL     1       8.941  31.248  62.336  1.00  0.00     0.000 A 
HETATM   19  C   UNL     1       7.636  31.206  62.826  1.00  0.00     0.001 A 
HETATM   20  C   UNL     1       6.603  31.845  62.133  1.00  0.00     0.014 A 
ENDBRANCH  11  15
BRANCH  13  21
HETATM   21  C   UNL     1       3.545  33.043  57.499  1.00  0.00     0.058 A 
HETATM   22  C   UNL     1       2.844  34.039  56.803  1.00  0.00     0.031 A 
HETATM   23  C   UNL     1       2.079  33.708  55.682  1.00  0.00     0.002 A 
HETATM   24  C   UNL     1       2.003  32.385  55.253  1.00  0.00     0.000 A 
HETATM   25  C   UNL     1       2.691  31.390  55.942  1.00  0.00     0.002 A 
HETATM   26  C   UNL     1       3.463  31.712  57.063  1.00  0.00     0.031 A 
ENDBRANCH  13  21
ENDBRANCH   7  10
BRANCH   1  27
HETATM   27  C   UNL     1       5.764  35.501  63.999  1.00  0.00     0.270 C 
HETATM   28  O   UNL     1       5.587  36.637  64.421  1.00  0.00    -0.265 OA
BRANCH  27  29
HETATM   29  O   UNL     1       6.730  34.658  64.453  1.00  0.00    -0.321 OA
BRANCH  29  30
HETATM   30  C   UNL     1       6.325  33.642  65.385  1.00  0.00     0.174 C 
HETATM   31  C   UNL     1       6.531  34.148  66.799  1.00  0.00     0.034 C 
ENDBRANCH  29  30
ENDBRANCH  27  29
ENDBRANCH   1  27
BRANCH   2  32
HETATM   32  C   UNL     1       2.467  34.041  62.465  1.00  0.00     0.439 C 
HETATM   33  F   UNL     1       2.003  34.490  61.277  1.00  0.00    -0.166 F 
HETATM   34  F   UNL     1       3.193  32.919  62.218  1.00  0.00    -0.166 F 
HETATM   35  F   UNL     1       1.408  33.645  63.200  1.00  0.00    -0.166 F 
ENDBRANCH   2  32
BRANCH   2  36
HETATM   36  O   UNL     1       3.052  35.064  64.600  1.00  0.00    -0.363 OA
HETATM   37  H   UNL     1       2.631  34.194  64.735  1.00  0.00     0.213 HD
ENDBRANCH   2  36
TORSDOF 8
ENDMDL
MODEL 8
REMARK VINA RESULT:      -6.9      3.396      6.026
REMARK  8 active torsions:
REMARK  status: ('A' for Active; 'I' for Inactive)
REMARK    1  A    between atoms: C_2  and  O_3 
REMARK    2  A    between atoms: O_3  and  C_4 
REMARK    3  A    between atoms: C_4  and  C_5 
REMARK    4  A    between atoms: C_6  and  C_8 
REMARK    5  A    between atoms: C_6  and  O_7 
REMARK    6  A    between atoms: C_16  and  C_17 
REMARK    7  A    between atoms: C_18  and  C_19 
REMARK    8  A    between atoms: N_26  and  C_27 
ROOT
HETATM    1  C   UNL     1       4.036  34.436  62.764  1.00  0.00     0.177 C 
HETATM    2  C   UNL     1       4.163  34.524  64.293  1.00  0.00     0.250 C 
HETATM    3  N   UNL     1       5.416  33.968  64.759  1.00  0.00    -0.303 N 
HETATM    4  C   UNL     1       6.579  34.103  64.085  1.00  0.00     0.319 C 
HETATM    5  O   UNL     1       7.656  33.888  64.623  1.00  0.00    -0.247 OA
HETATM    6  N   UNL     1       6.497  34.430  62.777  1.00  0.00    -0.333 N 
HETATM    7  C   UNL     1       5.316  34.887  62.062  1.00  0.00     0.142 C 
HETATM    8  H   UNL     1       5.537  33.839  65.758  1.00  0.00     0.167 HD
HETATM    9  H   UNL     1       7.397  34.508  62.319  1.00  0.00     0.165 HD
ENDROOT
BRANCH   7  10
HETATM   10  C   UNL     1       5.449  36.370  61.814  1.00  0.00     0.015 A 
HETATM   11  C   UNL     1       4.741  37.198  60.887  1.00  0.00     0.097 A 
HETATM   12  N   UNL     1       5.091  38.485  61.019  1.00  0.00    -0.167 NA
HETATM   13  N   UNL     1       6.027  38.520  61.992  1.00  0.00    -0.244 N 
HETATM   14  C   UNL     1       6.313  37.254  62.441  1.00  0.00     0.130 A 
BRANCH  11  15
HETATM   15  C   UNL     1       3.717  36.829  59.911  1.00  0.00    -0.005 A 
HETATM   16  C   UNL     1       4.024  36.849  58.543  1.00  0.00     0.014 A 
HETATM   17  C   UNL     1       3.057  36.516  57.592  1.00  0.00     0.001 A 
HETATM   18  C   UNL     1       1.776  36.156  58.001  1.00  0.00     0.000 A 
HETATM   19  C   UNL     1       1.462  36.120  59.359  1.00  0.00     0.001 A 
HETATM   20  C   UNL     1       2.431  36.449  60.313  1.00  0.00     0.014 A 
ENDBRANCH  11  15
BRANCH  13  21
HETATM   21  C   UNL     1       6.572  39.754  62.447  1.00  0.00     0.058 A 
HETATM   22  C   UNL     1       7.048  39.852  63.764  1.00  0.00     0.031 A 
HETATM   23  C   UNL     1       7.611  41.046  64.220  1.00  0.00     0.002 A 
HETATM   24  C   UNL     1       7.700  42.148  63.372  1.00  0.00     0.000 A 
HETATM   25  C   UNL     1       7.225  42.059  62.066  1.00  0.00     0.002 A 
HETATM   26  C   UNL     1       6.662  40.867  61.599  1.00  0.00     0.031 A 
ENDBRANCH  13  21
ENDBRANCH   7  10
BRANCH   1  27
HETATM   27  C   UNL     1       3.727  33.050  62.229  1.00  0.00     0.270 C 
HETATM   28  O   UNL     1       4.105  32.028  62.790  1.00  0.00    -0.265 OA
BRANCH  27  29
HETATM   29  O   UNL     1       2.925  33.067  61.132  1.00  0.00    -0.321 OA
BRANCH  29  30
HETATM   30  C   UNL     1       3.320  32.247  60.020  1.00  0.00     0.174 C 
HETATM   31  C   UNL     1       3.973  33.116  58.963  1.00  0.00     0.034 C 
ENDBRANCH  29  30
ENDBRANCH  27  29
ENDBRANCH   1  27
BRANCH   2  32
HETATM   32  C   UNL     1       3.954  35.998  64.799  1.00  0.00     0.439 C 
HETATM   33  F   UNL     1       3.231  36.043  65.941  1.00  0.00    -0.166 F 
HETATM   34  F   UNL     1       5.151  36.589  65.055  1.00  0.00    -0.166 F 
HETATM   35  F   UNL     1       3.340  36.781  63.889  1.00  0.00    -0.166 F 
ENDBRANCH   2  32
BRANCH   2  36
HETATM   36  O   UNL     1       3.168  33.692  64.909  1.00  0.00    -0.363 OA
HETATM   37  H   UNL     1       2.874  33.086  64.202  1.00  0.00     0.213 HD
ENDBRANCH   2  36
TORSDOF 8
ENDMDL
MODEL 9
REMARK VINA RESULT:      -6.8     24.109     26.820
REMARK  8 active torsions:
REMARK  status: ('A' for Active; 'I' for Inactive)
REMARK    1  A    between atoms: C_2  and  O_3 
REMARK    2  A    between atoms: O_3  and  C_4 
REMARK    3  A    between atoms: C_4  and  C_5 
REMARK    4  A    between atoms: C_6  and  C_8 
REMARK    5  A    between atoms: C_6  and  O_7 
REMARK    6  A    between atoms: C_16  and  C_17 
REMARK    7  A    between atoms: C_18  and  C_19 
REMARK    8  A    between atoms: N_26  and  C_27 
ROOT
HETATM    1  C   UNL     1      13.563  11.141  52.883  1.00  0.00     0.177 C 
HETATM    2  C   UNL     1      12.943  12.200  53.810  1.00  0.00     0.250 C 
HETATM    3  N   UNL     1      11.701  11.740  54.392  1.00  0.00    -0.303 N 
HETATM    4  C   UNL     1      11.493  10.461  54.775  1.00  0.00     0.319 C 
HETATM    5  O   UNL     1      10.570  10.159  55.518  1.00  0.00    -0.247 OA
HETATM    6  N   UNL     1      12.317   9.524  54.257  1.00  0.00    -0.333 N 
HETATM    7  C   UNL     1      13.550   9.752  53.521  1.00  0.00     0.142 C 
HETATM    8  H   UNL     1      11.135  12.413  54.898  1.00  0.00     0.167 HD
HETATM    9  H   UNL     1      12.111   8.582  54.570  1.00  0.00     0.165 HD
ENDROOT
BRANCH   7  10
HETATM   10  C   UNL     1      14.715   9.426  54.423  1.00  0.00     0.015 A 
HETATM   11  C   UNL     1      16.063   9.094  54.073  1.00  0.00     0.097 A 
HETATM   12  N   UNL     1      16.824   8.943  55.166  1.00  0.00    -0.167 NA
HETATM   13  N   UNL     1      16.008   9.144  56.222  1.00  0.00    -0.244 N 
HETATM   14  C   UNL     1      14.718   9.368  55.808  1.00  0.00     0.130 A 
BRANCH  11  15
HETATM   15  C   UNL     1      16.668   8.955  52.751  1.00  0.00    -0.005 A 
HETATM   16  C   UNL     1      17.442   7.821  52.458  1.00  0.00     0.014 A 
HETATM   17  C   UNL     1      18.043   7.675  51.206  1.00  0.00     0.001 A 
HETATM   18  C   UNL     1      17.874   8.659  50.235  1.00  0.00     0.000 A 
HETATM   19  C   UNL     1      17.097   9.784  50.510  1.00  0.00     0.001 A 
HETATM   20  C   UNL     1      16.490   9.930  51.761  1.00  0.00     0.014 A 
ENDBRANCH  11  15
BRANCH  13  21
HETATM   21  C   UNL     1      16.508   9.133  57.555  1.00  0.00     0.058 A 
HETATM   22  C   UNL     1      17.601   9.948  57.887  1.00  0.00     0.031 A 
HETATM   23  C   UNL     1      18.089   9.971  59.196  1.00  0.00     0.002 A 
HETATM   24  C   UNL     1      17.496   9.181  60.178  1.00  0.00     0.000 A 
HETATM   25  C   UNL     1      16.414   8.366  59.855  1.00  0.00     0.002 A 
HETATM   26  C   UNL     1      15.917   8.339  58.548  1.00  0.00     0.031 A 
ENDBRANCH  13  21
ENDBRANCH   7  10
BRANCH   1  27
HETATM   27  C   UNL     1      12.878  10.994  51.537  1.00  0.00     0.270 C 
HETATM   28  O   UNL     1      12.679  11.946  50.792  1.00  0.00    -0.265 OA
BRANCH  27  29
HETATM   29  O   UNL     1      12.598   9.702  51.219  1.00  0.00    -0.321 OA
BRANCH  29  30
HETATM   30  C   UNL     1      13.151   9.197  49.992  1.00  0.00     0.174 C 
HETATM   31  C   UNL     1      13.804   7.853  50.252  1.00  0.00     0.034 C 
ENDBRANCH  29  30
ENDBRANCH  27  29
ENDBRANCH   1  27
BRANCH   2  32
HETATM   32  C   UNL     1      13.967  12.664  54.910  1.00  0.00     0.439 C 
HETATM   33  F   UNL     1      15.227  12.259  54.631  1.00  0.00    -0.166 F 
HETATM   34  F   UNL     1      13.989  14.021  54.999  1.00  0.00    -0.166 F 
HETATM   35  F   UNL     1      13.651  12.216  56.141  1.00  0.00    -0.166 F 
ENDBRANCH   2  32
BRANCH   2  36
HETATM   36  O   UNL     1      12.558  13.349  53.040  1.00  0.00    -0.363 OA
HETATM   37  H   UNL     1      12.083  13.925  53.669  1.00  0.00     0.213 HD
ENDBRANCH   2  36
TORSDOF 8
ENDMDL
MODEL 10
REMARK VINA RESULT:      -6.7     24.462     26.874
REMARK  8 active torsions:
REMARK  status: ('A' for Active; 'I' for Inactive)
REMARK    1  A    between atoms: C_2  and  O_3 
REMARK    2  A    between atoms: O_3  and  C_4 
REMARK    3  A    between atoms: C_4  and  C_5 
REMARK    4  A    between atoms: C_6  and  C_8 
REMARK    5  A    between atoms: C_6  and  O_7 
REMARK    6  A    between atoms: C_16  and  C_17 
REMARK    7  A    between atoms: C_18  and  C_19 
REMARK    8  A    between atoms: N_26  and  C_27 
ROOT
HETATM    1  C   UNL     1      14.642   9.910  52.094  1.00  0.00     0.177 C 
HETATM    2  C   UNL     1      14.126  10.784  50.939  1.00  0.00     0.250 C 
HETATM    3  N   UNL     1      13.469   9.992  49.922  1.00  0.00    -0.303 N 
HETATM    4  C   UNL     1      12.701   8.916  50.204  1.00  0.00     0.319 C 
HETATM    5  O   UNL     1      11.933   8.446  49.377  1.00  0.00    -0.247 OA
HETATM    6  N   UNL     1      12.863   8.349  51.419  1.00  0.00    -0.333 N 
HETATM    7  C   UNL     1      13.592   8.898  52.551  1.00  0.00     0.142 C 
HETATM    8  H   UNL     1      13.225  10.447  49.048  1.00  0.00     0.167 HD
HETATM    9  H   UNL     1      12.271   7.541  51.574  1.00  0.00     0.165 HD
ENDROOT
BRANCH   7  10
HETATM   10  C   UNL     1      12.595   9.392  53.571  1.00  0.00     0.015 A 
HETATM   11  C   UNL     1      12.823   9.863  54.902  1.00  0.00     0.097 A 
HETATM   12  N   UNL     1      11.685  10.286  55.469  1.00  0.00    -0.167 NA
HETATM   13  N   UNL     1      10.713  10.083  54.554  1.00  0.00    -0.244 N 
HETATM   14  C   UNL     1      11.219   9.481  53.428  1.00  0.00     0.130 A 
BRANCH  11  15
HETATM   15  C   UNL     1      14.078   9.970  55.644  1.00  0.00    -0.005 A 
HETATM   16  C   UNL     1      15.008  10.960  55.293  1.00  0.00     0.014 A 
HETATM   17  C   UNL     1      16.220  11.071  55.978  1.00  0.00     0.001 A 
HETATM   18  C   UNL     1      16.513  10.195  57.020  1.00  0.00     0.000 A 
HETATM   19  C   UNL     1      15.591   9.214  57.385  1.00  0.00     0.001 A 
HETATM   20  C   UNL     1      14.374   9.105  56.704  1.00  0.00     0.014 A 
ENDBRANCH  11  15
BRANCH  13  21
HETATM   21  C   UNL     1       9.371  10.492  54.799  1.00  0.00     0.058 A 
HETATM   22  C   UNL     1       8.925  11.724  54.298  1.00  0.00     0.031 A 
HETATM   23  C   UNL     1       7.604  12.131  54.504  1.00  0.00     0.002 A 
HETATM   24  C   UNL     1       6.724  11.316  55.212  1.00  0.00     0.000 A 
HETATM   25  C   UNL     1       7.161  10.093  55.717  1.00  0.00     0.002 A 
HETATM   26  C   UNL     1       8.480   9.677  55.513  1.00  0.00     0.031 A 
ENDBRANCH  13  21
ENDBRANCH   7  10
BRANCH   1  27
HETATM   27  C   UNL     1      15.891   9.109  51.777  1.00  0.00     0.270 C 
HETATM   28  O   UNL     1      16.067   8.563  50.694  1.00  0.00    -0.265 OA
BRANCH  27  29
HETATM   29  O   UNL     1      16.813   9.141  52.776  1.00  0.00    -0.321 OA
BRANCH  29  30
HETATM   30  C   UNL     1      17.363   7.882  53.198  1.00  0.00     0.174 C 
HETATM   31  C   UNL     1      16.497   7.298  54.296  1.00  0.00     0.034 C 
ENDBRANCH  29  30
ENDBRANCH  27  29
ENDBRANCH   1  27
BRANCH   2  32
HETATM   32  C   UNL     1      13.201  11.940  51.468  1.00  0.00     0.439 C 
HETATM   33  F   UNL     1      13.510  12.294  52.736  1.00  0.00    -0.166 F 
HETATM   34  F   UNL     1      13.334  13.050  50.694  1.00  0.00    -0.166 F 
HETATM   35  F   UNL     1      11.892  11.619  51.435  1.00  0.00    -0.166 F 
ENDBRANCH   2  32
BRANCH   2  36
HETATM   36  O   UNL     1      15.237  11.376  50.249  1.00  0.00    -0.363 OA
HETATM   37  H   UNL     1      14.887  12.208  49.877  1.00  0.00     0.213 HD
ENDBRANCH   2  36
TORSDOF 8
ENDMDL
