MODEL 1
REMARK VINA RESULT:      -8.9      0.000      0.000
REMARK  3 active torsions:
REMARK  status: ('A' for Active; 'I' for Inactive)
REMARK    1  A    between atoms: N_5  and  C_6 
REMARK    2  A    between atoms: C_7  and  C_8 
REMARK       I    between atoms: C_8  and  N_9 
REMARK    3  A    between atoms: N_9  and  N_10 
ROOT
HETATM    1  C   UNL     1       4.130  28.355  55.663  1.00  0.00     0.056 C 
HETATM    2  C   UNL     1       5.512  27.814  55.982  1.00  0.00     0.158 C 
HETATM    3  C   UNL     1       6.573  28.916  56.079  1.00  0.00     0.267 C 
HETATM    4  O   UNL     1       6.817  29.721  55.185  1.00  0.00    -0.269 OA
HETATM    5  N   UNL     1       7.282  28.720  57.246  1.00  0.00    -0.230 N 
HETATM    6  C   UNL     1       6.821  27.599  57.896  1.00  0.00     0.333 C 
HETATM    7  O   UNL     1       7.366  27.018  58.824  1.00  0.00    -0.246 OA
HETATM    8  N   UNL     1       5.616  27.207  57.305  1.00  0.00    -0.309 N 
HETATM    9  C   UNL     1       5.093  25.851  57.508  1.00  0.00     0.134 C 
HETATM   10  C   UNL     1       5.807  24.816  56.612  1.00  0.00     0.061 C 
HETATM   11  C   UNL     1       6.131  25.410  55.275  1.00  0.00    -0.018 A 
HETATM   12  C   UNL     1       5.985  26.761  55.011  1.00  0.00     0.055 A 
HETATM   13  N   UNL     1       6.451  27.002  53.745  1.00  0.00    -0.356 N 
HETATM   14  H   UNL     1       6.513  27.912  53.303  1.00  0.00     0.166 HD
HETATM   15  C   UNL     1       6.953  25.836  53.207  1.00  0.00     0.043 A 
HETATM   16  C   UNL     1       6.741  24.815  54.138  1.00  0.00    -0.001 A 
HETATM   17  C   UNL     1       7.597  25.615  51.985  1.00  0.00     0.030 A 
HETATM   18  C   UNL     1       8.034  24.317  51.706  1.00  0.00     0.002 A 
HETATM   19  C   UNL     1       7.827  23.278  52.611  1.00  0.00     0.001 A 
HETATM   20  C   UNL     1       7.183  23.514  53.831  1.00  0.00     0.014 A 
ENDROOT
BRANCH   5  21
HETATM   21  C   UNL     1       8.595  29.220  57.369  1.00  0.00     0.063 A 
HETATM   22  C   UNL     1       8.870  30.383  58.104  1.00  0.00     0.060 A 
HETATM   23  C   UNL     1      10.137  30.977  58.026  1.00  0.00     0.019 A 
HETATM   24  C   UNL     1      11.137  30.398  57.245  1.00  0.00     0.001 A 
HETATM   25  C   UNL     1      10.881  29.217  56.549  1.00  0.00     0.002 A 
HETATM   26  C   UNL     1       9.616  28.627  56.609  1.00  0.00     0.031 A 
BRANCH  22  27
HETATM   27  C   UNL     1       7.891  30.990  59.039  1.00  0.00     0.268 C 
HETATM   28  N   UNL     1       7.949  30.527  60.350  1.00  0.00    -0.290 N 
HETATM   29  H   UNL     1       8.676  29.876  60.648  1.00  0.00     0.183 HD
HETATM   30  O   UNL     1       7.143  31.892  58.674  1.00  0.00    -0.266 OA
BRANCH  28  31
HETATM   31  N   UNL     1       7.117  31.107  61.327  1.00  0.00    -0.247 NA
HETATM   32  H   UNL     1       7.669  31.845  61.784  1.00  0.00     0.143 HD
HETATM   33  H   UNL     1       6.997  30.417  62.076  1.00  0.00     0.143 HD
ENDBRANCH  28  31
ENDBRANCH  22  27
ENDBRANCH   5  21
TORSDOF 3
ENDMDL
MODEL 2
REMARK VINA RESULT:      -8.5      1.583      2.013
REMARK  3 active torsions:
REMARK  status: ('A' for Active; 'I' for Inactive)
REMARK    1  A    between atoms: N_5  and  C_6 
REMARK    2  A    between atoms: C_7  and  C_8 
REMARK       I    between atoms: C_8  and  N_9 
REMARK    3  A    between atoms: N_9  and  N_10 
ROOT
HETATM    1  C   UNL     1       3.609  29.147  57.026  1.00  0.00     0.056 C 
HETATM    2  C   UNL     1       4.981  28.661  56.595  1.00  0.00     0.158 C 
HETATM    3  C   UNL     1       6.094  29.663  56.920  1.00  0.00     0.267 C 
HETATM    4  O   UNL     1       6.107  30.830  56.537  1.00  0.00    -0.269 OA
HETATM    5  N   UNL     1       7.112  28.976  57.549  1.00  0.00    -0.230 N 
HETATM    6  C   UNL     1       6.796  27.641  57.637  1.00  0.00     0.333 C 
HETATM    7  O   UNL     1       7.558  26.728  57.926  1.00  0.00    -0.246 OA
HETATM    8  N   UNL     1       5.443  27.482  57.319  1.00  0.00    -0.309 N 
HETATM    9  C   UNL     1       4.915  26.165  56.946  1.00  0.00     0.134 C 
HETATM   10  C   UNL     1       5.246  25.804  55.482  1.00  0.00     0.061 C 
HETATM   11  C   UNL     1       5.184  27.022  54.611  1.00  0.00    -0.018 A 
HETATM   12  C   UNL     1       5.058  28.298  55.133  1.00  0.00     0.055 A 
HETATM   13  N   UNL     1       5.129  29.192  54.096  1.00  0.00    -0.356 N 
HETATM   14  H   UNL     1       5.114  30.202  54.186  1.00  0.00     0.166 HD
HETATM   15  C   UNL     1       5.359  28.516  52.917  1.00  0.00     0.043 A 
HETATM   16  C   UNL     1       5.373  27.149  53.209  1.00  0.00    -0.001 A 
HETATM   17  C   UNL     1       5.579  29.011  51.627  1.00  0.00     0.030 A 
HETATM   18  C   UNL     1       5.818  28.083  50.607  1.00  0.00     0.002 A 
HETATM   19  C   UNL     1       5.828  26.715  50.868  1.00  0.00     0.001 A 
HETATM   20  C   UNL     1       5.607  26.235  52.164  1.00  0.00     0.014 A 
ENDROOT
BRANCH   5  21
HETATM   21  C   UNL     1       8.430  29.475  57.512  1.00  0.00     0.063 A 
HETATM   22  C   UNL     1       8.866  30.460  58.411  1.00  0.00     0.060 A 
HETATM   23  C   UNL     1      10.101  31.093  58.212  1.00  0.00     0.019 A 
HETATM   24  C   UNL     1      10.914  30.724  57.140  1.00  0.00     0.001 A 
HETATM   25  C   UNL     1      10.505  29.714  56.271  1.00  0.00     0.002 A 
HETATM   26  C   UNL     1       9.268  29.089  56.453  1.00  0.00     0.031 A 
BRANCH  22  27
HETATM   27  C   UNL     1       8.106  30.824  59.632  1.00  0.00     0.268 C 
HETATM   28  N   UNL     1       8.538  30.219  60.808  1.00  0.00    -0.290 N 
HETATM   29  H   UNL     1       9.374  29.635  60.825  1.00  0.00     0.183 HD
HETATM   30  O   UNL     1       7.209  31.661  59.593  1.00  0.00    -0.266 OA
BRANCH  28  31
HETATM   31  N   UNL     1       7.931  30.570  62.030  1.00  0.00    -0.247 NA
HETATM   32  H   UNL     1       8.099  31.576  62.164  1.00  0.00     0.143 HD
HETATM   33  H   UNL     1       8.487  30.146  62.781  1.00  0.00     0.143 HD
ENDBRANCH  28  31
ENDBRANCH  22  27
ENDBRANCH   5  21
TORSDOF 3
ENDMDL
MODEL 3
REMARK VINA RESULT:      -8.3      6.681     11.552
REMARK  3 active torsions:
REMARK  status: ('A' for Active; 'I' for Inactive)
REMARK    1  A    between atoms: N_5  and  C_6 
REMARK    2  A    between atoms: C_7  and  C_8 
REMARK       I    between atoms: C_8  and  N_9 
REMARK    3  A    between atoms: N_9  and  N_10 
ROOT
HETATM    1  C   UNL     1       2.015  34.164  63.244  1.00  0.00     0.056 C 
HETATM    2  C   UNL     1       3.515  34.353  63.378  1.00  0.00     0.158 C 
HETATM    3  C   UNL     1       4.315  33.197  62.768  1.00  0.00     0.267 C 
HETATM    4  O   UNL     1       4.179  32.019  63.086  1.00  0.00    -0.269 OA
HETATM    5  N   UNL     1       5.292  33.739  61.958  1.00  0.00    -0.230 N 
HETATM    6  C   UNL     1       5.233  35.113  62.003  1.00  0.00     0.333 C 
HETATM    7  O   UNL     1       6.081  35.893  61.592  1.00  0.00    -0.246 OA
HETATM    8  N   UNL     1       4.036  35.486  62.622  1.00  0.00    -0.309 N 
HETATM    9  C   UNL     1       3.868  36.840  63.162  1.00  0.00     0.134 C 
HETATM   10  C   UNL     1       4.565  37.007  64.530  1.00  0.00     0.061 C 
HETATM   11  C   UNL     1       4.450  35.750  65.337  1.00  0.00    -0.018 A 
HETATM   12  C   UNL     1       3.968  34.568  64.801  1.00  0.00     0.055 A 
HETATM   13  N   UNL     1       4.079  33.589  65.754  1.00  0.00    -0.356 N 
HETATM   14  H   UNL     1       3.848  32.611  65.625  1.00  0.00     0.166 HD
HETATM   15  C   UNL     1       4.681  34.108  66.881  1.00  0.00     0.043 A 
HETATM   16  C   UNL     1       4.901  35.470  66.654  1.00  0.00    -0.001 A 
HETATM   17  C   UNL     1       5.067  33.472  68.066  1.00  0.00     0.030 A 
HETATM   18  C   UNL     1       5.693  34.248  69.046  1.00  0.00     0.002 A 
HETATM   19  C   UNL     1       5.917  35.609  68.851  1.00  0.00     0.001 A 
HETATM   20  C   UNL     1       5.526  36.232  67.660  1.00  0.00     0.014 A 
ENDROOT
BRANCH   5  21
HETATM   21  C   UNL     1       6.464  33.007  61.678  1.00  0.00     0.063 A 
HETATM   22  C   UNL     1       6.577  32.222  60.520  1.00  0.00     0.060 A 
HETATM   23  C   UNL     1       7.656  31.338  60.377  1.00  0.00     0.019 A 
HETATM   24  C   UNL     1       8.635  31.259  61.367  1.00  0.00     0.001 A 
HETATM   25  C   UNL     1       8.550  32.071  62.497  1.00  0.00     0.002 A 
HETATM   26  C   UNL     1       7.470  32.943  62.655  1.00  0.00     0.031 A 
BRANCH  22  27
HETATM   27  C   UNL     1       5.635  32.334  59.380  1.00  0.00     0.268 C 
HETATM   28  N   UNL     1       4.470  31.581  59.492  1.00  0.00    -0.290 N 
HETATM   29  H   UNL     1       4.256  31.062  60.344  1.00  0.00     0.183 HD
HETATM   30  O   UNL     1       5.856  33.101  58.449  1.00  0.00    -0.266 OA
BRANCH  28  31
HETATM   31  N   UNL     1       3.477  31.691  58.498  1.00  0.00    -0.247 NA
HETATM   32  H   UNL     1       2.871  30.865  58.595  1.00  0.00     0.143 HD
HETATM   33  H   UNL     1       3.932  31.532  57.593  1.00  0.00     0.143 HD
ENDBRANCH  28  31
ENDBRANCH  22  27
ENDBRANCH   5  21
TORSDOF 3
ENDMDL
MODEL 4
REMARK VINA RESULT:      -8.2      8.279      9.790
REMARK  3 active torsions:
REMARK  status: ('A' for Active; 'I' for Inactive)
REMARK    1  A    between atoms: N_5  and  C_6 
REMARK    2  A    between atoms: C_7  and  C_8 
REMARK       I    between atoms: C_8  and  N_9 
REMARK    3  A    between atoms: N_9  and  N_10 
ROOT
HETATM    1  C   UNL     1       3.227  37.480  62.545  1.00  0.00     0.056 C 
HETATM    2  C   UNL     1       3.595  36.140  61.935  1.00  0.00     0.158 C 
HETATM    3  C   UNL     1       5.002  35.676  62.326  1.00  0.00     0.267 C 
HETATM    4  O   UNL     1       6.024  36.330  62.135  1.00  0.00    -0.269 OA
HETATM    5  N   UNL     1       4.913  34.368  62.755  1.00  0.00    -0.230 N 
HETATM    6  C   UNL     1       3.614  33.925  62.654  1.00  0.00     0.333 C 
HETATM    7  O   UNL     1       3.230  32.767  62.731  1.00  0.00    -0.246 OA
HETATM    8  N   UNL     1       2.786  35.028  62.423  1.00  0.00    -0.309 N 
HETATM    9  C   UNL     1       1.432  34.844  61.887  1.00  0.00     0.134 C 
HETATM   10  C   UNL     1       1.443  34.601  60.362  1.00  0.00     0.061 C 
HETATM   11  C   UNL     1       2.512  35.419  59.705  1.00  0.00    -0.018 A 
HETATM   12  C   UNL     1       3.467  36.109  60.432  1.00  0.00     0.055 A 
HETATM   13  N   UNL     1       4.352  36.672  59.549  1.00  0.00    -0.356 N 
HETATM   14  H   UNL     1       5.183  37.195  59.800  1.00  0.00     0.166 HD
HETATM   15  C   UNL     1       4.017  36.306  58.262  1.00  0.00     0.043 A 
HETATM   16  C   UNL     1       2.850  35.540  58.331  1.00  0.00    -0.001 A 
HETATM   17  C   UNL     1       4.670  36.574  57.054  1.00  0.00     0.030 A 
HETATM   18  C   UNL     1       4.114  36.046  55.884  1.00  0.00     0.002 A 
HETATM   19  C   UNL     1       2.947  35.287  55.922  1.00  0.00     0.001 A 
HETATM   20  C   UNL     1       2.306  35.026  57.138  1.00  0.00     0.014 A 
ENDROOT
BRANCH   5  21
HETATM   21  C   UNL     1       6.041  33.524  62.693  1.00  0.00     0.063 A 
HETATM   22  C   UNL     1       6.803  33.236  63.835  1.00  0.00     0.060 A 
HETATM   23  C   UNL     1       8.036  32.581  63.708  1.00  0.00     0.019 A 
HETATM   24  C   UNL     1       8.494  32.187  62.451  1.00  0.00     0.001 A 
HETATM   25  C   UNL     1       7.719  32.432  61.318  1.00  0.00     0.002 A 
HETATM   26  C   UNL     1       6.496  33.097  61.435  1.00  0.00     0.031 A 
BRANCH  22  27
HETATM   27  C   UNL     1       6.328  33.527  65.210  1.00  0.00     0.268 C 
HETATM   28  N   UNL     1       7.222  34.225  66.016  1.00  0.00    -0.290 N 
HETATM   29  H   UNL     1       8.104  34.578  65.644  1.00  0.00     0.183 HD
HETATM   30  O   UNL     1       5.192  33.228  65.564  1.00  0.00    -0.266 OA
BRANCH  28  31
HETATM   31  N   UNL     1       6.825  34.621  67.309  1.00  0.00    -0.247 NA
HETATM   32  H   UNL     1       7.459  35.380  67.592  1.00  0.00     0.143 HD
HETATM   33  H   UNL     1       7.078  33.863  67.952  1.00  0.00     0.143 HD
ENDBRANCH  28  31
ENDBRANCH  22  27
ENDBRANCH   5  21
TORSDOF 3
ENDMDL
MODEL 5
REMARK VINA RESULT:      -7.9      5.394      8.686
REMARK  3 active torsions:
REMARK  status: ('A' for Active; 'I' for Inactive)
REMARK    1  A    between atoms: N_5  and  C_6 
REMARK    2  A    between atoms: C_7  and  C_8 
REMARK       I    between atoms: C_8  and  N_9 
REMARK    3  A    between atoms: N_9  and  N_10 
ROOT
HETATM    1  C   UNL     1       3.556  31.653  61.646  1.00  0.00     0.056 C 
HETATM    2  C   UNL     1       4.332  32.687  60.850  1.00  0.00     0.158 C 
HETATM    3  C   UNL     1       3.594  33.140  59.586  1.00  0.00     0.267 C 
HETATM    4  O   UNL     1       3.206  32.381  58.702  1.00  0.00    -0.269 OA
HETATM    5  N   UNL     1       3.608  34.520  59.559  1.00  0.00    -0.230 N 
HETATM    6  C   UNL     1       4.299  35.006  60.644  1.00  0.00     0.333 C 
HETATM    7  O   UNL     1       4.691  36.153  60.804  1.00  0.00    -0.246 OA
HETATM    8  N   UNL     1       4.504  33.958  61.546  1.00  0.00    -0.309 N 
HETATM    9  C   UNL     1       5.530  34.064  62.591  1.00  0.00     0.134 C 
HETATM   10  C   UNL     1       6.946  33.795  62.038  1.00  0.00     0.061 C 
HETATM   11  C   UNL     1       6.910  32.725  60.990  1.00  0.00    -0.018 A 
HETATM   12  C   UNL     1       5.721  32.236  60.474  1.00  0.00     0.055 A 
HETATM   13  N   UNL     1       6.023  31.348  59.474  1.00  0.00    -0.356 N 
HETATM   14  H   UNL     1       5.350  30.871  58.886  1.00  0.00     0.166 HD
HETATM   15  C   UNL     1       7.390  31.299  59.296  1.00  0.00     0.043 A 
HETATM   16  C   UNL     1       7.971  32.136  60.252  1.00  0.00    -0.001 A 
HETATM   17  C   UNL     1       8.147  30.601  58.349  1.00  0.00     0.030 A 
HETATM   18  C   UNL     1       9.536  30.761  58.382  1.00  0.00     0.002 A 
HETATM   19  C   UNL     1      10.143  31.580  59.330  1.00  0.00     0.001 A 
HETATM   20  C   UNL     1       9.372  32.274  60.270  1.00  0.00     0.014 A 
ENDROOT
BRANCH   5  21
HETATM   21  C   UNL     1       3.479  35.204  58.333  1.00  0.00     0.063 A 
HETATM   22  C   UNL     1       2.267  35.797  57.949  1.00  0.00     0.060 A 
HETATM   23  C   UNL     1       2.104  36.274  56.641  1.00  0.00     0.019 A 
HETATM   24  C   UNL     1       3.155  36.190  55.728  1.00  0.00     0.001 A 
HETATM   25  C   UNL     1       4.376  35.643  56.119  1.00  0.00     0.002 A 
HETATM   26  C   UNL     1       4.541  35.151  57.416  1.00  0.00     0.031 A 
BRANCH  22  27
HETATM   27  C   UNL     1       1.148  36.019  58.897  1.00  0.00     0.268 C 
HETATM   28  N   UNL     1       0.195  35.005  58.945  1.00  0.00    -0.290 N 
HETATM   29  H   UNL     1       0.319  34.139  58.421  1.00  0.00     0.183 HD
HETATM   30  O   UNL     1       1.125  37.002  59.631  1.00  0.00    -0.266 OA
BRANCH  28  31
HETATM   31  N   UNL     1      -0.858  35.089  59.878  1.00  0.00    -0.247 NA
HETATM   32  H   UNL     1      -0.446  34.912  60.804  1.00  0.00     0.143 HD
HETATM   33  H   UNL     1      -1.457  34.268  59.736  1.00  0.00     0.143 HD
ENDBRANCH  28  31
ENDBRANCH  22  27
ENDBRANCH   5  21
TORSDOF 3
ENDMDL
MODEL 6
REMARK VINA RESULT:      -7.7      5.241      9.940
REMARK  3 active torsions:
REMARK  status: ('A' for Active; 'I' for Inactive)
REMARK    1  A    between atoms: N_5  and  C_6 
REMARK    2  A    between atoms: C_7  and  C_8 
REMARK       I    between atoms: C_8  and  N_9 
REMARK    3  A    between atoms: N_9  and  N_10 
ROOT
HETATM    1  C   UNL     1       2.126  33.674  60.753  1.00  0.00     0.056 C 
HETATM    2  C   UNL     1       3.532  34.026  60.305  1.00  0.00     0.158 C 
HETATM    3  C   UNL     1       4.525  32.876  60.507  1.00  0.00     0.267 C 
HETATM    4  O   UNL     1       4.734  32.324  61.583  1.00  0.00    -0.269 OA
HETATM    5  N   UNL     1       5.228  32.712  59.331  1.00  0.00    -0.230 N 
HETATM    6  C   UNL     1       4.825  33.646  58.405  1.00  0.00     0.333 C 
HETATM    7  O   UNL     1       5.390  33.927  57.358  1.00  0.00    -0.246 OA
HETATM    8  N   UNL     1       3.653  34.253  58.869  1.00  0.00    -0.309 N 
HETATM    9  C   UNL     1       3.208  35.536  58.311  1.00  0.00     0.134 C 
HETATM   10  C   UNL     1       3.995  36.726  58.902  1.00  0.00     0.061 C 
HETATM   11  C   UNL     1       4.301  36.490  60.349  1.00  0.00    -0.018 A 
HETATM   12  C   UNL     1       4.079  35.269  60.962  1.00  0.00     0.055 A 
HETATM   13  N   UNL     1       4.548  35.344  62.248  1.00  0.00    -0.356 N 
HETATM   14  H   UNL     1       4.563  34.583  62.916  1.00  0.00     0.166 HD
HETATM   15  C   UNL     1       5.126  36.579  62.458  1.00  0.00     0.043 A 
HETATM   16  C   UNL     1       4.961  37.327  61.288  1.00  0.00    -0.001 A 
HETATM   17  C   UNL     1       5.798  37.077  63.579  1.00  0.00     0.030 A 
HETATM   18  C   UNL     1       6.315  38.374  63.504  1.00  0.00     0.002 A 
HETATM   19  C   UNL     1       6.157  39.146  62.355  1.00  0.00     0.001 A 
HETATM   20  C   UNL     1       5.483  38.634  61.240  1.00  0.00     0.014 A 
ENDROOT
BRANCH   5  21
HETATM   21  C   UNL     1       6.508  32.119  59.349  1.00  0.00     0.063 A 
HETATM   22  C   UNL     1       6.783  30.950  58.624  1.00  0.00     0.060 A 
HETATM   23  C   UNL     1       7.987  30.264  58.833  1.00  0.00     0.019 A 
HETATM   24  C   UNL     1       8.928  30.758  59.737  1.00  0.00     0.001 A 
HETATM   25  C   UNL     1       8.678  31.944  60.425  1.00  0.00     0.002 A 
HETATM   26  C   UNL     1       7.473  32.625  60.233  1.00  0.00     0.031 A 
BRANCH  22  27
HETATM   27  C   UNL     1       5.879  30.428  57.570  1.00  0.00     0.268 C 
HETATM   28  N   UNL     1       4.796  29.683  58.027  1.00  0.00    -0.290 N 
HETATM   29  H   UNL     1       4.606  29.583  59.024  1.00  0.00     0.183 HD
HETATM   30  O   UNL     1       6.053  30.712  56.389  1.00  0.00    -0.266 OA
BRANCH  28  31
HETATM   31  N   UNL     1       3.836  29.219  57.104  1.00  0.00    -0.247 NA
HETATM   32  H   UNL     1       4.002  29.729  56.226  1.00  0.00     0.143 HD
HETATM   33  H   UNL     1       2.924  29.578  57.405  1.00  0.00     0.143 HD
ENDBRANCH  28  31
ENDBRANCH  22  27
ENDBRANCH   5  21
TORSDOF 3
ENDMDL
MODEL 7
REMARK VINA RESULT:      -7.5      7.730     10.932
REMARK  3 active torsions:
REMARK  status: ('A' for Active; 'I' for Inactive)
REMARK    1  A    between atoms: N_5  and  C_6 
REMARK    2  A    between atoms: C_7  and  C_8 
REMARK       I    between atoms: C_8  and  N_9 
REMARK    3  A    between atoms: N_9  and  N_10 
ROOT
HETATM    1  C   UNL     1       2.341  34.231  61.736  1.00  0.00     0.056 C 
HETATM    2  C   UNL     1       3.624  34.940  62.130  1.00  0.00     0.158 C 
HETATM    3  C   UNL     1       3.894  36.189  61.285  1.00  0.00     0.267 C 
HETATM    4  O   UNL     1       3.971  36.191  60.059  1.00  0.00    -0.269 OA
HETATM    5  N   UNL     1       4.194  37.226  62.145  1.00  0.00    -0.230 N 
HETATM    6  C   UNL     1       4.180  36.779  63.446  1.00  0.00     0.333 C 
HETATM    7  O   UNL     1       4.616  37.369  64.424  1.00  0.00    -0.246 OA
HETATM    8  N   UNL     1       3.593  35.510  63.473  1.00  0.00    -0.309 N 
HETATM    9  C   UNL     1       3.788  34.625  64.627  1.00  0.00     0.134 C 
HETATM   10  C   UNL     1       5.166  33.928  64.594  1.00  0.00     0.061 C 
HETATM   11  C   UNL     1       5.551  33.587  63.188  1.00  0.00    -0.018 A 
HETATM   12  C   UNL     1       4.840  34.048  62.093  1.00  0.00     0.055 A 
HETATM   13  N   UNL     1       5.495  33.648  60.957  1.00  0.00    -0.356 N 
HETATM   14  H   UNL     1       5.229  33.884  60.009  1.00  0.00     0.166 HD
HETATM   15  C   UNL     1       6.655  32.985  61.302  1.00  0.00     0.043 A 
HETATM   16  C   UNL     1       6.701  32.911  62.697  1.00  0.00    -0.001 A 
HETATM   17  C   UNL     1       7.670  32.472  60.488  1.00  0.00     0.030 A 
HETATM   18  C   UNL     1       8.762  31.865  61.118  1.00  0.00     0.002 A 
HETATM   19  C   UNL     1       8.829  31.768  62.505  1.00  0.00     0.001 A 
HETATM   20  C   UNL     1       7.806  32.288  63.307  1.00  0.00     0.014 A 
ENDROOT
BRANCH   5  21
HETATM   21  C   UNL     1       4.962  38.319  61.693  1.00  0.00     0.063 A 
HETATM   22  C   UNL     1       4.373  39.397  61.014  1.00  0.00     0.060 A 
HETATM   23  C   UNL     1       5.182  40.355  60.387  1.00  0.00     0.019 A 
HETATM   24  C   UNL     1       6.571  40.259  60.463  1.00  0.00     0.001 A 
HETATM   25  C   UNL     1       7.160  39.215  61.175  1.00  0.00     0.002 A 
HETATM   26  C   UNL     1       6.361  38.248  61.791  1.00  0.00     0.031 A 
BRANCH  22  27
HETATM   27  C   UNL     1       2.908  39.622  60.986  1.00  0.00     0.268 C 
HETATM   28  N   UNL     1       2.443  40.640  61.813  1.00  0.00    -0.290 N 
HETATM   29  H   UNL     1       3.089  41.235  62.331  1.00  0.00     0.183 HD
HETATM   30  O   UNL     1       2.185  38.990  60.221  1.00  0.00    -0.266 OA
BRANCH  28  31
HETATM   31  N   UNL     1       1.076  40.983  61.788  1.00  0.00    -0.247 NA
HETATM   32  H   UNL     1       0.669  40.510  60.970  1.00  0.00     0.143 HD
HETATM   33  H   UNL     1       1.015  41.974  61.530  1.00  0.00     0.143 HD
ENDBRANCH  28  31
ENDBRANCH  22  27
ENDBRANCH   5  21
TORSDOF 3
ENDMDL
MODEL 8
REMARK VINA RESULT:      -7.5     13.014     16.319
REMARK  3 active torsions:
REMARK  status: ('A' for Active; 'I' for Inactive)
REMARK    1  A    between atoms: N_5  and  C_6 
REMARK    2  A    between atoms: C_7  and  C_8 
REMARK       I    between atoms: C_8  and  N_9 
REMARK    3  A    between atoms: N_9  and  N_10 
ROOT
HETATM    1  C   UNL     1      -7.753  34.874  50.809  1.00  0.00     0.056 C 
HETATM    2  C   UNL     1      -6.515  35.232  51.610  1.00  0.00     0.158 C 
HETATM    3  C   UNL     1      -6.254  34.260  52.766  1.00  0.00     0.267 C 
HETATM    4  O   UNL     1      -7.064  34.008  53.654  1.00  0.00    -0.269 OA
HETATM    5  N   UNL     1      -4.929  33.880  52.709  1.00  0.00    -0.230 N 
HETATM    6  C   UNL     1      -4.298  34.520  51.668  1.00  0.00     0.333 C 
HETATM    7  O   UNL     1      -3.092  34.587  51.476  1.00  0.00    -0.246 OA
HETATM    8  N   UNL     1      -5.271  35.113  50.857  1.00  0.00    -0.309 N 
HETATM    9  C   UNL     1      -4.907  36.175  49.912  1.00  0.00     0.134 C 
HETATM   10  C   UNL     1      -4.738  37.540  50.615  1.00  0.00     0.061 C 
HETATM   11  C   UNL     1      -5.739  37.692  51.719  1.00  0.00    -0.018 A 
HETATM   12  C   UNL     1      -6.533  36.641  52.147  1.00  0.00     0.055 A 
HETATM   13  N   UNL     1      -7.265  37.070  53.224  1.00  0.00    -0.356 N 
HETATM   14  H   UNL     1      -7.897  36.499  53.773  1.00  0.00     0.166 HD
HETATM   15  C   UNL     1      -6.912  38.366  53.537  1.00  0.00     0.043 A 
HETATM   16  C   UNL     1      -5.973  38.788  52.592  1.00  0.00    -0.001 A 
HETATM   17  C   UNL     1      -7.332  39.180  54.595  1.00  0.00     0.030 A 
HETATM   18  C   UNL     1      -6.779  40.462  54.687  1.00  0.00     0.002 A 
HETATM   19  C   UNL     1      -5.850  40.912  53.753  1.00  0.00     0.001 A 
HETATM   20  C   UNL     1      -5.438  40.086  52.701  1.00  0.00     0.014 A 
ENDROOT
BRANCH   5  21
HETATM   21  C   UNL     1      -4.272  33.427  53.872  1.00  0.00     0.063 A 
HETATM   22  C   UNL     1      -4.034  32.063  54.095  1.00  0.00     0.060 A 
HETATM   23  C   UNL     1      -3.584  31.626  55.348  1.00  0.00     0.019 A 
HETATM   24  C   UNL     1      -3.340  32.548  56.366  1.00  0.00     0.001 A 
HETATM   25  C   UNL     1      -3.532  33.909  56.135  1.00  0.00     0.002 A 
HETATM   26  C   UNL     1      -3.995  34.351  54.893  1.00  0.00     0.031 A 
BRANCH  22  27
HETATM   27  C   UNL     1      -4.167  31.041  53.027  1.00  0.00     0.268 C 
HETATM   28  N   UNL     1      -5.257  30.186  53.150  1.00  0.00    -0.290 N 
HETATM   29  H   UNL     1      -5.954  30.320  53.883  1.00  0.00     0.183 HD
HETATM   30  O   UNL     1      -3.397  31.021  52.072  1.00  0.00    -0.266 OA
BRANCH  28  31
HETATM   31  N   UNL     1      -5.513  29.239  52.138  1.00  0.00    -0.247 NA
HETATM   32  H   UNL     1      -5.991  28.448  52.589  1.00  0.00     0.143 HD
HETATM   33  H   UNL     1      -4.611  28.833  51.865  1.00  0.00     0.143 HD
ENDBRANCH  28  31
ENDBRANCH  22  27
ENDBRANCH   5  21
TORSDOF 3
ENDMDL
MODEL 9
REMARK VINA RESULT:      -7.3      4.454      6.378
REMARK  3 active torsions:
REMARK  status: ('A' for Active; 'I' for Inactive)
REMARK    1  A    between atoms: N_5  and  C_6 
REMARK    2  A    between atoms: C_7  and  C_8 
REMARK       I    between atoms: C_8  and  N_9 
REMARK    3  A    between atoms: N_9  and  N_10 
ROOT
HETATM    1  C   UNL     1       5.798  30.821  50.587  1.00  0.00     0.056 C 
HETATM    2  C   UNL     1       4.933  29.696  51.125  1.00  0.00     0.158 C 
HETATM    3  C   UNL     1       5.729  28.678  51.949  1.00  0.00     0.267 C 
HETATM    4  O   UNL     1       6.709  28.067  51.533  1.00  0.00    -0.269 OA
HETATM    5  N   UNL     1       5.051  28.469  53.133  1.00  0.00    -0.230 N 
HETATM    6  C   UNL     1       3.893  29.211  53.152  1.00  0.00     0.333 C 
HETATM    7  O   UNL     1       2.962  29.090  53.935  1.00  0.00    -0.246 OA
HETATM    8  N   UNL     1       3.939  30.132  52.100  1.00  0.00    -0.309 N 
HETATM    9  C   UNL     1       2.712  30.780  51.624  1.00  0.00     0.134 C 
HETATM   10  C   UNL     1       1.888  29.853  50.704  1.00  0.00     0.061 C 
HETATM   11  C   UNL     1       2.793  29.017  49.851  1.00  0.00    -0.018 A 
HETATM   12  C   UNL     1       4.162  28.966  50.054  1.00  0.00     0.055 A 
HETATM   13  N   UNL     1       4.688  28.047  49.184  1.00  0.00    -0.356 N 
HETATM   14  H   UNL     1       5.661  27.766  49.141  1.00  0.00     0.166 HD
HETATM   15  C   UNL     1       3.672  27.458  48.462  1.00  0.00     0.043 A 
HETATM   16  C   UNL     1       2.474  28.068  48.844  1.00  0.00    -0.001 A 
HETATM   17  C   UNL     1       3.721  26.421  47.524  1.00  0.00     0.030 A 
HETATM   18  C   UNL     1       2.514  25.997  46.960  1.00  0.00     0.002 A 
HETATM   19  C   UNL     1       1.306  26.594  47.314  1.00  0.00     0.001 A 
HETATM   20  C   UNL     1       1.272  27.629  48.256  1.00  0.00     0.014 A 
ENDROOT
BRANCH   5  21
HETATM   21  C   UNL     1       5.230  27.266  53.847  1.00  0.00     0.063 A 
HETATM   22  C   UNL     1       5.650  27.266  55.186  1.00  0.00     0.060 A 
HETATM   23  C   UNL     1       6.031  26.064  55.800  1.00  0.00     0.019 A 
HETATM   24  C   UNL     1       5.964  24.864  55.093  1.00  0.00     0.001 A 
HETATM   25  C   UNL     1       5.504  24.854  53.777  1.00  0.00     0.002 A 
HETATM   26  C   UNL     1       5.137  26.049  53.154  1.00  0.00     0.031 A 
BRANCH  22  27
HETATM   27  C   UNL     1       5.642  28.486  56.030  1.00  0.00     0.268 C 
HETATM   28  N   UNL     1       4.542  28.624  56.871  1.00  0.00    -0.290 N 
HETATM   29  H   UNL     1       3.842  27.886  56.951  1.00  0.00     0.183 HD
HETATM   30  O   UNL     1       6.588  29.267  56.022  1.00  0.00    -0.266 OA
BRANCH  28  31
HETATM   31  N   UNL     1       4.490  29.707  57.770  1.00  0.00    -0.247 NA
HETATM   32  H   UNL     1       4.446  29.304  58.716  1.00  0.00     0.143 HD
HETATM   33  H   UNL     1       3.568  30.146  57.668  1.00  0.00     0.143 HD
ENDBRANCH  28  31
ENDBRANCH  22  27
ENDBRANCH   5  21
TORSDOF 3
ENDMDL
MODEL 10
REMARK VINA RESULT:      -7.2      5.574      9.199
REMARK  3 active torsions:
REMARK  status: ('A' for Active; 'I' for Inactive)
REMARK    1  A    between atoms: N_5  and  C_6 
REMARK    2  A    between atoms: C_7  and  C_8 
REMARK       I    between atoms: C_8  and  N_9 
REMARK    3  A    between atoms: N_9  and  N_10 
ROOT
HETATM    1  C   UNL     1       1.785  31.560  49.967  1.00  0.00     0.056 C 
HETATM    2  C   UNL     1       3.005  31.117  50.755  1.00  0.00     0.158 C 
HETATM    3  C   UNL     1       3.010  29.613  51.045  1.00  0.00     0.267 C 
HETATM    4  O   UNL     1       2.105  29.018  51.625  1.00  0.00    -0.269 OA
HETATM    5  N   UNL     1       4.250  29.118  50.699  1.00  0.00    -0.230 N 
HETATM    6  C   UNL     1       5.056  30.138  50.249  1.00  0.00     0.333 C 
HETATM    7  O   UNL     1       6.266  30.091  50.080  1.00  0.00    -0.246 OA
HETATM    8  N   UNL     1       4.262  31.268  50.029  1.00  0.00    -0.309 N 
HETATM    9  C   UNL     1       4.871  32.599  49.930  1.00  0.00     0.134 C 
HETATM   10  C   UNL     1       5.219  33.180  51.317  1.00  0.00     0.061 C 
HETATM   11  C   UNL     1       4.180  32.795  52.326  1.00  0.00    -0.018 A 
HETATM   12  C   UNL     1       3.188  31.869  52.050  1.00  0.00     0.055 A 
HETATM   13  N   UNL     1       2.464  31.664  53.195  1.00  0.00    -0.356 N 
HETATM   14  H   UNL     1       1.705  31.001  53.302  1.00  0.00     0.166 HD
HETATM   15  C   UNL     1       3.010  32.400  54.226  1.00  0.00     0.043 A 
HETATM   16  C   UNL     1       4.074  33.138  53.700  1.00  0.00    -0.001 A 
HETATM   17  C   UNL     1       2.659  32.446  55.579  1.00  0.00     0.030 A 
HETATM   18  C   UNL     1       3.415  33.272  56.418  1.00  0.00     0.002 A 
HETATM   19  C   UNL     1       4.474  34.027  55.920  1.00  0.00     0.001 A 
HETATM   20  C   UNL     1       4.815  33.969  54.563  1.00  0.00     0.014 A 
ENDROOT
BRANCH   5  21
HETATM   21  C   UNL     1       4.733  27.936  51.297  1.00  0.00     0.063 A 
HETATM   22  C   UNL     1       4.797  26.729  50.585  1.00  0.00     0.060 A 
HETATM   23  C   UNL     1       5.068  25.531  51.261  1.00  0.00     0.019 A 
HETATM   24  C   UNL     1       5.306  25.539  52.635  1.00  0.00     0.001 A 
HETATM   25  C   UNL     1       5.288  26.743  53.339  1.00  0.00     0.002 A 
HETATM   26  C   UNL     1       5.004  27.939  52.675  1.00  0.00     0.031 A 
BRANCH  22  27
HETATM   27  C   UNL     1       4.663  26.660  49.110  1.00  0.00     0.268 C 
HETATM   28  N   UNL     1       5.692  27.258  48.388  1.00  0.00    -0.290 N 
HETATM   29  H   UNL     1       6.515  27.637  48.856  1.00  0.00     0.183 HD
HETATM   30  O   UNL     1       3.738  26.047  48.585  1.00  0.00    -0.266 OA
BRANCH  28  31
HETATM   31  N   UNL     1       5.694  27.167  46.981  1.00  0.00    -0.247 NA
HETATM   32  H   UNL     1       6.066  28.060  46.630  1.00  0.00     0.143 HD
HETATM   33  H   UNL     1       4.717  27.192  46.672  1.00  0.00     0.143 HD
ENDBRANCH  28  31
ENDBRANCH  22  27
ENDBRANCH   5  21
TORSDOF 3
ENDMDL
