MODEL 1
REMARK VINA RESULT:      -9.1      0.000      0.000
REMARK  3 active torsions:
REMARK  status: ('A' for Active; 'I' for Inactive)
REMARK    1  A    between atoms: C_5  and  N_6 
REMARK       I    between atoms: N_6  and  C_7 
REMARK    2  A    between atoms: C_7  and  C_8 
REMARK    3  A    between atoms: C_9  and  C_10 
ROOT
HETATM    1  C   UNL     1       8.584  29.325  57.539  1.00  0.00     0.062 A 
HETATM    2  C   UNL     1       7.367  29.859  58.295  1.00  0.00     0.199 A 
HETATM    3  N   UNL     1       7.690  31.081  59.027  1.00  0.00    -0.092 N 
HETATM    4  C   UNL     1       8.925  31.662  59.062  1.00  0.00     0.735 A 
HETATM    5  N   UNL     1       9.925  31.123  58.338  1.00  0.00    -0.191 N 
HETATM    6  N   UNL     1       6.874  31.676  59.911  1.00  0.00     0.012 NA
HETATM    7  N   UNL     1       7.593  32.679  60.404  1.00  0.00     0.033 NA
HETATM    8  N   UNL     1       8.875  32.679  59.887  1.00  0.00     0.030 NA
HETATM    9  C   UNL     1       9.780  29.966  57.580  1.00  0.00     0.037 A 
HETATM   10  C   UNL     1      11.024  29.499  56.861  1.00  0.00     0.070 C 
HETATM   11  H   UNL     1      10.842  31.562  58.358  1.00  0.00     0.184 HD
ENDROOT
BRANCH   1  12
HETATM   12  C   UNL     1       8.392  28.144  56.646  1.00  0.00     0.256 C 
HETATM   13  N   UNL     1       8.282  26.946  57.316  1.00  0.00    -0.323 N 
HETATM   14  H   UNL     1       8.358  26.942  58.324  1.00  0.00     0.169 HD
HETATM   15  O   UNL     1       8.316  28.321  55.436  1.00  0.00    -0.267 OA
BRANCH  13  16
HETATM   16  C   UNL     1       8.049  25.674  56.745  1.00  0.00     0.035 A 
HETATM   17  C   UNL     1       7.044  25.406  55.815  1.00  0.00     0.030 A 
HETATM   18  C   UNL     1       6.881  24.116  55.295  1.00  0.00     0.009 A 
HETATM   19  C   UNL     1       7.722  23.073  55.695  1.00  0.00    -0.062 A 
HETATM   20  C   UNL     1       7.510  21.686  55.168  1.00  0.00     0.048 C 
HETATM   21  C   UNL     1       8.718  23.336  56.639  1.00  0.00     0.009 A 
HETATM   22  C   UNL     1       8.887  24.627  57.149  1.00  0.00     0.030 A 
ENDBRANCH  13  16
ENDBRANCH   1  12
BRANCH   2  23
HETATM   23  C   UNL     1       6.135  30.074  57.439  1.00  0.00    -0.011 A 
HETATM   24  C   UNL     1       6.024  31.225  56.659  1.00  0.00     0.125 A 
HETATM   25  N   UNL     1       4.961  31.520  55.880  1.00  0.00    -0.272 NA
HETATM   26  C   UNL     1       3.959  30.618  55.853  1.00  0.00     0.116 A 
HETATM   27  C   UNL     1       3.975  29.432  56.565  1.00  0.00     0.020 A 
HETATM   28  C   UNL     1       5.081  29.155  57.366  1.00  0.00     0.012 A 
ENDBRANCH   2  23
TORSDOF 3
ENDMDL
MODEL 2
REMARK VINA RESULT:      -8.9      3.719      5.249
REMARK  3 active torsions:
REMARK  status: ('A' for Active; 'I' for Inactive)
REMARK    1  A    between atoms: C_5  and  N_6 
REMARK       I    between atoms: N_6  and  C_7 
REMARK    2  A    between atoms: C_7  and  C_8 
REMARK    3  A    between atoms: C_9  and  C_10 
ROOT
HETATM    1  C   UNL     1       7.047  32.022  61.204  1.00  0.00     0.062 A 
HETATM    2  C   UNL     1       5.627  32.162  61.752  1.00  0.00     0.199 A 
HETATM    3  N   UNL     1       5.634  32.624  63.137  1.00  0.00    -0.092 N 
HETATM    4  C   UNL     1       6.760  32.872  63.868  1.00  0.00     0.735 A 
HETATM    5  N   UNL     1       7.966  32.741  63.280  1.00  0.00    -0.191 N 
HETATM    6  N   UNL     1       4.551  32.674  63.928  1.00  0.00     0.012 NA
HETATM    7  N   UNL     1       5.021  33.051  65.112  1.00  0.00     0.033 NA
HETATM    8  N   UNL     1       6.397  33.173  65.090  1.00  0.00     0.030 NA
HETATM    9  C   UNL     1       8.131  32.319  61.965  1.00  0.00     0.037 A 
HETATM   10  C   UNL     1       9.562  32.205  61.495  1.00  0.00     0.070 C 
HETATM   11  H   UNL     1       8.804  32.935  63.823  1.00  0.00     0.184 HD
ENDROOT
BRANCH   1  12
HETATM   12  C   UNL     1       7.212  31.670  59.762  1.00  0.00     0.256 C 
HETATM   13  N   UNL     1       7.402  30.326  59.532  1.00  0.00    -0.323 N 
HETATM   14  H   UNL     1       7.439  29.696  60.321  1.00  0.00     0.169 HD
HETATM   15  O   UNL     1       7.135  32.559  58.923  1.00  0.00    -0.267 OA
BRANCH  13  16
HETATM   16  C   UNL     1       7.540  29.694  58.274  1.00  0.00     0.035 A 
HETATM   17  C   UNL     1       8.760  29.301  57.726  1.00  0.00     0.030 A 
HETATM   18  C   UNL     1       8.810  28.678  56.473  1.00  0.00     0.009 A 
HETATM   19  C   UNL     1       7.639  28.436  55.748  1.00  0.00    -0.062 A 
HETATM   20  C   UNL     1       7.707  27.810  54.388  1.00  0.00     0.048 C 
HETATM   21  C   UNL     1       6.417  28.844  56.289  1.00  0.00     0.009 A 
HETATM   22  C   UNL     1       6.368  29.456  57.546  1.00  0.00     0.030 A 
ENDBRANCH  13  16
ENDBRANCH   1  12
BRANCH   2  23
HETATM   23  C   UNL     1       4.710  33.034  60.916  1.00  0.00    -0.011 A 
HETATM   24  C   UNL     1       3.667  32.452  60.195  1.00  0.00     0.125 A 
HETATM   25  N   UNL     1       2.810  33.135  59.407  1.00  0.00    -0.272 NA
HETATM   26  C   UNL     1       2.977  34.472  59.344  1.00  0.00     0.116 A 
HETATM   27  C   UNL     1       3.959  35.156  60.038  1.00  0.00     0.020 A 
HETATM   28  C   UNL     1       4.834  34.426  60.839  1.00  0.00     0.012 A 
ENDBRANCH   2  23
TORSDOF 3
ENDMDL
MODEL 3
REMARK VINA RESULT:      -8.7      2.643      3.807
REMARK  3 active torsions:
REMARK  status: ('A' for Active; 'I' for Inactive)
REMARK    1  A    between atoms: C_5  and  N_6 
REMARK       I    between atoms: N_6  and  C_7 
REMARK    2  A    between atoms: C_7  and  C_8 
REMARK    3  A    between atoms: C_9  and  C_10 
ROOT
HETATM    1  C   UNL     1       6.029  27.255  56.472  1.00  0.00     0.062 A 
HETATM    2  C   UNL     1       5.068  28.274  55.861  1.00  0.00     0.199 A 
HETATM    3  N   UNL     1       5.310  29.615  56.387  1.00  0.00    -0.092 N 
HETATM    4  C   UNL     1       6.251  29.923  57.326  1.00  0.00     0.735 A 
HETATM    5  N   UNL     1       7.066  28.952  57.782  1.00  0.00    -0.191 N 
HETATM    6  N   UNL     1       4.515  30.674  56.165  1.00  0.00     0.012 NA
HETATM    7  N   UNL     1       5.045  31.647  56.900  1.00  0.00     0.033 NA
HETATM    8  N   UNL     1       6.124  31.191  57.633  1.00  0.00     0.030 NA
HETATM    9  C   UNL     1       6.972  27.625  57.376  1.00  0.00     0.037 A 
HETATM   10  C   UNL     1       7.955  26.676  58.022  1.00  0.00     0.070 C 
HETATM   11  H   UNL     1       7.773  29.185  58.475  1.00  0.00     0.184 HD
ENDROOT
BRANCH   1  12
HETATM   12  C   UNL     1       5.991  25.856  55.953  1.00  0.00     0.256 C 
HETATM   13  N   UNL     1       7.148  25.462  55.317  1.00  0.00    -0.323 N 
HETATM   14  H   UNL     1       7.905  26.125  55.228  1.00  0.00     0.169 HD
HETATM   15  O   UNL     1       4.991  25.177  56.150  1.00  0.00    -0.267 OA
BRANCH  13  16
HETATM   16  C   UNL     1       7.421  24.187  54.769  1.00  0.00     0.035 A 
HETATM   17  C   UNL     1       7.619  23.035  55.529  1.00  0.00     0.030 A 
HETATM   18  C   UNL     1       7.883  21.809  54.907  1.00  0.00     0.009 A 
HETATM   19  C   UNL     1       7.953  21.715  53.514  1.00  0.00    -0.062 A 
HETATM   20  C   UNL     1       8.282  20.407  52.859  1.00  0.00     0.048 C 
HETATM   21  C   UNL     1       7.771  22.872  52.752  1.00  0.00     0.009 A 
HETATM   22  C   UNL     1       7.496  24.094  53.374  1.00  0.00     0.030 A 
ENDBRANCH  13  16
ENDBRANCH   1  12
BRANCH   2  23
HETATM   23  C   UNL     1       5.055  28.303  54.346  1.00  0.00    -0.011 A 
HETATM   24  C   UNL     1       6.250  28.470  53.645  1.00  0.00     0.125 A 
HETATM   25  N   UNL     1       6.343  28.530  52.299  1.00  0.00    -0.272 NA
HETATM   26  C   UNL     1       5.195  28.397  51.604  1.00  0.00     0.116 A 
HETATM   27  C   UNL     1       3.959  28.201  52.194  1.00  0.00     0.020 A 
HETATM   28  C   UNL     1       3.890  28.148  53.585  1.00  0.00     0.012 A 
ENDBRANCH   2  23
TORSDOF 3
ENDMDL
MODEL 4
REMARK VINA RESULT:      -8.7      3.306      4.914
REMARK  3 active torsions:
REMARK  status: ('A' for Active; 'I' for Inactive)
REMARK    1  A    between atoms: C_5  and  N_6 
REMARK       I    between atoms: N_6  and  C_7 
REMARK    2  A    between atoms: C_7  and  C_8 
REMARK    3  A    between atoms: C_9  and  C_10 
ROOT
HETATM    1  C   UNL     1       6.319  28.013  54.584  1.00  0.00     0.062 A 
HETATM    2  C   UNL     1       5.030  28.326  53.825  1.00  0.00     0.199 A 
HETATM    3  N   UNL     1       4.463  29.605  54.245  1.00  0.00    -0.092 N 
HETATM    4  C   UNL     1       4.993  30.410  55.213  1.00  0.00     0.735 A 
HETATM    5  N   UNL     1       6.149  30.052  55.803  1.00  0.00    -0.191 N 
HETATM    6  N   UNL     1       3.253  30.057  53.880  1.00  0.00     0.012 NA
HETATM    7  N   UNL     1       3.102  31.189  54.559  1.00  0.00     0.033 NA
HETATM    8  N   UNL     1       4.177  31.419  55.397  1.00  0.00     0.030 NA
HETATM    9  C   UNL     1       6.821  28.870  55.511  1.00  0.00     0.037 A 
HETATM   10  C   UNL     1       8.087  28.628  56.300  1.00  0.00     0.070 C 
HETATM   11  H   UNL     1       6.547  30.656  56.517  1.00  0.00     0.184 HD
ENDROOT
BRANCH   1  12
HETATM   12  C   UNL     1       7.088  26.796  54.189  1.00  0.00     0.256 C 
HETATM   13  N   UNL     1       6.559  25.618  54.669  1.00  0.00    -0.323 N 
HETATM   14  H   UNL     1       5.734  25.656  55.252  1.00  0.00     0.169 HD
HETATM   15  O   UNL     1       8.071  26.922  53.469  1.00  0.00    -0.267 OA
BRANCH  13  16
HETATM   16  C   UNL     1       7.038  24.311  54.423  1.00  0.00     0.035 A 
HETATM   17  C   UNL     1       7.311  23.376  55.421  1.00  0.00     0.030 A 
HETATM   18  C   UNL     1       7.783  22.100  55.092  1.00  0.00     0.009 A 
HETATM   19  C   UNL     1       7.989  21.737  53.757  1.00  0.00    -0.062 A 
HETATM   20  C   UNL     1       8.538  20.384  53.417  1.00  0.00     0.048 C 
HETATM   21  C   UNL     1       7.732  22.678  52.757  1.00  0.00     0.009 A 
HETATM   22  C   UNL     1       7.249  23.949  53.086  1.00  0.00     0.030 A 
ENDBRANCH  13  16
ENDBRANCH   1  12
BRANCH   2  23
HETATM   23  C   UNL     1       5.158  28.284  52.315  1.00  0.00    -0.011 A 
HETATM   24  C   UNL     1       5.673  29.385  51.631  1.00  0.00     0.125 A 
HETATM   25  N   UNL     1       5.808  29.456  50.290  1.00  0.00    -0.272 NA
HETATM   26  C   UNL     1       5.434  28.369  49.583  1.00  0.00     0.116 A 
HETATM   27  C   UNL     1       4.935  27.214  50.160  1.00  0.00     0.020 A 
HETATM   28  C   UNL     1       4.800  27.170  51.546  1.00  0.00     0.012 A 
ENDBRANCH   2  23
TORSDOF 3
ENDMDL
MODEL 5
REMARK VINA RESULT:      -8.5      2.068      3.094
REMARK  3 active torsions:
REMARK  status: ('A' for Active; 'I' for Inactive)
REMARK    1  A    between atoms: C_5  and  N_6 
REMARK       I    between atoms: N_6  and  C_7 
REMARK    2  A    between atoms: C_7  and  C_8 
REMARK    3  A    between atoms: C_9  and  C_10 
ROOT
HETATM    1  C   UNL     1       6.266  28.738  56.469  1.00  0.00     0.062 A 
HETATM    2  C   UNL     1       4.784  29.080  56.321  1.00  0.00     0.199 A 
HETATM    3  N   UNL     1       4.394  30.161  57.223  1.00  0.00    -0.092 N 
HETATM    4  C   UNL     1       5.232  30.772  58.110  1.00  0.00     0.735 A 
HETATM    5  N   UNL     1       6.530  30.412  58.143  1.00  0.00    -0.191 N 
HETATM    6  N   UNL     1       3.129  30.555  57.436  1.00  0.00     0.012 NA
HETATM    7  N   UNL     1       3.224  31.478  58.387  1.00  0.00     0.033 NA
HETATM    8  N   UNL     1       4.529  31.620  58.820  1.00  0.00     0.030 NA
HETATM    9  C   UNL     1       7.062  29.406  57.343  1.00  0.00     0.037 A 
HETATM   10  C   UNL     1       8.533  29.125  57.545  1.00  0.00     0.070 C 
HETATM   11  H   UNL     1       7.155  30.874  58.798  1.00  0.00     0.184 HD
ENDROOT
BRANCH   1  12
HETATM   12  C   UNL     1       6.851  27.733  55.533  1.00  0.00     0.256 C 
HETATM   13  N   UNL     1       6.490  26.433  55.811  1.00  0.00    -0.323 N 
HETATM   14  H   UNL     1       5.898  26.251  56.609  1.00  0.00     0.169 HD
HETATM   15  O   UNL     1       7.552  28.121  54.607  1.00  0.00    -0.267 OA
BRANCH  13  16
HETATM   16  C   UNL     1       6.849  25.279  55.076  1.00  0.00     0.035 A 
HETATM   17  C   UNL     1       6.346  24.969  53.813  1.00  0.00     0.030 A 
HETATM   18  C   UNL     1       6.755  23.805  53.150  1.00  0.00     0.009 A 
HETATM   19  C   UNL     1       7.675  22.933  53.740  1.00  0.00    -0.062 A 
HETATM   20  C   UNL     1       8.071  21.666  53.043  1.00  0.00     0.048 C 
HETATM   21  C   UNL     1       8.166  23.234  55.013  1.00  0.00     0.009 A 
HETATM   22  C   UNL     1       7.766  24.402  55.669  1.00  0.00     0.030 A 
ENDBRANCH  13  16
ENDBRANCH   1  12
BRANCH   2  23
HETATM   23  C   UNL     1       4.347  29.401  54.905  1.00  0.00    -0.011 A 
HETATM   24  C   UNL     1       4.465  30.703  54.420  1.00  0.00     0.125 A 
HETATM   25  N   UNL     1       4.086  31.095  53.185  1.00  0.00    -0.272 NA
HETATM   26  C   UNL     1       3.581  30.143  52.373  1.00  0.00     0.116 A 
HETATM   27  C   UNL     1       3.443  28.817  52.741  1.00  0.00     0.020 A 
HETATM   28  C   UNL     1       3.837  28.440  54.023  1.00  0.00     0.012 A 
ENDBRANCH   2  23
TORSDOF 3
ENDMDL
MODEL 6
REMARK VINA RESULT:      -8.4      4.635      6.955
REMARK  3 active torsions:
REMARK  status: ('A' for Active; 'I' for Inactive)
REMARK    1  A    between atoms: C_5  and  N_6 
REMARK       I    between atoms: N_6  and  C_7 
REMARK    2  A    between atoms: C_7  and  C_8 
REMARK    3  A    between atoms: C_9  and  C_10 
ROOT
HETATM    1  C   UNL     1       5.303  26.645  51.043  1.00  0.00     0.062 A 
HETATM    2  C   UNL     1       5.872  27.978  51.526  1.00  0.00     0.199 A 
HETATM    3  N   UNL     1       5.592  29.052  50.576  1.00  0.00    -0.092 N 
HETATM    4  C   UNL     1       4.935  28.889  49.391  1.00  0.00     0.735 A 
HETATM    5  N   UNL     1       4.451  27.674  49.071  1.00  0.00    -0.191 N 
HETATM    6  N   UNL     1       6.113  30.287  50.650  1.00  0.00     0.012 NA
HETATM    7  N   UNL     1       5.682  30.895  49.550  1.00  0.00     0.033 NA
HETATM    8  N   UNL     1       4.951  30.034  48.754  1.00  0.00     0.030 NA
HETATM    9  C   UNL     1       4.624  26.549  49.871  1.00  0.00     0.037 A 
HETATM   10  C   UNL     1       4.034  25.268  49.327  1.00  0.00     0.070 C 
HETATM   11  H   UNL     1       3.954  27.555  48.191  1.00  0.00     0.184 HD
ENDROOT
BRANCH   1  12
HETATM   12  C   UNL     1       5.400  25.467  51.955  1.00  0.00     0.256 C 
HETATM   13  N   UNL     1       6.693  25.094  52.252  1.00  0.00    -0.323 N 
HETATM   14  H   UNL     1       7.456  25.605  51.833  1.00  0.00     0.169 HD
HETATM   15  O   UNL     1       4.370  24.961  52.383  1.00  0.00    -0.267 OA
BRANCH  13  16
HETATM   16  C   UNL     1       7.095  24.053  53.120  1.00  0.00     0.035 A 
HETATM   17  C   UNL     1       7.674  22.858  52.693  1.00  0.00     0.030 A 
HETATM   18  C   UNL     1       8.046  21.877  53.619  1.00  0.00     0.009 A 
HETATM   19  C   UNL     1       7.848  22.076  54.989  1.00  0.00    -0.062 A 
HETATM   20  C   UNL     1       8.208  21.000  55.970  1.00  0.00     0.048 C 
HETATM   21  C   UNL     1       7.254  23.265  55.417  1.00  0.00     0.009 A 
HETATM   22  C   UNL     1       6.892  24.250  54.492  1.00  0.00     0.030 A 
ENDBRANCH  13  16
ENDBRANCH   1  12
BRANCH   2  23
HETATM   23  C   UNL     1       5.431  28.387  52.918  1.00  0.00    -0.011 A 
HETATM   24  C   UNL     1       6.355  28.397  53.963  1.00  0.00     0.125 A 
HETATM   25  N   UNL     1       6.060  28.724  55.240  1.00  0.00    -0.272 NA
HETATM   26  C   UNL     1       4.785  29.082  55.496  1.00  0.00     0.116 A 
HETATM   27  C   UNL     1       3.794  29.133  54.532  1.00  0.00     0.020 A 
HETATM   28  C   UNL     1       4.124  28.785  53.224  1.00  0.00     0.012 A 
ENDBRANCH   2  23
TORSDOF 3
ENDMDL
MODEL 7
REMARK VINA RESULT:      -8.3      4.129      6.623
REMARK  3 active torsions:
REMARK  status: ('A' for Active; 'I' for Inactive)
REMARK    1  A    between atoms: C_5  and  N_6 
REMARK       I    between atoms: N_6  and  C_7 
REMARK    2  A    between atoms: C_7  and  C_8 
REMARK    3  A    between atoms: C_9  and  C_10 
ROOT
HETATM    1  C   UNL     1       6.345  25.068  54.302  1.00  0.00     0.062 A 
HETATM    2  C   UNL     1       6.169  25.654  55.703  1.00  0.00     0.199 A 
HETATM    3  N   UNL     1       7.296  25.313  56.567  1.00  0.00    -0.092 N 
HETATM    4  C   UNL     1       8.359  24.543  56.191  1.00  0.00     0.735 A 
HETATM    5  N   UNL     1       8.429  24.096  54.922  1.00  0.00    -0.191 N 
HETATM    6  N   UNL     1       7.337  25.542  57.890  1.00  0.00     0.012 NA
HETATM    7  N   UNL     1       8.480  24.992  58.286  1.00  0.00     0.033 NA
HETATM    8  N   UNL     1       9.125  24.362  57.239  1.00  0.00     0.030 NA
HETATM    9  C   UNL     1       7.443  24.340  53.972  1.00  0.00     0.037 A 
HETATM   10  C   UNL     1       7.685  23.730  52.612  1.00  0.00     0.070 C 
HETATM   11  H   UNL     1       9.226  23.531  54.640  1.00  0.00     0.184 HD
ENDROOT
BRANCH   1  12
HETATM   12  C   UNL     1       5.335  25.423  53.262  1.00  0.00     0.256 C 
HETATM   13  N   UNL     1       5.721  26.456  52.436  1.00  0.00    -0.323 N 
HETATM   14  H   UNL     1       6.613  26.901  52.597  1.00  0.00     0.169 HD
HETATM   15  O   UNL     1       4.296  24.777  53.198  1.00  0.00    -0.267 OA
BRANCH  13  16
HETATM   16  C   UNL     1       4.998  26.977  51.338  1.00  0.00     0.035 A 
HETATM   17  C   UNL     1       4.304  28.186  51.361  1.00  0.00     0.030 A 
HETATM   18  C   UNL     1       3.614  28.632  50.227  1.00  0.00     0.009 A 
HETATM   19  C   UNL     1       3.608  27.877  49.051  1.00  0.00    -0.062 A 
HETATM   20  C   UNL     1       2.828  28.340  47.857  1.00  0.00     0.048 C 
HETATM   21  C   UNL     1       4.289  26.657  49.032  1.00  0.00     0.009 A 
HETATM   22  C   UNL     1       4.988  26.218  50.161  1.00  0.00     0.030 A 
ENDBRANCH  13  16
ENDBRANCH   1  12
BRANCH   2  23
HETATM   23  C   UNL     1       5.921  27.149  55.737  1.00  0.00    -0.011 A 
HETATM   24  C   UNL     1       6.970  28.033  55.480  1.00  0.00     0.125 A 
HETATM   25  N   UNL     1       6.858  29.378  55.507  1.00  0.00    -0.272 NA
HETATM   26  C   UNL     1       5.636  29.881  55.780  1.00  0.00     0.116 A 
HETATM   27  C   UNL     1       4.522  29.098  56.023  1.00  0.00     0.020 A 
HETATM   28  C   UNL     1       4.666  27.713  55.996  1.00  0.00     0.012 A 
ENDBRANCH   2  23
TORSDOF 3
ENDMDL
MODEL 8
REMARK VINA RESULT:      -8.2      3.748      5.518
REMARK  3 active torsions:
REMARK  status: ('A' for Active; 'I' for Inactive)
REMARK    1  A    between atoms: C_5  and  N_6 
REMARK       I    between atoms: N_6  and  C_7 
REMARK    2  A    between atoms: C_7  and  C_8 
REMARK    3  A    between atoms: C_9  and  C_10 
ROOT
HETATM    1  C   UNL     1       5.739  29.415  55.417  1.00  0.00     0.062 A 
HETATM    2  C   UNL     1       6.914  28.630  56.001  1.00  0.00     0.199 A 
HETATM    3  N   UNL     1       7.352  29.198  57.274  1.00  0.00    -0.092 N 
HETATM    4  C   UNL     1       6.809  30.305  57.859  1.00  0.00     0.735 A 
HETATM    5  N   UNL     1       5.758  30.909  57.272  1.00  0.00    -0.191 N 
HETATM    6  N   UNL     1       8.464  28.827  57.929  1.00  0.00     0.012 NA
HETATM    7  N   UNL     1       8.529  29.655  58.967  1.00  0.00     0.033 NA
HETATM    8  N   UNL     1       7.506  30.584  58.933  1.00  0.00     0.030 NA
HETATM    9  C   UNL     1       5.215  30.488  56.063  1.00  0.00     0.037 A 
HETATM   10  C   UNL     1       4.057  31.312  55.548  1.00  0.00     0.070 C 
HETATM   11  H   UNL     1       5.348  31.728  57.714  1.00  0.00     0.184 HD
ENDROOT
BRANCH   1  12
HETATM   12  C   UNL     1       5.096  28.894  54.174  1.00  0.00     0.256 C 
HETATM   13  N   UNL     1       5.926  28.888  53.074  1.00  0.00    -0.323 N 
HETATM   14  H   UNL     1       6.867  29.243  53.171  1.00  0.00     0.169 HD
HETATM   15  O   UNL     1       3.939  28.496  54.227  1.00  0.00    -0.267 OA
BRANCH  13  16
HETATM   16  C   UNL     1       5.613  28.412  51.781  1.00  0.00     0.035 A 
HETATM   17  C   UNL     1       5.447  29.231  50.664  1.00  0.00     0.030 A 
HETATM   18  C   UNL     1       5.139  28.678  49.416  1.00  0.00     0.009 A 
HETATM   19  C   UNL     1       4.993  27.296  49.262  1.00  0.00    -0.062 A 
HETATM   20  C   UNL     1       4.618  26.717  47.931  1.00  0.00     0.048 C 
HETATM   21  C   UNL     1       5.143  26.475  50.383  1.00  0.00     0.009 A 
HETATM   22  C   UNL     1       5.462  27.028  51.628  1.00  0.00     0.030 A 
ENDBRANCH  13  16
ENDBRANCH   1  12
BRANCH   2  23
HETATM   23  C   UNL     1       6.668  27.142  56.151  1.00  0.00    -0.011 A 
HETATM   24  C   UNL     1       7.487  26.233  55.481  1.00  0.00     0.125 A 
HETATM   25  N   UNL     1       7.339  24.892  55.531  1.00  0.00    -0.272 NA
HETATM   26  C   UNL     1       6.340  24.419  56.305  1.00  0.00     0.116 A 
HETATM   27  C   UNL     1       5.487  25.227  57.034  1.00  0.00     0.020 A 
HETATM   28  C   UNL     1       5.657  26.608  56.959  1.00  0.00     0.012 A 
ENDBRANCH   2  23
TORSDOF 3
ENDMDL
MODEL 9
REMARK VINA RESULT:      -8.2      3.486      5.869
REMARK  3 active torsions:
REMARK  status: ('A' for Active; 'I' for Inactive)
REMARK    1  A    between atoms: C_5  and  N_6 
REMARK       I    between atoms: N_6  and  C_7 
REMARK    2  A    between atoms: C_7  and  C_8 
REMARK    3  A    between atoms: C_9  and  C_10 
ROOT
HETATM    1  C   UNL     1       5.971  26.870  52.464  1.00  0.00     0.062 A 
HETATM    2  C   UNL     1       6.059  28.236  53.144  1.00  0.00     0.199 A 
HETATM    3  N   UNL     1       4.935  29.090  52.770  1.00  0.00    -0.092 N 
HETATM    4  C   UNL     1       3.944  28.734  51.901  1.00  0.00     0.735 A 
HETATM    5  N   UNL     1       3.947  27.494  51.375  1.00  0.00    -0.191 N 
HETATM    6  N   UNL     1       4.837  30.394  53.073  1.00  0.00     0.012 NA
HETATM    7  N   UNL     1       3.726  30.795  52.463  1.00  0.00     0.033 NA
HETATM    8  N   UNL     1       3.163  29.771  51.724  1.00  0.00     0.030 NA
HETATM    9  C   UNL     1       4.941  26.557  51.637  1.00  0.00     0.037 A 
HETATM   10  C   UNL     1       4.787  25.231  50.929  1.00  0.00     0.070 C 
HETATM   11  H   UNL     1       3.204  27.227  50.734  1.00  0.00     0.184 HD
ENDROOT
BRANCH   1  12
HETATM   12  C   UNL     1       6.983  25.836  52.833  1.00  0.00     0.256 C 
HETATM   13  N   UNL     1       6.491  24.834  53.640  1.00  0.00    -0.323 N 
HETATM   14  H   UNL     1       5.526  24.875  53.936  1.00  0.00     0.169 HD
HETATM   15  O   UNL     1       8.118  25.930  52.383  1.00  0.00    -0.267 OA
BRANCH  13  16
HETATM   16  C   UNL     1       7.197  23.702  54.109  1.00  0.00     0.035 A 
HETATM   17  C   UNL     1       7.701  22.697  53.284  1.00  0.00     0.030 A 
HETATM   18  C   UNL     1       8.391  21.608  53.828  1.00  0.00     0.009 A 
HETATM   19  C   UNL     1       8.590  21.506  55.209  1.00  0.00    -0.062 A 
HETATM   20  C   UNL     1       9.290  20.313  55.787  1.00  0.00     0.048 C 
HETATM   21  C   UNL     1       8.071  22.504  56.038  1.00  0.00     0.009 A 
HETATM   22  C   UNL     1       7.392  23.597  55.492  1.00  0.00     0.030 A 
ENDBRANCH  13  16
ENDBRANCH   1  12
BRANCH   2  23
HETATM   23  C   UNL     1       6.194  28.184  54.653  1.00  0.00    -0.011 A 
HETATM   24  C   UNL     1       5.114  27.770  55.433  1.00  0.00     0.125 A 
HETATM   25  N   UNL     1       5.125  27.710  56.781  1.00  0.00    -0.272 NA
HETATM   26  C   UNL     1       6.275  28.056  57.396  1.00  0.00     0.116 A 
HETATM   27  C   UNL     1       7.415  28.455  56.721  1.00  0.00     0.020 A 
HETATM   28  C   UNL     1       7.375  28.515  55.330  1.00  0.00     0.012 A 
ENDBRANCH   2  23
TORSDOF 3
ENDMDL
MODEL 10
REMARK VINA RESULT:      -7.9      2.804      7.535
REMARK  3 active torsions:
REMARK  status: ('A' for Active; 'I' for Inactive)
REMARK    1  A    between atoms: C_5  and  N_6 
REMARK       I    between atoms: N_6  and  C_7 
REMARK    2  A    between atoms: C_7  and  C_8 
REMARK    3  A    between atoms: C_9  and  C_10 
ROOT
HETATM    1  C   UNL     1       5.761  28.942  57.102  1.00  0.00     0.062 A 
HETATM    2  C   UNL     1       6.985  28.322  57.775  1.00  0.00     0.199 A 
HETATM    3  N   UNL     1       7.156  26.924  57.385  1.00  0.00    -0.092 N 
HETATM    4  C   UNL     1       6.316  26.242  56.552  1.00  0.00     0.735 A 
HETATM    5  N   UNL     1       5.278  26.892  55.991  1.00  0.00    -0.191 N 
HETATM    6  N   UNL     1       8.037  26.080  57.945  1.00  0.00     0.012 NA
HETATM    7  N   UNL     1       7.787  24.909  57.369  1.00  0.00     0.033 NA
HETATM    8  N   UNL     1       6.714  24.995  56.502  1.00  0.00     0.030 NA
HETATM    9  C   UNL     1       4.982  28.226  56.252  1.00  0.00     0.037 A 
HETATM   10  C   UNL     1       3.758  28.769  55.552  1.00  0.00     0.070 C 
HETATM   11  H   UNL     1       4.658  26.385  55.364  1.00  0.00     0.184 HD
ENDROOT
BRANCH   1  12
HETATM   12  C   UNL     1       5.513  30.400  57.305  1.00  0.00     0.256 C 
HETATM   13  N   UNL     1       4.960  30.710  58.528  1.00  0.00    -0.323 N 
HETATM   14  H   UNL     1       4.746  29.961  59.170  1.00  0.00     0.169 HD
HETATM   15  O   UNL     1       5.836  31.185  56.422  1.00  0.00    -0.267 OA
BRANCH  13  16
HETATM   16  C   UNL     1       4.659  32.002  59.018  1.00  0.00     0.035 A 
HETATM   17  C   UNL     1       3.720  32.858  58.443  1.00  0.00     0.030 A 
HETATM   18  C   UNL     1       3.480  34.123  58.992  1.00  0.00     0.009 A 
HETATM   19  C   UNL     1       4.174  34.553  60.127  1.00  0.00    -0.062 A 
HETATM   20  C   UNL     1       3.943  35.927  60.681  1.00  0.00     0.048 C 
HETATM   21  C   UNL     1       5.127  33.703  60.695  1.00  0.00     0.009 A 
HETATM   22  C   UNL     1       5.358  32.435  60.152  1.00  0.00     0.030 A 
ENDBRANCH  13  16
ENDBRANCH   1  12
BRANCH   2  23
HETATM   23  C   UNL     1       8.279  29.083  57.561  1.00  0.00    -0.011 A 
HETATM   24  C   UNL     1       8.789  29.884  58.583  1.00  0.00     0.125 A 
HETATM   25  N   UNL     1       9.919  30.617  58.487  1.00  0.00    -0.272 NA
HETATM   26  C   UNL     1      10.597  30.538  57.322  1.00  0.00     0.116 A 
HETATM   27  C   UNL     1      10.197  29.756  56.254  1.00  0.00     0.020 A 
HETATM   28  C   UNL     1       9.023  29.015  56.378  1.00  0.00     0.012 A 
ENDBRANCH   2  23
TORSDOF 3
ENDMDL
