MODEL 1
REMARK VINA RESULT:      -9.4      0.000      0.000
REMARK  6 active torsions:
REMARK  status: ('A' for Active; 'I' for Inactive)
REMARK    1  A    between atoms: C_3  and  N_4 
REMARK    2  A    between atoms: N_4  and  C_5 
REMARK    3  A    between atoms: C_5  and  C_6 
REMARK    4  A    between atoms: N_8  and  C_10 
REMARK    5  A    between atoms: C_10  and  C_11 
REMARK    6  A    between atoms: C_12  and  C_13 
ROOT
HETATM    1  C   UNL     1       6.335  27.586  54.011  1.00  0.00     0.031 C 
HETATM    2  C   UNL     1       5.706  26.187  53.981  1.00  0.00     0.241 C 
HETATM    3  N   UNL     1       4.994  26.033  55.313  1.00  0.00    -0.067 N 
HETATM    4  H   UNL     1       3.994  25.884  55.116  1.00  0.00     0.280 HD
HETATM    5  C   UNL     1       5.092  27.353  56.047  1.00  0.00     0.235 C 
HETATM    6  C   UNL     1       5.399  28.347  54.947  1.00  0.00     0.035 C 
ENDROOT
BRANCH   3   7
HETATM    7  C   UNL     1       5.415  24.819  56.113  1.00  0.00     0.277 C 
BRANCH   7   8
HETATM    8  C   UNL     1       6.822  24.870  56.581  1.00  0.00     0.016 A 
HETATM    9  C   UNL     1       7.915  24.046  56.158  1.00  0.00     0.102 A 
HETATM   10  N   UNL     1       9.048  24.429  56.757  1.00  0.00    -0.174 NA
HETATM   11  N   UNL     1       8.691  25.374  57.629  1.00  0.00    -0.288 N 
HETATM   12  H   UNL     1       9.407  25.758  58.243  1.00  0.00     0.188 HD
HETATM   13  C   UNL     1       7.367  25.699  57.546  1.00  0.00     0.120 A 
BRANCH   9  14
HETATM   14  C   UNL     1       7.936  22.936  55.216  1.00  0.00     0.072 A 
HETATM   15  C   UNL     1       7.856  21.607  55.641  1.00  0.00     0.132 A 
HETATM   16  F   UNL     1       7.823  21.310  56.952  1.00  0.00    -0.205 F 
HETATM   17  C   UNL     1       7.844  20.551  54.729  1.00  0.00     0.043 A 
HETATM   18  C   UNL     1       7.916  20.815  53.361  1.00  0.00     0.006 A 
HETATM   19  C   UNL     1       8.008  22.133  52.918  1.00  0.00     0.043 A 
HETATM   20  C   UNL     1       8.016  23.179  53.842  1.00  0.00     0.132 A 
HETATM   21  F   UNL     1       8.149  24.430  53.378  1.00  0.00    -0.205 F 
ENDBRANCH   9  14
ENDBRANCH   7   8
ENDBRANCH   3   7
BRANCH   1  22
HETATM   22  C   UNL     1       7.802  27.537  54.485  1.00  0.00     0.127 C 
BRANCH  22  23
HETATM   23  N   UNL     1       8.365  28.880  54.610  1.00  0.00    -0.376 N 
HETATM   24  H   UNL     1       8.615  29.349  53.744  1.00  0.00     0.161 HD
BRANCH  23  25
HETATM   25  C   UNL     1       8.920  29.336  55.789  1.00  0.00     0.100 A 
HETATM   26  C   UNL     1      10.271  29.676  55.955  1.00  0.00     0.048 A 
HETATM   27  C   UNL     1      10.745  30.099  57.196  1.00  0.00     0.005 A 
HETATM   28  C   UNL     1       9.877  30.162  58.276  1.00  0.00     0.017 A 
HETATM   29  C   UNL     1       8.553  29.802  58.087  1.00  0.00     0.089 A 
HETATM   30  N   UNL     1       8.128  29.412  56.874  1.00  0.00    -0.353 N 
HETATM   31  H   UNL     1       7.155  29.138  56.776  1.00  0.00     0.166 HD
ENDBRANCH  23  25
ENDBRANCH  22  23
ENDBRANCH   1  22
TORSDOF 6
ENDMDL
MODEL 2
REMARK VINA RESULT:      -9.3      2.357      4.006
REMARK  6 active torsions:
REMARK  status: ('A' for Active; 'I' for Inactive)
REMARK    1  A    between atoms: C_3  and  N_4 
REMARK    2  A    between atoms: N_4  and  C_5 
REMARK    3  A    between atoms: C_5  and  C_6 
REMARK    4  A    between atoms: N_8  and  C_10 
REMARK    5  A    between atoms: C_10  and  C_11 
REMARK    6  A    between atoms: C_12  and  C_13 
ROOT
HETATM    1  C   UNL     1       8.564  29.134  57.945  1.00  0.00     0.031 C 
HETATM    2  C   UNL     1       8.236  27.768  57.327  1.00  0.00     0.241 C 
HETATM    3  N   UNL     1       8.398  27.952  55.829  1.00  0.00    -0.067 N 
HETATM    4  H   UNL     1       9.131  27.301  55.513  1.00  0.00     0.280 HD
HETATM    5  C   UNL     1       8.934  29.346  55.587  1.00  0.00     0.235 C 
HETATM    6  C   UNL     1       9.528  29.734  56.924  1.00  0.00     0.035 C 
ENDROOT
BRANCH   3   7
HETATM    7  C   UNL     1       7.176  27.582  55.015  1.00  0.00     0.277 C 
BRANCH   7   8
HETATM    8  C   UNL     1       6.175  26.787  55.768  1.00  0.00     0.016 A 
HETATM    9  C   UNL     1       6.116  25.363  55.910  1.00  0.00     0.102 A 
HETATM   10  N   UNL     1       5.107  25.014  56.715  1.00  0.00    -0.174 NA
HETATM   11  N   UNL     1       4.455  26.148  56.985  1.00  0.00    -0.288 N 
HETATM   12  H   UNL     1       3.602  26.093  57.538  1.00  0.00     0.188 HD
HETATM   13  C   UNL     1       5.070  27.250  56.463  1.00  0.00     0.120 A 
BRANCH   9  14
HETATM   14  C   UNL     1       6.969  24.332  55.334  1.00  0.00     0.072 A 
HETATM   15  C   UNL     1       6.763  23.842  54.042  1.00  0.00     0.132 A 
HETATM   16  F   UNL     1       5.719  24.267  53.309  1.00  0.00    -0.205 F 
HETATM   17  C   UNL     1       7.606  22.878  53.487  1.00  0.00     0.043 A 
HETATM   18  C   UNL     1       8.677  22.383  54.229  1.00  0.00     0.006 A 
HETATM   19  C   UNL     1       8.893  22.851  55.524  1.00  0.00     0.043 A 
HETATM   20  C   UNL     1       8.043  23.817  56.065  1.00  0.00     0.132 A 
HETATM   21  F   UNL     1       8.258  24.210  57.329  1.00  0.00    -0.205 F 
ENDBRANCH   9  14
ENDBRANCH   7   8
ENDBRANCH   3   7
BRANCH   1  22
HETATM   22  C   UNL     1       7.290  29.969  58.181  1.00  0.00     0.127 C 
BRANCH  22  23
HETATM   23  N   UNL     1       7.617  31.312  58.658  1.00  0.00    -0.376 N 
HETATM   24  H   UNL     1       7.922  31.981  57.956  1.00  0.00     0.161 HD
BRANCH  23  25
HETATM   25  C   UNL     1       7.912  31.568  59.982  1.00  0.00     0.100 A 
HETATM   26  C   UNL     1       9.196  31.846  60.474  1.00  0.00     0.048 A 
HETATM   27  C   UNL     1       9.399  32.063  61.836  1.00  0.00     0.005 A 
HETATM   28  C   UNL     1       8.325  31.981  62.711  1.00  0.00     0.017 A 
HETATM   29  C   UNL     1       7.072  31.687  62.198  1.00  0.00     0.089 A 
HETATM   30  N   UNL     1       6.911  31.497  60.879  1.00  0.00    -0.353 N 
HETATM   31  H   UNL     1       5.982  31.265  60.541  1.00  0.00     0.166 HD
ENDBRANCH  23  25
ENDBRANCH  22  23
ENDBRANCH   1  22
TORSDOF 6
ENDMDL
MODEL 3
REMARK VINA RESULT:      -9.2      3.350      5.598
REMARK  6 active torsions:
REMARK  status: ('A' for Active; 'I' for Inactive)
REMARK    1  A    between atoms: C_3  and  N_4 
REMARK    2  A    between atoms: N_4  and  C_5 
REMARK    3  A    between atoms: C_5  and  C_6 
REMARK    4  A    between atoms: N_8  and  C_10 
REMARK    5  A    between atoms: C_10  and  C_11 
REMARK    6  A    between atoms: C_12  and  C_13 
ROOT
HETATM    1  C   UNL     1       5.165  27.377  52.368  1.00  0.00     0.031 C 
HETATM    2  C   UNL     1       4.517  26.847  53.654  1.00  0.00     0.241 C 
HETATM    3  N   UNL     1       5.670  26.548  54.595  1.00  0.00    -0.067 N 
HETATM    4  H   UNL     1       5.548  27.134  55.432  1.00  0.00     0.280 HD
HETATM    5  C   UNL     1       6.946  27.013  53.930  1.00  0.00     0.235 C 
HETATM    6  C   UNL     1       6.462  27.996  52.884  1.00  0.00     0.035 C 
ENDROOT
BRANCH   3   7
HETATM    7  C   UNL     1       5.699  25.128  55.120  1.00  0.00     0.277 C 
BRANCH   7   8
HETATM    8  C   UNL     1       6.797  24.869  56.084  1.00  0.00     0.016 A 
HETATM    9  C   UNL     1       7.780  23.827  56.032  1.00  0.00     0.102 A 
HETATM   10  N   UNL     1       8.647  23.952  57.042  1.00  0.00    -0.174 NA
HETATM   11  N   UNL     1       8.180  24.950  57.795  1.00  0.00    -0.288 N 
HETATM   12  H   UNL     1       8.666  25.167  58.664  1.00  0.00     0.188 HD
HETATM   13  C   UNL     1       7.084  25.556  57.251  1.00  0.00     0.120 A 
BRANCH   9  14
HETATM   14  C   UNL     1       7.939  22.742  55.074  1.00  0.00     0.072 A 
HETATM   15  C   UNL     1       7.843  21.401  55.456  1.00  0.00     0.132 A 
HETATM   16  F   UNL     1       7.663  21.071  56.748  1.00  0.00    -0.205 F 
HETATM   17  C   UNL     1       7.963  20.369  54.526  1.00  0.00     0.043 A 
HETATM   18  C   UNL     1       8.188  20.668  53.183  1.00  0.00     0.006 A 
HETATM   19  C   UNL     1       8.298  21.999  52.783  1.00  0.00     0.043 A 
HETATM   20  C   UNL     1       8.173  23.021  53.724  1.00  0.00     0.132 A 
HETATM   21  F   UNL     1       8.327  24.286  53.307  1.00  0.00    -0.205 F 
ENDBRANCH   9  14
ENDBRANCH   7   8
ENDBRANCH   3   7
BRANCH   1  22
HETATM   22  C   UNL     1       5.368  26.254  51.331  1.00  0.00     0.127 C 
BRANCH  22  23
HETATM   23  N   UNL     1       5.354  26.781  49.968  1.00  0.00    -0.376 N 
HETATM   24  H   UNL     1       6.078  27.456  49.735  1.00  0.00     0.161 HD
BRANCH  23  25
HETATM   25  C   UNL     1       4.228  26.724  49.171  1.00  0.00     0.100 A 
HETATM   26  C   UNL     1       4.087  25.895  48.048  1.00  0.00     0.048 A 
HETATM   27  C   UNL     1       2.920  25.930  47.287  1.00  0.00     0.005 A 
HETATM   28  C   UNL     1       1.902  26.807  47.633  1.00  0.00     0.017 A 
HETATM   29  C   UNL     1       2.077  27.626  48.735  1.00  0.00     0.089 A 
HETATM   30  N   UNL     1       3.209  27.557  49.454  1.00  0.00    -0.353 N 
HETATM   31  H   UNL     1       3.311  28.185  50.246  1.00  0.00     0.166 HD
ENDBRANCH  23  25
ENDBRANCH  22  23
ENDBRANCH   1  22
TORSDOF 6
ENDMDL
MODEL 4
REMARK VINA RESULT:      -9.1      2.270      4.219
REMARK  6 active torsions:
REMARK  status: ('A' for Active; 'I' for Inactive)
REMARK    1  A    between atoms: C_3  and  N_4 
REMARK    2  A    between atoms: N_4  and  C_5 
REMARK    3  A    between atoms: C_5  and  C_6 
REMARK    4  A    between atoms: N_8  and  C_10 
REMARK    5  A    between atoms: C_10  and  C_11 
REMARK    6  A    between atoms: C_12  and  C_13 
ROOT
HETATM    1  C   UNL     1       6.932  28.839  57.807  1.00  0.00     0.031 C 
HETATM    2  C   UNL     1       6.299  27.920  56.755  1.00  0.00     0.241 C 
HETATM    3  N   UNL     1       7.381  27.684  55.717  1.00  0.00    -0.067 N 
HETATM    4  H   UNL     1       7.568  26.672  55.687  1.00  0.00     0.280 HD
HETATM    5  C   UNL     1       8.651  28.338  56.214  1.00  0.00     0.235 C 
HETATM    6  C   UNL     1       8.414  28.487  57.702  1.00  0.00     0.035 C 
ENDROOT
BRANCH   3   7
HETATM    7  C   UNL     1       6.983  28.046  54.301  1.00  0.00     0.277 C 
BRANCH   7   8
HETATM    8  C   UNL     1       5.771  27.337  53.822  1.00  0.00     0.016 A 
HETATM    9  C   UNL     1       5.599  25.927  53.633  1.00  0.00     0.102 A 
HETATM   10  N   UNL     1       4.347  25.656  53.248  1.00  0.00    -0.174 NA
HETATM   11  N   UNL     1       3.762  26.842  53.067  1.00  0.00    -0.288 N 
HETATM   12  H   UNL     1       2.811  26.860  52.705  1.00  0.00     0.188 HD
HETATM   13  C   UNL     1       4.565  27.888  53.424  1.00  0.00     0.120 A 
BRANCH   9  14
HETATM   14  C   UNL     1       6.551  24.839  53.811  1.00  0.00     0.072 A 
HETATM   15  C   UNL     1       7.371  24.399  52.768  1.00  0.00     0.132 A 
HETATM   16  F   UNL     1       7.255  24.931  51.538  1.00  0.00    -0.205 F 
HETATM   17  C   UNL     1       8.303  23.378  52.957  1.00  0.00     0.043 A 
HETATM   18  C   UNL     1       8.427  22.774  54.207  1.00  0.00     0.006 A 
HETATM   19  C   UNL     1       7.610  23.191  55.257  1.00  0.00     0.043 A 
HETATM   20  C   UNL     1       6.684  24.215  55.054  1.00  0.00     0.132 A 
HETATM   21  F   UNL     1       5.888  24.558  56.078  1.00  0.00    -0.205 F 
ENDBRANCH   9  14
ENDBRANCH   7   8
ENDBRANCH   3   7
BRANCH   1  22
HETATM   22  C   UNL     1       6.613  30.322  57.528  1.00  0.00     0.127 C 
BRANCH  22  23
HETATM   23  N   UNL     1       6.390  31.059  58.771  1.00  0.00    -0.376 N 
HETATM   24  H   UNL     1       5.550  31.630  58.816  1.00  0.00     0.161 HD
BRANCH  23  25
HETATM   25  C   UNL     1       7.413  31.323  59.661  1.00  0.00     0.100 A 
HETATM   26  C   UNL     1       8.658  31.862  59.306  1.00  0.00     0.048 A 
HETATM   27  C   UNL     1       9.640  32.066  60.274  1.00  0.00     0.005 A 
HETATM   28  C   UNL     1       9.388  31.711  61.592  1.00  0.00     0.017 A 
HETATM   29  C   UNL     1       8.156  31.165  61.908  1.00  0.00     0.089 A 
HETATM   30  N   UNL     1       7.229  30.995  60.953  1.00  0.00    -0.353 N 
HETATM   31  H   UNL     1       6.342  30.574  61.218  1.00  0.00     0.166 HD
ENDBRANCH  23  25
ENDBRANCH  22  23
ENDBRANCH   1  22
TORSDOF 6
ENDMDL
MODEL 5
REMARK VINA RESULT:      -9.1      2.268      3.760
REMARK  6 active torsions:
REMARK  status: ('A' for Active; 'I' for Inactive)
REMARK    1  A    between atoms: C_3  and  N_4 
REMARK    2  A    between atoms: N_4  and  C_5 
REMARK    3  A    between atoms: C_5  and  C_6 
REMARK    4  A    between atoms: N_8  and  C_10 
REMARK    5  A    between atoms: C_10  and  C_11 
REMARK    6  A    between atoms: C_12  and  C_13 
ROOT
HETATM    1  C   UNL     1       6.650  28.931  57.783  1.00  0.00     0.031 C 
HETATM    2  C   UNL     1       6.001  27.961  56.787  1.00  0.00     0.241 C 
HETATM    3  N   UNL     1       7.151  27.361  55.998  1.00  0.00    -0.067 N 
HETATM    4  H   UNL     1       7.136  26.343  56.152  1.00  0.00     0.280 HD
HETATM    5  C   UNL     1       8.443  27.864  56.604  1.00  0.00     0.235 C 
HETATM    6  C   UNL     1       8.032  28.315  57.989  1.00  0.00     0.035 C 
ENDROOT
BRANCH   3   7
HETATM    7  C   UNL     1       7.037  27.526  54.497  1.00  0.00     0.277 C 
BRANCH   7   8
HETATM    8  C   UNL     1       5.937  26.737  53.890  1.00  0.00     0.016 A 
HETATM    9  C   UNL     1       5.855  25.313  53.753  1.00  0.00     0.102 A 
HETATM   10  N   UNL     1       4.684  24.962  53.211  1.00  0.00    -0.174 NA
HETATM   11  N   UNL     1       4.080  26.109  52.889  1.00  0.00    -0.288 N 
HETATM   12  H   UNL     1       3.189  26.062  52.398  1.00  0.00     0.188 HD
HETATM   13  C   UNL     1       4.777  27.208  53.300  1.00  0.00     0.120 A 
BRANCH   9  14
HETATM   14  C   UNL     1       6.819  24.283  54.117  1.00  0.00     0.072 A 
HETATM   15  C   UNL     1       6.925  23.803  55.425  1.00  0.00     0.132 A 
HETATM   16  F   UNL     1       6.175  24.331  56.409  1.00  0.00    -0.205 F 
HETATM   17  C   UNL     1       7.828  22.793  55.758  1.00  0.00     0.043 A 
HETATM   18  C   UNL     1       8.650  22.245  54.774  1.00  0.00     0.006 A 
HETATM   19  C   UNL     1       8.567  22.719  53.465  1.00  0.00     0.043 A 
HETATM   20  C   UNL     1       7.658  23.728  53.147  1.00  0.00     0.132 A 
HETATM   21  F   UNL     1       7.638  24.185  51.887  1.00  0.00    -0.205 F 
ENDBRANCH   9  14
ENDBRANCH   7   8
ENDBRANCH   3   7
BRANCH   1  22
HETATM   22  C   UNL     1       6.675  30.372  57.236  1.00  0.00     0.127 C 
BRANCH  22  23
HETATM   23  N   UNL     1       6.421  31.346  58.296  1.00  0.00    -0.376 N 
HETATM   24  H   UNL     1       5.747  32.078  58.089  1.00  0.00     0.161 HD
BRANCH  23  25
HETATM   25  C   UNL     1       7.307  31.545  59.337  1.00  0.00     0.100 A 
HETATM   26  C   UNL     1       8.675  31.808  59.180  1.00  0.00     0.048 A 
HETATM   27  C   UNL     1       9.497  31.965  60.295  1.00  0.00     0.005 A 
HETATM   28  C   UNL     1       8.958  31.838  61.567  1.00  0.00     0.017 A 
HETATM   29  C   UNL     1       7.607  31.559  61.691  1.00  0.00     0.089 A 
HETATM   30  N   UNL     1       6.843  31.428  60.595  1.00  0.00    -0.353 N 
HETATM   31  H   UNL     1       5.860  31.206  60.723  1.00  0.00     0.166 HD
ENDBRANCH  23  25
ENDBRANCH  22  23
ENDBRANCH   1  22
TORSDOF 6
ENDMDL
MODEL 6
REMARK VINA RESULT:      -9.0      1.627      2.711
REMARK  6 active torsions:
REMARK  status: ('A' for Active; 'I' for Inactive)
REMARK    1  A    between atoms: C_3  and  N_4 
REMARK    2  A    between atoms: N_4  and  C_5 
REMARK    3  A    between atoms: C_5  and  C_6 
REMARK    4  A    between atoms: N_8  and  C_10 
REMARK    5  A    between atoms: C_10  and  C_11 
REMARK    6  A    between atoms: C_12  and  C_13 
ROOT
HETATM    1  C   UNL     1       7.151  28.932  56.137  1.00  0.00     0.031 C 
HETATM    2  C   UNL     1       7.405  27.562  55.495  1.00  0.00     0.241 C 
HETATM    3  N   UNL     1       6.031  26.957  55.270  1.00  0.00    -0.067 N 
HETATM    4  H   UNL     1       5.924  26.795  54.259  1.00  0.00     0.280 HD
HETATM    5  C   UNL     1       4.999  27.997  55.647  1.00  0.00     0.235 C 
HETATM    6  C   UNL     1       5.771  29.298  55.593  1.00  0.00     0.035 C 
ENDROOT
BRANCH   3   7
HETATM    7  C   UNL     1       5.833  25.596  55.903  1.00  0.00     0.277 C 
BRANCH   7   8
HETATM    8  C   UNL     1       7.013  25.112  56.661  1.00  0.00     0.016 A 
HETATM    9  C   UNL     1       7.920  24.065  56.295  1.00  0.00     0.102 A 
HETATM   10  N   UNL     1       8.899  23.956  57.200  1.00  0.00    -0.174 NA
HETATM   11  N   UNL     1       8.577  24.803  58.180  1.00  0.00    -0.288 N 
HETATM   12  H   UNL     1       9.168  24.826  59.009  1.00  0.00     0.188 HD
HETATM   13  C   UNL     1       7.466  25.545  57.896  1.00  0.00     0.120 A 
BRANCH   9  14
HETATM   14  C   UNL     1       7.908  23.184  55.135  1.00  0.00     0.072 A 
HETATM   15  C   UNL     1       8.058  23.675  53.835  1.00  0.00     0.132 A 
HETATM   16  F   UNL     1       8.153  24.998  53.612  1.00  0.00    -0.205 F 
HETATM   17  C   UNL     1       8.078  22.820  52.732  1.00  0.00     0.043 A 
HETATM   18  C   UNL     1       7.945  21.445  52.919  1.00  0.00     0.006 A 
HETATM   19  C   UNL     1       7.783  20.936  54.207  1.00  0.00     0.043 A 
HETATM   20  C   UNL     1       7.767  21.803  55.300  1.00  0.00     0.132 A 
HETATM   21  F   UNL     1       7.567  21.280  56.518  1.00  0.00    -0.205 F 
ENDBRANCH   9  14
ENDBRANCH   7   8
ENDBRANCH   3   7
BRANCH   1  22
HETATM   22  C   UNL     1       7.227  28.859  57.675  1.00  0.00     0.127 C 
BRANCH  22  23
HETATM   23  N   UNL     1       6.895  30.146  58.284  1.00  0.00    -0.376 N 
HETATM   24  H   UNL     1       6.182  30.699  57.816  1.00  0.00     0.161 HD
BRANCH  23  25
HETATM   25  C   UNL     1       7.748  30.783  59.164  1.00  0.00     0.100 A 
HETATM   26  C   UNL     1       8.975  31.362  58.807  1.00  0.00     0.048 A 
HETATM   27  C   UNL     1       9.783  31.957  59.775  1.00  0.00     0.005 A 
HETATM   28  C   UNL     1       9.377  31.955  61.102  1.00  0.00     0.017 A 
HETATM   29  C   UNL     1       8.170  31.359  61.427  1.00  0.00     0.089 A 
HETATM   30  N   UNL     1       7.411  30.807  60.467  1.00  0.00    -0.353 N 
HETATM   31  H   UNL     1       6.540  30.363  60.743  1.00  0.00     0.166 HD
ENDBRANCH  23  25
ENDBRANCH  22  23
ENDBRANCH   1  22
TORSDOF 6
ENDMDL
MODEL 7
REMARK VINA RESULT:      -8.7      1.856      2.731
REMARK  6 active torsions:
REMARK  status: ('A' for Active; 'I' for Inactive)
REMARK    1  A    between atoms: C_3  and  N_4 
REMARK    2  A    between atoms: N_4  and  C_5 
REMARK    3  A    between atoms: C_5  and  C_6 
REMARK    4  A    between atoms: N_8  and  C_10 
REMARK    5  A    between atoms: C_10  and  C_11 
REMARK    6  A    between atoms: C_12  and  C_13 
ROOT
HETATM    1  C   UNL     1       5.894  26.810  51.868  1.00  0.00     0.031 C 
HETATM    2  C   UNL     1       6.796  26.196  52.947  1.00  0.00     0.241 C 
HETATM    3  N   UNL     1       6.070  24.951  53.423  1.00  0.00    -0.067 N 
HETATM    4  H   UNL     1       6.681  24.143  53.235  1.00  0.00     0.280 HD
HETATM    5  C   UNL     1       4.843  24.768  52.556  1.00  0.00     0.235 C 
HETATM    6  C   UNL     1       5.157  25.590  51.323  1.00  0.00     0.035 C 
ENDROOT
BRANCH   3   7
HETATM    7  C   UNL     1       5.816  24.903  54.915  1.00  0.00     0.277 C 
BRANCH   7   8
HETATM    8  C   UNL     1       7.050  24.994  55.734  1.00  0.00     0.016 A 
HETATM    9  C   UNL     1       8.099  24.025  55.846  1.00  0.00     0.102 A 
HETATM   10  N   UNL     1       9.079  24.486  56.631  1.00  0.00    -0.174 NA
HETATM   11  N   UNL     1       8.635  25.648  57.115  1.00  0.00    -0.288 N 
HETATM   12  H   UNL     1       9.212  26.139  57.796  1.00  0.00     0.188 HD
HETATM   13  C   UNL     1       7.430  26.016  56.587  1.00  0.00     0.120 A 
BRANCH   9  14
HETATM   14  C   UNL     1       8.219  22.706  55.242  1.00  0.00     0.072 A 
HETATM   15  C   UNL     1       8.068  21.536  55.990  1.00  0.00     0.132 A 
HETATM   16  F   UNL     1       7.869  21.596  57.319  1.00  0.00    -0.205 F 
HETATM   17  C   UNL     1       8.152  20.276  55.396  1.00  0.00     0.043 A 
HETATM   18  C   UNL     1       8.395  20.170  54.027  1.00  0.00     0.006 A 
HETATM   19  C   UNL     1       8.560  21.325  53.265  1.00  0.00     0.043 A 
HETATM   20  C   UNL     1       8.471  22.578  53.873  1.00  0.00     0.132 A 
HETATM   21  F   UNL     1       8.678  23.664  53.114  1.00  0.00    -0.205 F 
ENDBRANCH   9  14
ENDBRANCH   7   8
ENDBRANCH   3   7
BRANCH   1  22
HETATM   22  C   UNL     1       4.971  27.898  52.455  1.00  0.00     0.127 C 
BRANCH  22  23
HETATM   23  N   UNL     1       5.728  28.860  53.254  1.00  0.00    -0.376 N 
HETATM   24  H   UNL     1       6.538  29.283  52.809  1.00  0.00     0.161 HD
BRANCH  23  25
HETATM   25  C   UNL     1       5.640  28.898  54.632  1.00  0.00     0.100 A 
HETATM   26  C   UNL     1       4.606  28.319  55.381  1.00  0.00     0.048 A 
HETATM   27  C   UNL     1       4.589  28.437  56.770  1.00  0.00     0.005 A 
HETATM   28  C   UNL     1       5.593  29.150  57.410  1.00  0.00     0.017 A 
HETATM   29  C   UNL     1       6.590  29.726  56.642  1.00  0.00     0.089 A 
HETATM   30  N   UNL     1       6.582  29.582  55.308  1.00  0.00    -0.353 N 
HETATM   31  H   UNL     1       7.320  30.033  54.774  1.00  0.00     0.166 HD
ENDBRANCH  23  25
ENDBRANCH  22  23
ENDBRANCH   1  22
TORSDOF 6
ENDMDL
MODEL 8
REMARK VINA RESULT:      -8.5      2.533      7.136
REMARK  6 active torsions:
REMARK  status: ('A' for Active; 'I' for Inactive)
REMARK    1  A    between atoms: C_3  and  N_4 
REMARK    2  A    between atoms: N_4  and  C_5 
REMARK    3  A    between atoms: C_5  and  C_6 
REMARK    4  A    between atoms: N_8  and  C_10 
REMARK    5  A    between atoms: C_10  and  C_11 
REMARK    6  A    between atoms: C_12  and  C_13 
ROOT
HETATM    1  C   UNL     1       6.041  24.805  54.924  1.00  0.00     0.031 C 
HETATM    2  C   UNL     1       5.391  25.189  56.260  1.00  0.00     0.241 C 
HETATM    3  N   UNL     1       5.025  26.656  56.126  1.00  0.00    -0.067 N 
HETATM    4  H   UNL     1       4.005  26.734  56.239  1.00  0.00     0.280 HD
HETATM    5  C   UNL     1       5.332  27.084  54.708  1.00  0.00     0.235 C 
HETATM    6  C   UNL     1       5.382  25.776  53.947  1.00  0.00     0.035 C 
ENDROOT
BRANCH   3   7
HETATM    7  C   UNL     1       5.602  27.547  57.206  1.00  0.00     0.277 C 
BRANCH   7   8
HETATM    8  C   UNL     1       5.360  28.993  56.980  1.00  0.00     0.016 A 
HETATM    9  C   UNL     1       6.333  30.042  56.906  1.00  0.00     0.102 A 
HETATM   10  N   UNL     1       5.742  31.209  56.628  1.00  0.00    -0.174 NA
HETATM   11  N   UNL     1       4.431  30.961  56.647  1.00  0.00    -0.288 N 
HETATM   12  H   UNL     1       3.791  31.744  56.522  1.00  0.00     0.188 HD
HETATM   13  C   UNL     1       4.144  29.638  56.827  1.00  0.00     0.120 A 
BRANCH   9  14
HETATM   14  C   UNL     1       7.779  29.987  57.073  1.00  0.00     0.072 A 
HETATM   15  C   UNL     1       8.614  29.452  56.089  1.00  0.00     0.132 A 
HETATM   16  F   UNL     1       8.094  28.907  54.975  1.00  0.00    -0.205 F 
HETATM   17  C   UNL     1      10.001  29.433  56.244  1.00  0.00     0.043 A 
HETATM   18  C   UNL     1      10.577  29.954  57.401  1.00  0.00     0.006 A 
HETATM   19  C   UNL     1       9.760  30.482  58.400  1.00  0.00     0.043 A 
HETATM   20  C   UNL     1       8.375  30.496  58.230  1.00  0.00     0.132 A 
HETATM   21  F   UNL     1       7.622  30.974  59.231  1.00  0.00    -0.205 F 
ENDBRANCH   9  14
ENDBRANCH   7   8
ENDBRANCH   3   7
BRANCH   1  22
HETATM   22  C   UNL     1       7.577  24.917  54.990  1.00  0.00     0.127 C 
BRANCH  22  23
HETATM   23  N   UNL     1       8.211  24.149  53.919  1.00  0.00    -0.376 N 
HETATM   24  H   UNL     1       8.241  24.587  53.003  1.00  0.00     0.161 HD
BRANCH  23  25
HETATM   25  C   UNL     1       8.380  22.781  54.000  1.00  0.00     0.100 A 
HETATM   26  C   UNL     1       7.987  21.869  53.009  1.00  0.00     0.048 A 
HETATM   27  C   UNL     1       8.173  20.500  53.196  1.00  0.00     0.005 A 
HETATM   28  C   UNL     1       8.731  20.039  54.379  1.00  0.00     0.017 A 
HETATM   29  C   UNL     1       9.092  20.961  55.347  1.00  0.00     0.089 A 
HETATM   30  N   UNL     1       8.911  22.273  55.128  1.00  0.00    -0.353 N 
HETATM   31  H   UNL     1       9.171  22.920  55.867  1.00  0.00     0.166 HD
ENDBRANCH  23  25
ENDBRANCH  22  23
ENDBRANCH   1  22
TORSDOF 6
ENDMDL
MODEL 9
REMARK VINA RESULT:      -8.1      2.671      4.658
REMARK  6 active torsions:
REMARK  status: ('A' for Active; 'I' for Inactive)
REMARK    1  A    between atoms: C_3  and  N_4 
REMARK    2  A    between atoms: N_4  and  C_5 
REMARK    3  A    between atoms: C_5  and  C_6 
REMARK    4  A    between atoms: N_8  and  C_10 
REMARK    5  A    between atoms: C_10  and  C_11 
REMARK    6  A    between atoms: C_12  and  C_13 
ROOT
HETATM    1  C   UNL     1       6.166  28.734  57.502  1.00  0.00     0.031 C 
HETATM    2  C   UNL     1       5.982  27.542  56.553  1.00  0.00     0.241 C 
HETATM    3  N   UNL     1       7.311  27.384  55.837  1.00  0.00    -0.067 N 
HETATM    4  H   UNL     1       7.673  26.445  56.056  1.00  0.00     0.280 HD
HETATM    5  C   UNL     1       8.286  28.369  56.443  1.00  0.00     0.235 C 
HETATM    6  C   UNL     1       7.666  28.699  57.785  1.00  0.00     0.035 C 
ENDROOT
BRANCH   3   7
HETATM    7  C   UNL     1       7.218  27.419  54.326  1.00  0.00     0.277 C 
BRANCH   7   8
HETATM    8  C   UNL     1       6.080  26.639  53.779  1.00  0.00     0.016 A 
HETATM    9  C   UNL     1       5.945  25.214  53.717  1.00  0.00     0.102 A 
HETATM   10  N   UNL     1       4.752  24.878  53.213  1.00  0.00    -0.174 NA
HETATM   11  N   UNL     1       4.184  26.028  52.842  1.00  0.00    -0.288 N 
HETATM   12  H   UNL     1       3.283  25.988  52.367  1.00  0.00     0.188 HD
HETATM   13  C   UNL     1       4.927  27.121  53.184  1.00  0.00     0.120 A 
BRANCH   9  14
HETATM   14  C   UNL     1       6.878  24.170  54.120  1.00  0.00     0.072 A 
HETATM   15  C   UNL     1       6.953  23.717  55.439  1.00  0.00     0.132 A 
HETATM   16  F   UNL     1       6.202  24.286  56.399  1.00  0.00    -0.205 F 
HETATM   17  C   UNL     1       7.826  22.694  55.809  1.00  0.00     0.043 A 
HETATM   18  C   UNL     1       8.649  22.105  54.851  1.00  0.00     0.006 A 
HETATM   19  C   UNL     1       8.598  22.550  53.531  1.00  0.00     0.043 A 
HETATM   20  C   UNL     1       7.718  23.573  53.175  1.00  0.00     0.132 A 
HETATM   21  F   UNL     1       7.729  24.002  51.905  1.00  0.00    -0.205 F 
ENDBRANCH   9  14
ENDBRANCH   7   8
ENDBRANCH   3   7
BRANCH   1  22
HETATM   22  C   UNL     1       5.673  30.048  56.863  1.00  0.00     0.127 C 
BRANCH  22  23
HETATM   23  N   UNL     1       4.816  29.786  55.708  1.00  0.00    -0.376 N 
HETATM   24  H   UNL     1       5.044  28.969  55.149  1.00  0.00     0.161 HD
BRANCH  23  25
HETATM   25  C   UNL     1       4.026  30.769  55.144  1.00  0.00     0.100 A 
HETATM   26  C   UNL     1       2.857  31.283  55.724  1.00  0.00     0.048 A 
HETATM   27  C   UNL     1       2.109  32.255  55.061  1.00  0.00     0.005 A 
HETATM   28  C   UNL     1       2.515  32.699  53.811  1.00  0.00     0.017 A 
HETATM   29  C   UNL     1       3.663  32.159  53.256  1.00  0.00     0.089 A 
HETATM   30  N   UNL     1       4.366  31.234  53.928  1.00  0.00    -0.353 N 
HETATM   31  H   UNL     1       5.194  30.847  53.483  1.00  0.00     0.166 HD
ENDBRANCH  23  25
ENDBRANCH  22  23
ENDBRANCH   1  22
TORSDOF 6
ENDMDL
MODEL 10
REMARK VINA RESULT:      -8.1      7.106     10.625
REMARK  6 active torsions:
REMARK  status: ('A' for Active; 'I' for Inactive)
REMARK    1  A    between atoms: C_3  and  N_4 
REMARK    2  A    between atoms: N_4  and  C_5 
REMARK    3  A    between atoms: C_5  and  C_6 
REMARK    4  A    between atoms: N_8  and  C_10 
REMARK    5  A    between atoms: C_10  and  C_11 
REMARK    6  A    between atoms: C_12  and  C_13 
ROOT
HETATM    1  C   UNL     1       5.245  31.957  58.765  1.00  0.00     0.031 C 
HETATM    2  C   UNL     1       4.183  32.393  59.783  1.00  0.00     0.241 C 
HETATM    3  N   UNL     1       3.873  33.842  59.452  1.00  0.00    -0.067 N 
HETATM    4  H   UNL     1       2.873  33.900  59.213  1.00  0.00     0.280 HD
HETATM    5  C   UNL     1       4.633  34.204  58.195  1.00  0.00     0.235 C 
HETATM    6  C   UNL     1       4.944  32.860  57.570  1.00  0.00     0.035 C 
ENDROOT
BRANCH   3   7
HETATM    7  C   UNL     1       4.050  34.801  60.609  1.00  0.00     0.277 C 
BRANCH   7   8
HETATM    8  C   UNL     1       3.246  34.450  61.806  1.00  0.00     0.016 A 
HETATM    9  C   UNL     1       3.721  33.957  63.065  1.00  0.00     0.102 A 
HETATM   10  N   UNL     1       2.705  33.814  63.924  1.00  0.00    -0.174 NA
HETATM   11  N   UNL     1       1.601  34.077  63.221  1.00  0.00    -0.288 N 
HETATM   12  H   UNL     1       0.699  33.960  63.680  1.00  0.00     0.188 HD
HETATM   13  C   UNL     1       1.870  34.492  61.948  1.00  0.00     0.120 A 
BRANCH   9  14
HETATM   14  C   UNL     1       5.076  33.631  63.488  1.00  0.00     0.072 A 
HETATM   15  C   UNL     1       5.684  32.420  63.145  1.00  0.00     0.132 A 
HETATM   16  F   UNL     1       5.003  31.484  62.461  1.00  0.00    -0.205 F 
HETATM   17  C   UNL     1       6.994  32.131  63.527  1.00  0.00     0.043 A 
HETATM   18  C   UNL     1       7.721  33.059  64.270  1.00  0.00     0.006 A 
HETATM   19  C   UNL     1       7.128  34.268  64.632  1.00  0.00     0.043 A 
HETATM   20  C   UNL     1       5.818  34.545  64.241  1.00  0.00     0.132 A 
HETATM   21  F   UNL     1       5.269  35.700  64.645  1.00  0.00    -0.205 F 
ENDBRANCH   9  14
ENDBRANCH   7   8
ENDBRANCH   3   7
BRANCH   1  22
HETATM   22  C   UNL     1       6.670  32.112  59.332  1.00  0.00     0.127 C 
BRANCH  22  23
HETATM   23  N   UNL     1       7.325  30.813  59.480  1.00  0.00    -0.376 N 
HETATM   24  H   UNL     1       7.248  30.367  60.390  1.00  0.00     0.161 HD
BRANCH  23  25
HETATM   25  C   UNL     1       8.327  30.396  58.627  1.00  0.00     0.100 A 
HETATM   26  C   UNL     1       8.322  29.182  57.924  1.00  0.00     0.048 A 
HETATM   27  C   UNL     1       9.396  28.835  57.106  1.00  0.00     0.005 A 
HETATM   28  C   UNL     1      10.486  29.688  57.007  1.00  0.00     0.017 A 
HETATM   29  C   UNL     1      10.471  30.871  57.727  1.00  0.00     0.089 A 
HETATM   30  N   UNL     1       9.413  31.179  58.494  1.00  0.00    -0.353 N 
HETATM   31  H   UNL     1       9.444  32.047  59.022  1.00  0.00     0.166 HD
ENDBRANCH  23  25
ENDBRANCH  22  23
ENDBRANCH   1  22
TORSDOF 6
ENDMDL
