MODEL 1
REMARK VINA RESULT:     -10.0      0.000      0.000
REMARK  6 active torsions:
REMARK  status: ('A' for Active; 'I' for Inactive)
REMARK    1  A    between atoms: C_2  and  C_3 
REMARK    2  A    between atoms: C_6  and  C_7 
REMARK    3  A    between atoms: C_11  and  C_12 
REMARK       I    between atoms: C_12  and  N_13 
REMARK    4  A    between atoms: N_13  and  N_14 
REMARK    5  A    between atoms: C_15  and  C_16 
REMARK    6  A    between atoms: C_19  and  O_20 
ROOT
HETATM    1  C   UNL     1       7.551  27.936  55.978  1.00  0.00     0.289 C 
HETATM    2  N   UNL     1       7.169  26.682  56.430  1.00  0.00    -0.241 N 
HETATM    3  O   UNL     1       8.009  28.164  54.861  1.00  0.00    -0.264 OA
HETATM    4  H   UNL     1       6.816  26.573  57.369  1.00  0.00     0.192 HD
ENDROOT
BRANCH   1   5
HETATM    5  C   UNL     1       7.396  28.991  56.951  1.00  0.00     0.121 A 
HETATM    6  N   UNL     1       6.712  30.137  56.657  1.00  0.00    -0.272 N 
HETATM    7  N   UNL     1       6.691  31.036  57.653  1.00  0.00    -0.174 NA
HETATM    8  H   UNL     1       6.254  30.362  55.778  1.00  0.00     0.189 HD
HETATM    9  C   UNL     1       7.352  30.444  58.659  1.00  0.00     0.089 A 
HETATM   10  C   UNL     1       7.812  29.159  58.256  1.00  0.00     0.071 A 
BRANCH   9  11
HETATM   11  C   UNL     1       7.550  31.102  59.953  1.00  0.00    -0.006 A 
HETATM   12  C   UNL     1       6.637  32.055  60.425  1.00  0.00     0.014 A 
HETATM   13  C   UNL     1       6.816  32.660  61.673  1.00  0.00     0.008 A 
HETATM   14  C   UNL     1       7.916  32.327  62.473  1.00  0.00    -0.059 A 
HETATM   15  C   UNL     1       8.833  31.381  62.003  1.00  0.00     0.008 A 
HETATM   16  C   UNL     1       8.654  30.779  60.754  1.00  0.00     0.014 A 
BRANCH  14  17
HETATM   17  C   UNL     1       8.091  32.959  63.830  1.00  0.00     0.034 C 
HETATM   18  C   UNL     1       6.756  33.345  64.449  1.00  0.00     0.010 C 
ENDBRANCH  14  17
ENDBRANCH   9  11
ENDBRANCH   1   5
BRANCH   2  19
HETATM   19  N   UNL     1       7.253  25.597  55.612  1.00  0.00    -0.176 NA
HETATM   20  C   UNL     1       7.946  24.561  55.991  1.00  0.00     0.061 C 
HETATM   21  C   UNL     1       8.729  24.505  57.288  1.00  0.00     0.073 C 
BRANCH  20  22
HETATM   22  C   UNL     1       7.971  23.362  55.090  1.00  0.00    -0.010 A 
HETATM   23  C   UNL     1       7.937  22.083  55.667  1.00  0.00     0.016 A 
HETATM   24  C   UNL     1       7.961  20.939  54.864  1.00  0.00     0.037 A 
HETATM   25  C   UNL     1       8.025  21.078  53.482  1.00  0.00     0.065 A 
HETATM   26  C   UNL     1       8.071  22.337  52.894  1.00  0.00     0.037 A 
HETATM   27  C   UNL     1       8.052  23.481  53.697  1.00  0.00     0.016 A 
BRANCH  25  28
HETATM   28  O   UNL     1       8.048  19.993  52.658  1.00  0.00    -0.361 OA
HETATM   29  H   UNL     1       7.278  20.035  52.068  1.00  0.00     0.217 HD
ENDBRANCH  25  28
ENDBRANCH  20  22
ENDBRANCH   2  19
TORSDOF 6
ENDMDL
MODEL 2
REMARK VINA RESULT:      -9.6      1.693      2.314
REMARK  6 active torsions:
REMARK  status: ('A' for Active; 'I' for Inactive)
REMARK    1  A    between atoms: C_2  and  C_3 
REMARK    2  A    between atoms: C_6  and  C_7 
REMARK    3  A    between atoms: C_11  and  C_12 
REMARK       I    between atoms: C_12  and  N_13 
REMARK    4  A    between atoms: N_13  and  N_14 
REMARK    5  A    between atoms: C_15  and  C_16 
REMARK    6  A    between atoms: C_19  and  O_20 
ROOT
HETATM    1  C   UNL     1       9.320  29.141  57.447  1.00  0.00     0.289 C 
HETATM    2  N   UNL     1       8.361  28.140  57.484  1.00  0.00    -0.241 N 
HETATM    3  O   UNL     1      10.307  29.133  56.716  1.00  0.00    -0.264 OA
HETATM    4  H   UNL     1       7.585  28.212  58.125  1.00  0.00     0.192 HD
ENDROOT
BRANCH   1   5
HETATM    5  C   UNL     1       9.088  30.221  58.377  1.00  0.00     0.121 A 
HETATM    6  N   UNL     1       9.729  31.422  58.250  1.00  0.00    -0.272 N 
HETATM    7  N   UNL     1       9.435  32.306  59.214  1.00  0.00    -0.174 NA
HETATM    8  H   UNL     1      10.394  31.681  57.526  1.00  0.00     0.189 HD
HETATM    9  C   UNL     1       8.535  31.681  59.987  1.00  0.00     0.089 A 
HETATM   10  C   UNL     1       8.292  30.368  59.495  1.00  0.00     0.071 A 
BRANCH   9  11
HETATM   11  C   UNL     1       7.947  32.318  61.168  1.00  0.00    -0.006 A 
HETATM   12  C   UNL     1       6.769  33.073  61.070  1.00  0.00     0.014 A 
HETATM   13  C   UNL     1       6.197  33.657  62.204  1.00  0.00     0.008 A 
HETATM   14  C   UNL     1       6.794  33.501  63.461  1.00  0.00    -0.059 A 
HETATM   15  C   UNL     1       7.972  32.753  63.563  1.00  0.00     0.008 A 
HETATM   16  C   UNL     1       8.545  32.173  62.428  1.00  0.00     0.014 A 
BRANCH  14  17
HETATM   17  C   UNL     1       6.159  34.105  64.687  1.00  0.00     0.034 C 
HETATM   18  C   UNL     1       6.968  33.815  65.943  1.00  0.00     0.010 C 
ENDBRANCH  14  17
ENDBRANCH   9  11
ENDBRANCH   1   5
BRANCH   2  19
HETATM   19  N   UNL     1       8.451  27.066  56.652  1.00  0.00    -0.176 NA
HETATM   20  C   UNL     1       7.374  26.397  56.353  1.00  0.00     0.061 C 
HETATM   21  C   UNL     1       6.006  26.707  56.928  1.00  0.00     0.073 C 
BRANCH  20  22
HETATM   22  C   UNL     1       7.501  25.254  55.389  1.00  0.00    -0.010 A 
HETATM   23  C   UNL     1       8.195  24.103  55.793  1.00  0.00     0.016 A 
HETATM   24  C   UNL     1       8.337  23.017  54.926  1.00  0.00     0.037 A 
HETATM   25  C   UNL     1       7.788  23.086  53.650  1.00  0.00     0.065 A 
HETATM   26  C   UNL     1       7.108  24.223  53.229  1.00  0.00     0.037 A 
HETATM   27  C   UNL     1       6.969  25.311  54.095  1.00  0.00     0.016 A 
BRANCH  25  28
HETATM   28  O   UNL     1       7.899  22.052  52.770  1.00  0.00    -0.361 OA
HETATM   29  H   UNL     1       7.329  22.233  52.005  1.00  0.00     0.217 HD
ENDBRANCH  25  28
ENDBRANCH  20  22
ENDBRANCH   2  19
TORSDOF 6
ENDMDL
MODEL 3
REMARK VINA RESULT:      -9.2      0.981      1.753
REMARK  6 active torsions:
REMARK  status: ('A' for Active; 'I' for Inactive)
REMARK    1  A    between atoms: C_2  and  C_3 
REMARK    2  A    between atoms: C_6  and  C_7 
REMARK    3  A    between atoms: C_11  and  C_12 
REMARK       I    between atoms: C_12  and  N_13 
REMARK    4  A    between atoms: N_13  and  N_14 
REMARK    5  A    between atoms: C_15  and  C_16 
REMARK    6  A    between atoms: C_19  and  O_20 
ROOT
HETATM    1  C   UNL     1       6.481  28.051  55.347  1.00  0.00     0.289 C 
HETATM    2  N   UNL     1       6.926  26.890  55.962  1.00  0.00    -0.241 N 
HETATM    3  O   UNL     1       6.228  28.150  54.149  1.00  0.00    -0.264 OA
HETATM    4  H   UNL     1       7.127  26.892  56.951  1.00  0.00     0.192 HD
ENDROOT
BRANCH   1   5
HETATM    5  C   UNL     1       6.354  29.182  56.233  1.00  0.00     0.121 A 
HETATM    6  N   UNL     1       5.851  30.377  55.798  1.00  0.00    -0.272 N 
HETATM    7  N   UNL     1       5.834  31.340  56.732  1.00  0.00    -0.174 NA
HETATM    8  H   UNL     1       5.520  30.590  54.861  1.00  0.00     0.189 HD
HETATM    9  C   UNL     1       6.307  30.748  57.839  1.00  0.00     0.089 A 
HETATM   10  C   UNL     1       6.647  29.393  57.566  1.00  0.00     0.071 A 
BRANCH   9  11
HETATM   11  C   UNL     1       6.446  31.469  59.107  1.00  0.00    -0.006 A 
HETATM   12  C   UNL     1       7.648  31.433  59.829  1.00  0.00     0.014 A 
HETATM   13  C   UNL     1       7.784  32.145  61.025  1.00  0.00     0.008 A 
HETATM   14  C   UNL     1       6.719  32.904  61.526  1.00  0.00    -0.059 A 
HETATM   15  C   UNL     1       5.517  32.937  60.812  1.00  0.00     0.008 A 
HETATM   16  C   UNL     1       5.381  32.223  59.618  1.00  0.00     0.014 A 
BRANCH  14  17
HETATM   17  C   UNL     1       6.879  33.694  62.800  1.00  0.00     0.034 C 
HETATM   18  C   UNL     1       7.740  32.959  63.816  1.00  0.00     0.010 C 
ENDBRANCH  14  17
ENDBRANCH   9  11
ENDBRANCH   1   5
BRANCH   2  19
HETATM   19  N   UNL     1       7.081  25.743  55.245  1.00  0.00    -0.176 NA
HETATM   20  C   UNL     1       7.690  24.728  55.787  1.00  0.00     0.061 C 
HETATM   21  C   UNL     1       8.303  24.758  57.173  1.00  0.00     0.073 C 
BRANCH  20  22
HETATM   22  C   UNL     1       7.794  23.461  54.989  1.00  0.00    -0.010 A 
HETATM   23  C   UNL     1       7.950  23.550  53.597  1.00  0.00     0.016 A 
HETATM   24  C   UNL     1       8.048  22.395  52.816  1.00  0.00     0.037 A 
HETATM   25  C   UNL     1       7.985  21.150  53.431  1.00  0.00     0.065 A 
HETATM   26  C   UNL     1       7.819  21.043  54.806  1.00  0.00     0.037 A 
HETATM   27  C   UNL     1       7.716  22.198  55.587  1.00  0.00     0.016 A 
BRANCH  25  28
HETATM   28  O   UNL     1       8.078  19.996  52.712  1.00  0.00    -0.361 OA
HETATM   29  H   UNL     1       7.738  20.159  51.817  1.00  0.00     0.217 HD
ENDBRANCH  25  28
ENDBRANCH  20  22
ENDBRANCH   2  19
TORSDOF 6
ENDMDL
MODEL 4
REMARK VINA RESULT:      -8.9      7.239     10.909
REMARK  6 active torsions:
REMARK  status: ('A' for Active; 'I' for Inactive)
REMARK    1  A    between atoms: C_2  and  C_3 
REMARK    2  A    between atoms: C_6  and  C_7 
REMARK    3  A    between atoms: C_11  and  C_12 
REMARK       I    between atoms: C_12  and  N_13 
REMARK    4  A    between atoms: N_13  and  N_14 
REMARK    5  A    between atoms: C_15  and  C_16 
REMARK    6  A    between atoms: C_19  and  O_20 
ROOT
HETATM    1  C   UNL     1       4.776  27.772  50.820  1.00  0.00     0.289 C 
HETATM    2  N   UNL     1       3.794  27.105  50.104  1.00  0.00    -0.241 N 
HETATM    3  O   UNL     1       5.020  28.971  50.716  1.00  0.00    -0.264 OA
HETATM    4  H   UNL     1       3.664  26.112  50.235  1.00  0.00     0.192 HD
ENDROOT
BRANCH   1   5
HETATM    5  C   UNL     1       5.537  26.930  51.711  1.00  0.00     0.121 A 
HETATM    6  N   UNL     1       6.383  27.459  52.645  1.00  0.00    -0.272 N 
HETATM    7  N   UNL     1       7.047  26.545  53.368  1.00  0.00    -0.174 NA
HETATM    8  H   UNL     1       6.556  28.447  52.816  1.00  0.00     0.189 HD
HETATM    9  C   UNL     1       6.592  25.364  52.923  1.00  0.00     0.089 A 
HETATM   10  C   UNL     1       5.644  25.564  51.880  1.00  0.00     0.071 A 
BRANCH   9  11
HETATM   11  C   UNL     1       7.070  24.091  53.468  1.00  0.00    -0.006 A 
HETATM   12  C   UNL     1       7.645  23.120  52.635  1.00  0.00     0.014 A 
HETATM   13  C   UNL     1       8.124  21.917  53.165  1.00  0.00     0.008 A 
HETATM   14  C   UNL     1       8.035  21.660  54.538  1.00  0.00    -0.059 A 
HETATM   15  C   UNL     1       7.457  22.623  55.371  1.00  0.00     0.008 A 
HETATM   16  C   UNL     1       6.975  23.823  54.841  1.00  0.00     0.014 A 
BRANCH  14  17
HETATM   17  C   UNL     1       8.579  20.376  55.110  1.00  0.00     0.034 C 
HETATM   18  C   UNL     1       8.843  20.491  56.604  1.00  0.00     0.010 C 
ENDBRANCH  14  17
ENDBRANCH   9  11
ENDBRANCH   1   5
BRANCH   2  19
HETATM   19  N   UNL     1       2.994  27.780  49.234  1.00  0.00    -0.176 NA
HETATM   20  C   UNL     1       2.518  27.163  48.190  1.00  0.00     0.061 C 
HETATM   21  C   UNL     1       2.851  25.725  47.842  1.00  0.00     0.073 C 
BRANCH  20  22
HETATM   22  C   UNL     1       1.595  27.921  47.283  1.00  0.00    -0.010 A 
HETATM   23  C   UNL     1       1.789  29.302  47.122  1.00  0.00     0.016 A 
HETATM   24  C   UNL     1       0.950  30.046  46.288  1.00  0.00     0.037 A 
HETATM   25  C   UNL     1      -0.088  29.407  45.619  1.00  0.00     0.065 A 
HETATM   26  C   UNL     1      -0.302  28.043  45.776  1.00  0.00     0.037 A 
HETATM   27  C   UNL     1       0.534  27.299  46.614  1.00  0.00     0.016 A 
BRANCH  25  28
HETATM   28  O   UNL     1      -0.930  30.090  44.794  1.00  0.00    -0.361 OA
HETATM   29  H   UNL     1      -1.681  29.515  44.573  1.00  0.00     0.217 HD
ENDBRANCH  25  28
ENDBRANCH  20  22
ENDBRANCH   2  19
TORSDOF 6
ENDMDL
MODEL 5
REMARK VINA RESULT:      -8.7      2.864     10.848
REMARK  6 active torsions:
REMARK  status: ('A' for Active; 'I' for Inactive)
REMARK    1  A    between atoms: C_2  and  C_3 
REMARK    2  A    between atoms: C_6  and  C_7 
REMARK    3  A    between atoms: C_11  and  C_12 
REMARK       I    between atoms: C_12  and  N_13 
REMARK    4  A    between atoms: N_13  and  N_14 
REMARK    5  A    between atoms: C_15  and  C_16 
REMARK    6  A    between atoms: C_19  and  O_20 
ROOT
HETATM    1  C   UNL     1       7.570  29.255  57.895  1.00  0.00     0.289 C 
HETATM    2  N   UNL     1       6.517  30.150  58.008  1.00  0.00    -0.241 N 
HETATM    3  O   UNL     1       8.597  29.299  58.567  1.00  0.00    -0.264 OA
HETATM    4  H   UNL     1       5.711  30.056  57.407  1.00  0.00     0.192 HD
ENDROOT
BRANCH   1   5
HETATM    5  C   UNL     1       7.385  28.246  56.880  1.00  0.00     0.121 A 
HETATM    6  N   UNL     1       6.554  28.449  55.813  1.00  0.00    -0.272 N 
HETATM    7  N   UNL     1       6.461  27.402  54.980  1.00  0.00    -0.174 NA
HETATM    8  H   UNL     1       6.012  29.287  55.619  1.00  0.00     0.189 HD
HETATM    9  C   UNL     1       7.294  26.484  55.494  1.00  0.00     0.089 A 
HETATM   10  C   UNL     1       7.892  26.976  56.688  1.00  0.00     0.071 A 
BRANCH   9  11
HETATM   11  C   UNL     1       7.489  25.174  54.867  1.00  0.00    -0.006 A 
HETATM   12  C   UNL     1       7.446  23.997  55.627  1.00  0.00     0.014 A 
HETATM   13  C   UNL     1       7.606  22.747  55.020  1.00  0.00     0.008 A 
HETATM   14  C   UNL     1       7.817  22.650  53.639  1.00  0.00    -0.059 A 
HETATM   15  C   UNL     1       7.866  23.823  52.877  1.00  0.00     0.008 A 
HETATM   16  C   UNL     1       7.710  25.071  53.486  1.00  0.00     0.014 A 
BRANCH  14  17
HETATM   17  C   UNL     1       7.959  21.301  52.982  1.00  0.00     0.034 C 
HETATM   18  C   UNL     1       8.685  20.310  53.880  1.00  0.00     0.010 C 
ENDBRANCH  14  17
ENDBRANCH   9  11
ENDBRANCH   1   5
BRANCH   2  19
HETATM   19  N   UNL     1       6.554  31.148  58.933  1.00  0.00    -0.176 NA
HETATM   20  C   UNL     1       5.466  31.810  59.205  1.00  0.00     0.061 C 
HETATM   21  C   UNL     1       4.143  31.575  58.503  1.00  0.00     0.073 C 
BRANCH  20  22
HETATM   22  C   UNL     1       5.531  32.865  60.270  1.00  0.00    -0.010 A 
HETATM   23  C   UNL     1       4.609  33.922  60.231  1.00  0.00     0.016 A 
HETATM   24  C   UNL     1       4.636  34.926  61.203  1.00  0.00     0.037 A 
HETATM   25  C   UNL     1       5.592  34.874  62.210  1.00  0.00     0.065 A 
HETATM   26  C   UNL     1       6.521  33.842  62.258  1.00  0.00     0.037 A 
HETATM   27  C   UNL     1       6.497  32.839  61.284  1.00  0.00     0.016 A 
BRANCH  25  28
HETATM   28  O   UNL     1       5.657  35.829  63.180  1.00  0.00    -0.361 OA
HETATM   29  H   UNL     1       6.235  36.546  62.872  1.00  0.00     0.217 HD
ENDBRANCH  25  28
ENDBRANCH  20  22
ENDBRANCH   2  19
TORSDOF 6
ENDMDL
MODEL 6
REMARK VINA RESULT:      -8.3      6.654      9.035
REMARK  6 active torsions:
REMARK  status: ('A' for Active; 'I' for Inactive)
REMARK    1  A    between atoms: C_2  and  C_3 
REMARK    2  A    between atoms: C_6  and  C_7 
REMARK    3  A    between atoms: C_11  and  C_12 
REMARK       I    between atoms: C_12  and  N_13 
REMARK    4  A    between atoms: N_13  and  N_14 
REMARK    5  A    between atoms: C_15  and  C_16 
REMARK    6  A    between atoms: C_19  and  O_20 
ROOT
HETATM    1  C   UNL     1       5.443  25.954  51.143  1.00  0.00     0.289 C 
HETATM    2  N   UNL     1       6.735  25.786  51.616  1.00  0.00    -0.241 N 
HETATM    3  O   UNL     1       4.609  25.055  51.060  1.00  0.00    -0.264 OA
HETATM    4  H   UNL     1       7.368  26.573  51.639  1.00  0.00     0.192 HD
ENDROOT
BRANCH   1   5
HETATM    5  C   UNL     1       5.137  27.297  50.713  1.00  0.00     0.121 A 
HETATM    6  N   UNL     1       4.034  27.961  51.174  1.00  0.00    -0.272 N 
HETATM    7  N   UNL     1       3.869  29.185  50.651  1.00  0.00    -0.174 NA
HETATM    8  H   UNL     1       3.349  27.610  51.839  1.00  0.00     0.189 HD
HETATM    9  C   UNL     1       4.926  29.354  49.843  1.00  0.00     0.089 A 
HETATM   10  C   UNL     1       5.745  28.190  49.853  1.00  0.00     0.071 A 
BRANCH   9  11
HETATM   11  C   UNL     1       5.127  30.585  49.072  1.00  0.00    -0.006 A 
HETATM   12  C   UNL     1       5.998  31.586  49.526  1.00  0.00     0.014 A 
HETATM   13  C   UNL     1       6.207  32.746  48.774  1.00  0.00     0.008 A 
HETATM   14  C   UNL     1       5.546  32.931  47.554  1.00  0.00    -0.059 A 
HETATM   15  C   UNL     1       4.672  31.937  47.100  1.00  0.00     0.008 A 
HETATM   16  C   UNL     1       4.461  30.779  47.854  1.00  0.00     0.014 A 
BRANCH  14  17
HETATM   17  C   UNL     1       5.796  34.168  46.731  1.00  0.00     0.034 C 
HETATM   18  C   UNL     1       7.161  34.773  47.022  1.00  0.00     0.010 C 
ENDBRANCH  14  17
ENDBRANCH   9  11
ENDBRANCH   1   5
BRANCH   2  19
HETATM   19  N   UNL     1       7.155  24.571  52.064  1.00  0.00    -0.176 NA
HETATM   20  C   UNL     1       7.180  24.334  53.344  1.00  0.00     0.061 C 
HETATM   21  C   UNL     1       6.820  25.365  54.396  1.00  0.00     0.073 C 
BRANCH  20  22
HETATM   22  C   UNL     1       7.594  22.966  53.800  1.00  0.00    -0.010 A 
HETATM   23  C   UNL     1       7.613  22.688  55.175  1.00  0.00     0.016 A 
HETATM   24  C   UNL     1       7.994  21.427  55.642  1.00  0.00     0.037 A 
HETATM   25  C   UNL     1       8.362  20.446  54.729  1.00  0.00     0.065 A 
HETATM   26  C   UNL     1       8.361  20.706  53.364  1.00  0.00     0.037 A 
HETATM   27  C   UNL     1       7.984  21.969  52.897  1.00  0.00     0.016 A 
BRANCH  25  28
HETATM   28  O   UNL     1       8.740  19.201  55.136  1.00  0.00    -0.361 OA
HETATM   29  H   UNL     1       9.676  19.072  54.914  1.00  0.00     0.217 HD
ENDBRANCH  25  28
ENDBRANCH  20  22
ENDBRANCH   2  19
TORSDOF 6
ENDMDL
MODEL 7
REMARK VINA RESULT:      -8.2      3.335     10.610
REMARK  6 active torsions:
REMARK  status: ('A' for Active; 'I' for Inactive)
REMARK    1  A    between atoms: C_2  and  C_3 
REMARK    2  A    between atoms: C_6  and  C_7 
REMARK    3  A    between atoms: C_11  and  C_12 
REMARK       I    between atoms: C_12  and  N_13 
REMARK    4  A    between atoms: N_13  and  N_14 
REMARK    5  A    between atoms: C_15  and  C_16 
REMARK    6  A    between atoms: C_19  and  O_20 
ROOT
HETATM    1  C   UNL     1       4.382  28.987  55.727  1.00  0.00     0.289 C 
HETATM    2  N   UNL     1       4.753  29.096  57.059  1.00  0.00    -0.241 N 
HETATM    3  O   UNL     1       3.711  29.819  55.121  1.00  0.00    -0.264 OA
HETATM    4  H   UNL     1       5.294  28.361  57.492  1.00  0.00     0.192 HD
ENDROOT
BRANCH   1   5
HETATM    5  C   UNL     1       4.830  27.776  55.083  1.00  0.00     0.121 A 
HETATM    6  N   UNL     1       4.303  27.366  53.890  1.00  0.00    -0.272 N 
HETATM    7  N   UNL     1       4.796  26.202  53.442  1.00  0.00    -0.174 NA
HETATM    8  H   UNL     1       3.587  27.842  53.348  1.00  0.00     0.189 HD
HETATM    9  C   UNL     1       5.714  25.848  54.354  1.00  0.00     0.089 A 
HETATM   10  C   UNL     1       5.763  26.810  55.402  1.00  0.00     0.071 A 
BRANCH   9  11
HETATM   11  C   UNL     1       6.499  24.616  54.231  1.00  0.00    -0.006 A 
HETATM   12  C   UNL     1       6.820  23.849  55.360  1.00  0.00     0.014 A 
HETATM   13  C   UNL     1       7.546  22.660  55.233  1.00  0.00     0.008 A 
HETATM   14  C   UNL     1       7.970  22.217  53.975  1.00  0.00    -0.059 A 
HETATM   15  C   UNL     1       7.656  22.982  52.846  1.00  0.00     0.008 A 
HETATM   16  C   UNL     1       6.933  24.172  52.974  1.00  0.00     0.014 A 
BRANCH  14  17
HETATM   17  C   UNL     1       8.726  20.920  53.838  1.00  0.00     0.034 C 
HETATM   18  C   UNL     1       8.668  20.096  55.115  1.00  0.00     0.010 C 
ENDBRANCH  14  17
ENDBRANCH   9  11
ENDBRANCH   1   5
BRANCH   2  19
HETATM   19  N   UNL     1       4.406  30.194  57.786  1.00  0.00    -0.176 NA
HETATM   20  C   UNL     1       5.332  31.022  58.176  1.00  0.00     0.061 C 
HETATM   21  C   UNL     1       6.811  30.810  57.918  1.00  0.00     0.073 C 
BRANCH  20  22
HETATM   22  C   UNL     1       4.908  32.250  58.926  1.00  0.00    -0.010 A 
HETATM   23  C   UNL     1       5.380  32.440  60.235  1.00  0.00     0.016 A 
HETATM   24  C   UNL     1       5.008  33.569  60.969  1.00  0.00     0.037 A 
HETATM   25  C   UNL     1       4.158  34.506  60.394  1.00  0.00     0.065 A 
HETATM   26  C   UNL     1       3.671  34.329  59.104  1.00  0.00     0.037 A 
HETATM   27  C   UNL     1       4.039  33.197  58.370  1.00  0.00     0.016 A 
BRANCH  25  28
HETATM   28  O   UNL     1       3.768  35.624  61.070  1.00  0.00    -0.361 OA
HETATM   29  H   UNL     1       3.036  36.039  60.586  1.00  0.00     0.217 HD
ENDBRANCH  25  28
ENDBRANCH  20  22
ENDBRANCH   2  19
TORSDOF 6
ENDMDL
MODEL 8
REMARK VINA RESULT:      -8.1      4.900      6.308
REMARK  6 active torsions:
REMARK  status: ('A' for Active; 'I' for Inactive)
REMARK    1  A    between atoms: C_2  and  C_3 
REMARK    2  A    between atoms: C_6  and  C_7 
REMARK    3  A    between atoms: C_11  and  C_12 
REMARK       I    between atoms: C_12  and  N_13 
REMARK    4  A    between atoms: N_13  and  N_14 
REMARK    5  A    between atoms: C_15  and  C_16 
REMARK    6  A    between atoms: C_19  and  O_20 
ROOT
HETATM    1  C   UNL     1       5.234  26.737  56.098  1.00  0.00     0.289 C 
HETATM    2  N   UNL     1       5.255  25.994  54.928  1.00  0.00    -0.241 N 
HETATM    3  O   UNL     1       5.640  26.335  57.186  1.00  0.00    -0.264 OA
HETATM    4  H   UNL     1       4.888  26.389  54.075  1.00  0.00     0.192 HD
ENDROOT
BRANCH   1   5
HETATM    5  C   UNL     1       4.659  28.053  55.956  1.00  0.00     0.121 A 
HETATM    6  N   UNL     1       4.488  28.877  57.033  1.00  0.00    -0.272 N 
HETATM    7  N   UNL     1       3.906  30.050  56.742  1.00  0.00    -0.174 NA
HETATM    8  H   UNL     1       4.740  28.675  57.997  1.00  0.00     0.189 HD
HETATM    9  C   UNL     1       3.721  30.016  55.414  1.00  0.00     0.089 A 
HETATM   10  C   UNL     1       4.179  28.778  54.884  1.00  0.00     0.071 A 
BRANCH   9  11
HETATM   11  C   UNL     1       3.105  31.130  54.686  1.00  0.00    -0.006 A 
HETATM   12  C   UNL     1       3.299  31.286  53.306  1.00  0.00     0.014 A 
HETATM   13  C   UNL     1       2.688  32.334  52.612  1.00  0.00     0.008 A 
HETATM   14  C   UNL     1       1.871  33.251  53.285  1.00  0.00    -0.059 A 
HETATM   15  C   UNL     1       1.679  33.102  54.662  1.00  0.00     0.008 A 
HETATM   16  C   UNL     1       2.293  32.056  55.356  1.00  0.00     0.014 A 
BRANCH  14  17
HETATM   17  C   UNL     1       1.188  34.362  52.529  1.00  0.00     0.034 C 
HETATM   18  C   UNL     1       1.625  34.405  51.072  1.00  0.00     0.010 C 
ENDBRANCH  14  17
ENDBRANCH   9  11
ENDBRANCH   1   5
BRANCH   2  19
HETATM   19  N   UNL     1       5.779  24.737  54.916  1.00  0.00    -0.176 NA
HETATM   20  C   UNL     1       6.797  24.475  54.146  1.00  0.00     0.061 C 
HETATM   21  C   UNL     1       7.413  25.485  53.198  1.00  0.00     0.073 C 
BRANCH  20  22
HETATM   22  C   UNL     1       7.385  23.096  54.200  1.00  0.00    -0.010 A 
HETATM   23  C   UNL     1       7.564  22.487  55.452  1.00  0.00     0.016 A 
HETATM   24  C   UNL     1       8.110  21.204  55.547  1.00  0.00     0.037 A 
HETATM   25  C   UNL     1       8.482  20.534  54.387  1.00  0.00     0.065 A 
HETATM   26  C   UNL     1       8.323  21.127  53.141  1.00  0.00     0.037 A 
HETATM   27  C   UNL     1       7.781  22.411  53.045  1.00  0.00     0.016 A 
BRANCH  25  28
HETATM   28  O   UNL     1       9.017  19.281  54.429  1.00  0.00    -0.361 OA
HETATM   29  H   UNL     1       9.473  19.110  53.589  1.00  0.00     0.217 HD
ENDBRANCH  25  28
ENDBRANCH  20  22
ENDBRANCH   2  19
TORSDOF 6
ENDMDL
MODEL 9
REMARK VINA RESULT:      -8.0      3.487     11.088
REMARK  6 active torsions:
REMARK  status: ('A' for Active; 'I' for Inactive)
REMARK    1  A    between atoms: C_2  and  C_3 
REMARK    2  A    between atoms: C_6  and  C_7 
REMARK    3  A    between atoms: C_11  and  C_12 
REMARK       I    between atoms: C_12  and  N_13 
REMARK    4  A    between atoms: N_13  and  N_14 
REMARK    5  A    between atoms: C_15  and  C_16 
REMARK    6  A    between atoms: C_19  and  O_20 
ROOT
HETATM    1  C   UNL     1       7.281  31.396  59.003  1.00  0.00     0.289 C 
HETATM    2  N   UNL     1       6.159  31.590  59.795  1.00  0.00    -0.241 N 
HETATM    3  O   UNL     1       8.290  32.096  59.042  1.00  0.00    -0.264 OA
HETATM    4  H   UNL     1       5.361  30.980  59.693  1.00  0.00     0.192 HD
ENDROOT
BRANCH   1   5
HETATM    5  C   UNL     1       7.172  30.294  58.078  1.00  0.00     0.121 A 
HETATM    6  N   UNL     1       6.574  30.443  56.858  1.00  0.00    -0.272 N 
HETATM    7  N   UNL     1       6.517  29.317  56.131  1.00  0.00    -0.174 NA
HETATM    8  H   UNL     1       6.170  31.296  56.481  1.00  0.00     0.189 HD
HETATM    9  C   UNL     1       7.139  28.396  56.883  1.00  0.00     0.089 A 
HETATM   10  C   UNL     1       7.563  28.970  58.114  1.00  0.00     0.071 A 
BRANCH   9  11
HETATM   11  C   UNL     1       7.299  27.008  56.439  1.00  0.00    -0.006 A 
HETATM   12  C   UNL     1       7.781  26.022  57.312  1.00  0.00     0.014 A 
HETATM   13  C   UNL     1       7.906  24.695  56.891  1.00  0.00     0.008 A 
HETATM   14  C   UNL     1       7.555  24.326  55.587  1.00  0.00    -0.059 A 
HETATM   15  C   UNL     1       7.079  25.308  54.711  1.00  0.00     0.008 A 
HETATM   16  C   UNL     1       6.958  26.635  55.132  1.00  0.00     0.014 A 
BRANCH  14  17
HETATM   17  C   UNL     1       7.662  22.889  55.145  1.00  0.00     0.034 C 
HETATM   18  C   UNL     1       8.740  22.141  55.916  1.00  0.00     0.010 C 
ENDBRANCH  14  17
ENDBRANCH   9  11
ENDBRANCH   1   5
BRANCH   2  19
HETATM   19  N   UNL     1       6.130  32.589  60.719  1.00  0.00    -0.176 NA
HETATM   20  C   UNL     1       5.053  32.774  61.428  1.00  0.00     0.061 C 
HETATM   21  C   UNL     1       3.781  31.968  61.248  1.00  0.00     0.073 C 
BRANCH  20  22
HETATM   22  C   UNL     1       5.075  33.847  62.476  1.00  0.00    -0.010 A 
HETATM   23  C   UNL     1       5.721  35.059  62.189  1.00  0.00     0.016 A 
HETATM   24  C   UNL     1       5.767  36.084  63.138  1.00  0.00     0.037 A 
HETATM   25  C   UNL     1       5.168  35.892  64.378  1.00  0.00     0.065 A 
HETATM   26  C   UNL     1       4.535  34.694  64.684  1.00  0.00     0.037 A 
HETATM   27  C   UNL     1       4.493  33.666  63.737  1.00  0.00     0.016 A 
BRANCH  25  28
HETATM   28  O   UNL     1       5.185  36.862  65.335  1.00  0.00    -0.361 OA
HETATM   29  H   UNL     1       5.751  36.567  66.066  1.00  0.00     0.217 HD
ENDBRANCH  25  28
ENDBRANCH  20  22
ENDBRANCH   2  19
TORSDOF 6
ENDMDL
MODEL 10
REMARK VINA RESULT:      -8.0      3.654      4.086
REMARK  6 active torsions:
REMARK  status: ('A' for Active; 'I' for Inactive)
REMARK    1  A    between atoms: C_2  and  C_3 
REMARK    2  A    between atoms: C_6  and  C_7 
REMARK    3  A    between atoms: C_11  and  C_12 
REMARK       I    between atoms: C_12  and  N_13 
REMARK    4  A    between atoms: N_13  and  N_14 
REMARK    5  A    between atoms: C_15  and  C_16 
REMARK    6  A    between atoms: C_19  and  O_20 
ROOT
HETATM    1  C   UNL     1       5.288  26.618  56.451  1.00  0.00     0.289 C 
HETATM    2  N   UNL     1       6.281  26.273  55.547  1.00  0.00    -0.241 N 
HETATM    3  O   UNL     1       4.783  25.843  57.260  1.00  0.00    -0.264 OA
HETATM    4  H   UNL     1       6.635  26.963  54.902  1.00  0.00     0.192 HD
ENDROOT
BRANCH   1   5
HETATM    5  C   UNL     1       4.852  27.990  56.359  1.00  0.00     0.121 A 
HETATM    6  N   UNL     1       4.014  28.408  55.364  1.00  0.00    -0.272 N 
HETATM    7  N   UNL     1       3.733  29.719  55.394  1.00  0.00    -0.174 NA
HETATM    8  H   UNL     1       3.617  27.834  54.625  1.00  0.00     0.189 HD
HETATM    9  C   UNL     1       4.379  30.180  56.476  1.00  0.00     0.089 A 
HETATM   10  C   UNL     1       5.095  29.125  57.108  1.00  0.00     0.071 A 
BRANCH   9  11
HETATM   11  C   UNL     1       4.325  31.590  56.873  1.00  0.00    -0.006 A 
HETATM   12  C   UNL     1       4.742  32.602  55.997  1.00  0.00     0.014 A 
HETATM   13  C   UNL     1       4.662  33.948  56.370  1.00  0.00     0.008 A 
HETATM   14  C   UNL     1       4.168  34.308  57.630  1.00  0.00    -0.059 A 
HETATM   15  C   UNL     1       3.757  33.300  58.509  1.00  0.00     0.008 A 
HETATM   16  C   UNL     1       3.840  31.956  58.136  1.00  0.00     0.014 A 
BRANCH  14  17
HETATM   17  C   UNL     1       4.055  35.760  58.018  1.00  0.00     0.034 C 
HETATM   18  C   UNL     1       2.782  36.037  58.804  1.00  0.00     0.010 C 
ENDBRANCH  14  17
ENDBRANCH   9  11
ENDBRANCH   1   5
BRANCH   2  19
HETATM   19  N   UNL     1       6.792  25.011  55.530  1.00  0.00    -0.176 NA
HETATM   20  C   UNL     1       6.774  24.327  54.422  1.00  0.00     0.061 C 
HETATM   21  C   UNL     1       6.154  24.834  53.134  1.00  0.00     0.073 C 
BRANCH  20  22
HETATM   22  C   UNL     1       7.396  22.962  54.425  1.00  0.00    -0.010 A 
HETATM   23  C   UNL     1       7.527  22.282  55.646  1.00  0.00     0.016 A 
HETATM   24  C   UNL     1       8.103  21.010  55.694  1.00  0.00     0.037 A 
HETATM   25  C   UNL     1       8.553  20.421  54.518  1.00  0.00     0.065 A 
HETATM   26  C   UNL     1       8.442  21.084  53.302  1.00  0.00     0.037 A 
HETATM   27  C   UNL     1       7.870  22.359  53.254  1.00  0.00     0.016 A 
BRANCH  25  28
HETATM   28  O   UNL     1       9.119  19.181  54.515  1.00  0.00    -0.361 OA
HETATM   29  H   UNL     1       9.709  19.112  53.746  1.00  0.00     0.217 HD
ENDBRANCH  25  28
ENDBRANCH  20  22
ENDBRANCH   2  19
TORSDOF 6
ENDMDL
