MODEL 1
REMARK VINA RESULT:      -9.1      0.000      0.000
REMARK  2 active torsions:
REMARK  status: ('A' for Active; 'I' for Inactive)
REMARK    1  A    between atoms: N_2  and  C_3 
REMARK       I    between atoms: N_4  and  C_5 
REMARK       I    between atoms: C_5  and  N_6 
REMARK    2  A    between atoms: C_9  and  C_10 
ROOT
HETATM    1  C   UNL     1       7.648  25.242  57.204  1.00  0.00     0.703 A 
HETATM    2  N   UNL     1       7.727  25.823  55.940  1.00  0.00    -0.141 N 
HETATM    3  C   UNL     1       7.683  27.192  55.677  1.00  0.00     0.188 C 
HETATM    4  N   UNL     1       7.049  27.959  56.600  1.00  0.00    -0.272 NA
HETATM    5  N   UNL     1       8.186  27.766  54.631  1.00  0.00    -0.273 NA
HETATM    6  H   UNL     1       7.949  28.760  54.672  1.00  0.00     0.189 HD
HETATM    7  C   UNL     1       7.972  24.980  54.736  1.00  0.00     0.179 A 
HETATM    8  C   UNL     1       8.222  23.502  55.012  1.00  0.00    -0.001 A 
HETATM    9  C   UNL     1       8.150  23.026  56.317  1.00  0.00     0.058 A 
HETATM   10  N   UNL     1       7.833  23.903  57.347  1.00  0.00    -0.190 N 
HETATM   11  C   UNL     1       8.513  22.604  53.965  1.00  0.00     0.035 A 
HETATM   12  C   UNL     1       8.706  21.250  54.229  1.00  0.00     0.034 A 
HETATM   13 CL   UNL     1       9.023  20.159  52.939  1.00  0.00    -0.084 Cl
HETATM   14  C   UNL     1       8.634  20.776  55.533  1.00  0.00     0.026 A 
HETATM   15  C   UNL     1       8.357  21.664  56.574  1.00  0.00     0.032 A 
HETATM   16  H   UNL     1       7.033  27.492  57.516  1.00  0.00     0.127 HD
HETATM   17  H   UNL     1       7.374  28.911  56.684  1.00  0.00     0.127 HD
HETATM   18  H   UNL     1       7.851  23.516  58.279  1.00  0.00     0.184 HD
ENDROOT
BRANCH   1  19
HETATM   19  N   UNL     1       7.436  25.952  58.282  1.00  0.00    -0.117 NA
HETATM   20  H   UNL     1       6.773  25.465  58.888  1.00  0.00     0.206 HD
ENDBRANCH   1  19
BRANCH   7  21
HETATM   21  C   UNL     1       6.837  25.137  53.710  1.00  0.00    -0.030 A 
HETATM   22  C   UNL     1       7.136  25.531  52.393  1.00  0.00     0.009 A 
HETATM   23  C   UNL     1       6.127  25.650  51.436  1.00  0.00     0.001 A 
HETATM   24  C   UNL     1       4.806  25.380  51.783  1.00  0.00     0.000 A 
HETATM   25  C   UNL     1       4.491  24.998  53.087  1.00  0.00     0.001 A 
HETATM   26  C   UNL     1       5.498  24.878  54.048  1.00  0.00     0.009 A 
ENDBRANCH   7  21
TORSDOF 2
ENDMDL
MODEL 2
REMARK VINA RESULT:      -8.5      2.742      4.590
REMARK  2 active torsions:
REMARK  status: ('A' for Active; 'I' for Inactive)
REMARK    1  A    between atoms: N_2  and  C_3 
REMARK       I    between atoms: N_4  and  C_5 
REMARK       I    between atoms: C_5  and  N_6 
REMARK    2  A    between atoms: C_9  and  C_10 
ROOT
HETATM    1  C   UNL     1       6.084  26.008  51.722  1.00  0.00     0.703 A 
HETATM    2  N   UNL     1       5.533  26.534  52.889  1.00  0.00    -0.141 N 
HETATM    3  C   UNL     1       4.588  27.558  52.944  1.00  0.00     0.188 C 
HETATM    4  N   UNL     1       4.565  28.411  51.888  1.00  0.00    -0.272 NA
HETATM    5  N   UNL     1       3.755  27.752  53.917  1.00  0.00    -0.273 NA
HETATM    6  H   UNL     1       3.230  28.607  53.718  1.00  0.00     0.189 HD
HETATM    7  C   UNL     1       5.865  25.941  54.215  1.00  0.00     0.179 A 
HETATM    8  C   UNL     1       6.741  24.694  54.173  1.00  0.00    -0.001 A 
HETATM    9  C   UNL     1       7.217  24.231  52.951  1.00  0.00     0.058 A 
HETATM   10  N   UNL     1       6.900  24.922  51.788  1.00  0.00    -0.190 N 
HETATM   11  C   UNL     1       7.090  24.008  55.354  1.00  0.00     0.035 A 
HETATM   12  C   UNL     1       7.920  22.890  55.303  1.00  0.00     0.034 A 
HETATM   13 CL   UNL     1       8.368  22.085  56.754  1.00  0.00    -0.084 Cl
HETATM   14  C   UNL     1       8.394  22.428  54.081  1.00  0.00     0.026 A 
HETATM   15  C   UNL     1       8.041  23.098  52.908  1.00  0.00     0.032 A 
HETATM   16  H   UNL     1       4.968  27.968  51.052  1.00  0.00     0.127 HD
HETATM   17  H   UNL     1       3.675  28.836  51.680  1.00  0.00     0.127 HD
HETATM   18  H   UNL     1       7.223  24.509  50.926  1.00  0.00     0.184 HD
ENDROOT
BRANCH   1  19
HETATM   19  N   UNL     1       5.813  26.503  50.542  1.00  0.00    -0.117 NA
HETATM   20  H   UNL     1       6.519  26.195  49.871  1.00  0.00     0.206 HD
ENDBRANCH   1  19
BRANCH   7  21
HETATM   21  C   UNL     1       6.490  26.990  55.150  1.00  0.00    -0.030 A 
HETATM   22  C   UNL     1       6.013  27.125  56.466  1.00  0.00     0.009 A 
HETATM   23  C   UNL     1       6.585  28.048  57.344  1.00  0.00     0.001 A 
HETATM   24  C   UNL     1       7.639  28.850  56.915  1.00  0.00     0.000 A 
HETATM   25  C   UNL     1       8.117  28.737  55.610  1.00  0.00     0.001 A 
HETATM   26  C   UNL     1       7.547  27.814  54.729  1.00  0.00     0.009 A 
ENDBRANCH   7  21
TORSDOF 2
ENDMDL
MODEL 3
REMARK VINA RESULT:      -8.5      2.587      4.596
REMARK  2 active torsions:
REMARK  status: ('A' for Active; 'I' for Inactive)
REMARK    1  A    between atoms: N_2  and  C_3 
REMARK       I    between atoms: N_4  and  C_5 
REMARK       I    between atoms: C_5  and  N_6 
REMARK    2  A    between atoms: C_9  and  C_10 
ROOT
HETATM    1  C   UNL     1       4.894  26.836  52.934  1.00  0.00     0.703 A 
HETATM    2  N   UNL     1       4.959  27.209  54.275  1.00  0.00    -0.141 N 
HETATM    3  C   UNL     1       4.209  28.224  54.868  1.00  0.00     0.188 C 
HETATM    4  N   UNL     1       3.773  29.208  54.040  1.00  0.00    -0.272 NA
HETATM    5  N   UNL     1       3.914  28.295  56.127  1.00  0.00    -0.273 NA
HETATM    6  H   UNL     1       3.414  29.173  56.286  1.00  0.00     0.189 HD
HETATM    7  C   UNL     1       5.809  26.444  55.231  1.00  0.00     0.179 A 
HETATM    8  C   UNL     1       6.489  25.207  54.656  1.00  0.00    -0.001 A 
HETATM    9  C   UNL     1       6.337  24.905  53.307  1.00  0.00     0.058 A 
HETATM   10  N   UNL     1       5.580  25.745  52.500  1.00  0.00    -0.190 N 
HETATM   11  C   UNL     1       7.284  24.369  55.465  1.00  0.00     0.035 A 
HETATM   12  C   UNL     1       7.927  23.261  54.918  1.00  0.00     0.034 A 
HETATM   13 CL   UNL     1       8.922  22.269  55.907  1.00  0.00    -0.084 Cl
HETATM   14  C   UNL     1       7.772  22.960  53.570  1.00  0.00     0.026 A 
HETATM   15  C   UNL     1       6.977  23.781  52.768  1.00  0.00     0.032 A 
HETATM   16  H   UNL     1       3.729  28.876  53.069  1.00  0.00     0.127 HD
HETATM   17  H   UNL     1       2.914  29.664  54.308  1.00  0.00     0.127 HD
HETATM   18  H   UNL     1       5.455  25.446  51.544  1.00  0.00     0.184 HD
ENDROOT
BRANCH   1  19
HETATM   19  N   UNL     1       4.158  27.484  52.069  1.00  0.00    -0.117 NA
HETATM   20  H   UNL     1       3.415  27.986  52.559  1.00  0.00     0.206 HD
ENDBRANCH   1  19
BRANCH   7  21
HETATM   21  C   UNL     1       6.855  27.357  55.895  1.00  0.00    -0.030 A 
HETATM   22  C   UNL     1       7.707  28.139  55.094  1.00  0.00     0.009 A 
HETATM   23  C   UNL     1       8.642  28.998  55.672  1.00  0.00     0.001 A 
HETATM   24  C   UNL     1       8.739  29.085  57.058  1.00  0.00     0.000 A 
HETATM   25  C   UNL     1       7.909  28.310  57.867  1.00  0.00     0.001 A 
HETATM   26  C   UNL     1       6.971  27.448  57.291  1.00  0.00     0.009 A 
ENDBRANCH   7  21
TORSDOF 2
ENDMDL
MODEL 4
REMARK VINA RESULT:      -8.5      2.584      4.746
REMARK  2 active torsions:
REMARK  status: ('A' for Active; 'I' for Inactive)
REMARK    1  A    between atoms: N_2  and  C_3 
REMARK       I    between atoms: N_4  and  C_5 
REMARK       I    between atoms: C_5  and  N_6 
REMARK    2  A    between atoms: C_9  and  C_10 
ROOT
HETATM    1  C   UNL     1       4.975  26.955  52.818  1.00  0.00     0.703 A 
HETATM    2  N   UNL     1       5.050  27.251  54.178  1.00  0.00    -0.141 N 
HETATM    3  C   UNL     1       4.254  28.180  54.846  1.00  0.00     0.188 C 
HETATM    4  N   UNL     1       3.739  29.182  54.090  1.00  0.00    -0.272 NA
HETATM    5  N   UNL     1       3.986  28.157  56.114  1.00  0.00    -0.273 NA
HETATM    6  H   UNL     1       3.438  28.991  56.336  1.00  0.00     0.189 HD
HETATM    7  C   UNL     1       5.968  26.484  55.067  1.00  0.00     0.179 A 
HETATM    8  C   UNL     1       6.708  25.329  54.404  1.00  0.00    -0.001 A 
HETATM    9  C   UNL     1       6.542  25.098  53.042  1.00  0.00     0.058 A 
HETATM   10  N   UNL     1       5.715  25.937  52.304  1.00  0.00    -0.190 N 
HETATM   11  C   UNL     1       7.571  24.495  55.144  1.00  0.00     0.035 A 
HETATM   12  C   UNL     1       8.267  23.464  54.516  1.00  0.00     0.034 A 
HETATM   13 CL   UNL     1       9.346  22.479  55.423  1.00  0.00    -0.084 Cl
HETATM   14  C   UNL     1       8.099  23.235  53.156  1.00  0.00     0.026 A 
HETATM   15  C   UNL     1       7.236  24.051  52.422  1.00  0.00     0.032 A 
HETATM   16  H   UNL     1       3.691  28.907  53.101  1.00  0.00     0.127 HD
HETATM   17  H   UNL     1       2.860  29.567  54.402  1.00  0.00     0.127 HD
HETATM   18  H   UNL     1       5.586  25.689  51.335  1.00  0.00     0.184 HD
ENDROOT
BRANCH   1  19
HETATM   19  N   UNL     1       4.180  27.606  52.010  1.00  0.00    -0.117 NA
HETATM   20  H   UNL     1       3.209  27.363  52.214  1.00  0.00     0.206 HD
ENDBRANCH   1  19
BRANCH   7  21
HETATM   21  C   UNL     1       6.972  27.419  55.764  1.00  0.00    -0.030 A 
HETATM   22  C   UNL     1       7.108  27.379  57.164  1.00  0.00     0.009 A 
HETATM   23  C   UNL     1       8.033  28.195  57.816  1.00  0.00     0.001 A 
HETATM   24  C   UNL     1       8.833  29.063  57.078  1.00  0.00     0.000 A 
HETATM   25  C   UNL     1       8.705  29.123  55.691  1.00  0.00     0.001 A 
HETATM   26  C   UNL     1       7.779  28.307  55.034  1.00  0.00     0.009 A 
ENDBRANCH   7  21
TORSDOF 2
ENDMDL
MODEL 5
REMARK VINA RESULT:      -7.7      2.999      5.430
REMARK  2 active torsions:
REMARK  status: ('A' for Active; 'I' for Inactive)
REMARK    1  A    between atoms: N_2  and  C_3 
REMARK       I    between atoms: N_4  and  C_5 
REMARK       I    between atoms: C_5  and  N_6 
REMARK    2  A    between atoms: C_9  and  C_10 
ROOT
HETATM    1  C   UNL     1       5.348  28.629  54.321  1.00  0.00     0.703 A 
HETATM    2  N   UNL     1       5.836  29.139  55.522  1.00  0.00    -0.141 N 
HETATM    3  C   UNL     1       5.556  30.404  56.036  1.00  0.00     0.188 C 
HETATM    4  N   UNL     1       5.213  31.356  55.130  1.00  0.00    -0.272 NA
HETATM    5  N   UNL     1       5.608  30.729  57.289  1.00  0.00    -0.273 NA
HETATM    6  H   UNL     1       5.417  31.731  57.364  1.00  0.00     0.189 HD
HETATM    7  C   UNL     1       6.656  28.283  56.427  1.00  0.00     0.179 A 
HETATM    8  C   UNL     1       6.815  26.833  55.989  1.00  0.00    -0.001 A 
HETATM    9  C   UNL     1       6.263  26.415  54.782  1.00  0.00     0.058 A 
HETATM   10  N   UNL     1       5.586  27.333  53.987  1.00  0.00    -0.190 N 
HETATM   11  C   UNL     1       7.527  25.907  56.778  1.00  0.00     0.035 A 
HETATM   12  C   UNL     1       7.694  24.592  56.347  1.00  0.00     0.034 A 
HETATM   13 CL   UNL     1       8.596  23.483  57.301  1.00  0.00    -0.084 Cl
HETATM   14  C   UNL     1       7.140  24.177  55.142  1.00  0.00     0.026 A 
HETATM   15  C   UNL     1       6.425  25.088  54.363  1.00  0.00     0.032 A 
HETATM   16  H   UNL     1       4.844  30.928  54.271  1.00  0.00     0.127 HD
HETATM   17  H   UNL     1       4.600  32.085  55.463  1.00  0.00     0.127 HD
HETATM   18  H   UNL     1       5.157  26.963  53.153  1.00  0.00     0.184 HD
ENDROOT
BRANCH   1  19
HETATM   19  N   UNL     1       4.625  29.351  53.504  1.00  0.00    -0.117 NA
HETATM   20  H   UNL     1       5.067  30.262  53.369  1.00  0.00     0.206 HD
ENDBRANCH   1  19
BRANCH   7  21
HETATM   21  C   UNL     1       8.037  28.910  56.680  1.00  0.00    -0.030 A 
HETATM   22  C   UNL     1       8.914  29.127  55.601  1.00  0.00     0.009 A 
HETATM   23  C   UNL     1      10.160  29.723  55.800  1.00  0.00     0.001 A 
HETATM   24  C   UNL     1      10.547  30.108  57.081  1.00  0.00     0.000 A 
HETATM   25  C   UNL     1       9.695  29.892  58.163  1.00  0.00     0.001 A 
HETATM   26  C   UNL     1       8.446  29.296  57.967  1.00  0.00     0.009 A 
ENDBRANCH   7  21
TORSDOF 2
ENDMDL
MODEL 6
REMARK VINA RESULT:      -7.7      4.089      6.066
REMARK  2 active torsions:
REMARK  status: ('A' for Active; 'I' for Inactive)
REMARK    1  A    between atoms: N_2  and  C_3 
REMARK       I    between atoms: N_4  and  C_5 
REMARK       I    between atoms: C_5  and  N_6 
REMARK    2  A    between atoms: C_9  and  C_10 
ROOT
HETATM    1  C   UNL     1       3.598  28.521  52.708  1.00  0.00     0.703 A 
HETATM    2  N   UNL     1       4.699  27.961  52.064  1.00  0.00    -0.141 N 
HETATM    3  C   UNL     1       4.753  27.610  50.716  1.00  0.00     0.188 C 
HETATM    4  N   UNL     1       3.564  27.333  50.121  1.00  0.00    -0.272 NA
HETATM    5  N   UNL     1       5.836  27.523  50.011  1.00  0.00    -0.273 NA
HETATM    6  H   UNL     1       5.581  27.186  49.080  1.00  0.00     0.189 HD
HETATM    7  C   UNL     1       5.988  27.782  52.791  1.00  0.00     0.179 A 
HETATM    8  C   UNL     1       6.021  28.338  54.210  1.00  0.00    -0.001 A 
HETATM    9  C   UNL     1       4.873  28.905  54.752  1.00  0.00     0.058 A 
HETATM   10  N   UNL     1       3.707  28.942  53.996  1.00  0.00    -0.190 N 
HETATM   11  C   UNL     1       7.193  28.275  54.990  1.00  0.00     0.035 A 
HETATM   12  C   UNL     1       7.199  28.757  56.297  1.00  0.00     0.034 A 
HETATM   13 CL   UNL     1       8.625  28.639  57.251  1.00  0.00    -0.084 Cl
HETATM   14  C   UNL     1       6.051  29.324  56.837  1.00  0.00     0.026 A 
HETATM   15  C   UNL     1       4.891  29.399  56.063  1.00  0.00     0.032 A 
HETATM   16  H   UNL     1       2.789  27.782  50.625  1.00  0.00     0.127 HD
HETATM   17  H   UNL     1       3.510  27.520  49.131  1.00  0.00     0.127 HD
HETATM   18  H   UNL     1       2.922  29.416  54.417  1.00  0.00     0.184 HD
ENDROOT
BRANCH   1  19
HETATM   19  N   UNL     1       2.453  28.695  52.100  1.00  0.00    -0.117 NA
HETATM   20  H   UNL     1       2.377  28.042  51.318  1.00  0.00     0.206 HD
ENDBRANCH   1  19
BRANCH   7  21
HETATM   21  C   UNL     1       6.419  26.305  52.796  1.00  0.00    -0.030 A 
HETATM   22  C   UNL     1       7.704  25.952  52.347  1.00  0.00     0.009 A 
HETATM   23  C   UNL     1       8.131  24.623  52.371  1.00  0.00     0.001 A 
HETATM   24  C   UNL     1       7.276  23.630  52.841  1.00  0.00     0.000 A 
HETATM   25  C   UNL     1       5.995  23.961  53.281  1.00  0.00     0.001 A 
HETATM   26  C   UNL     1       5.565  25.290  53.259  1.00  0.00     0.009 A 
ENDBRANCH   7  21
TORSDOF 2
ENDMDL
MODEL 7
REMARK VINA RESULT:      -7.6     11.686     14.541
REMARK  2 active torsions:
REMARK  status: ('A' for Active; 'I' for Inactive)
REMARK    1  A    between atoms: N_2  and  C_3 
REMARK       I    between atoms: N_4  and  C_5 
REMARK       I    between atoms: C_5  and  N_6 
REMARK    2  A    between atoms: C_9  and  C_10 
ROOT
HETATM    1  C   UNL     1       3.146  33.882  61.183  1.00  0.00     0.703 A 
HETATM    2  N   UNL     1       4.256  33.399  61.875  1.00  0.00    -0.141 N 
HETATM    3  C   UNL     1       4.555  32.054  62.081  1.00  0.00     0.188 C 
HETATM    4  N   UNL     1       3.504  31.194  62.053  1.00  0.00    -0.272 NA
HETATM    5  N   UNL     1       5.741  31.579  62.302  1.00  0.00    -0.273 NA
HETATM    6  H   UNL     1       5.651  30.576  62.479  1.00  0.00     0.189 HD
HETATM    7  C   UNL     1       5.296  34.339  62.381  1.00  0.00     0.179 A 
HETATM    8  C   UNL     1       5.098  35.801  62.000  1.00  0.00    -0.001 A 
HETATM    9  C   UNL     1       3.969  36.176  61.281  1.00  0.00     0.058 A 
HETATM   10  N   UNL     1       3.028  35.213  60.934  1.00  0.00    -0.190 N 
HETATM   11  C   UNL     1       6.034  36.786  62.377  1.00  0.00     0.035 A 
HETATM   12  C   UNL     1       5.823  38.124  62.050  1.00  0.00     0.034 A 
HETATM   13 CL   UNL     1       6.953  39.319  62.548  1.00  0.00    -0.084 Cl
HETATM   14  C   UNL     1       4.694  38.496  61.330  1.00  0.00     0.026 A 
HETATM   15  C   UNL     1       3.770  37.523  60.946  1.00  0.00     0.032 A 
HETATM   16  H   UNL     1       2.721  31.591  61.518  1.00  0.00     0.127 HD
HETATM   17  H   UNL     1       3.709  30.254  61.752  1.00  0.00     0.127 HD
HETATM   18  H   UNL     1       2.259  35.531  60.364  1.00  0.00     0.184 HD
ENDROOT
BRANCH   1  19
HETATM   19  N   UNL     1       2.216  33.086  60.723  1.00  0.00    -0.117 NA
HETATM   20  H   UNL     1       2.580  32.554  59.930  1.00  0.00     0.206 HD
ENDBRANCH   1  19
BRANCH   7  21
HETATM   21  C   UNL     1       5.461  34.212  63.906  1.00  0.00    -0.030 A 
HETATM   22  C   UNL     1       6.736  33.978  64.453  1.00  0.00     0.009 A 
HETATM   23  C   UNL     1       6.916  33.890  65.834  1.00  0.00     0.001 A 
HETATM   24  C   UNL     1       5.824  34.031  66.686  1.00  0.00     0.000 A 
HETATM   25  C   UNL     1       4.552  34.253  66.160  1.00  0.00     0.001 A 
HETATM   26  C   UNL     1       4.367  34.342  64.778  1.00  0.00     0.009 A 
ENDBRANCH   7  21
TORSDOF 2
ENDMDL
MODEL 8
REMARK VINA RESULT:      -7.3      3.569      5.694
REMARK  2 active torsions:
REMARK  status: ('A' for Active; 'I' for Inactive)
REMARK    1  A    between atoms: N_2  and  C_3 
REMARK       I    between atoms: N_4  and  C_5 
REMARK       I    between atoms: C_5  and  N_6 
REMARK    2  A    between atoms: C_9  and  C_10 
ROOT
HETATM    1  C   UNL     1       4.605  28.986  55.411  1.00  0.00     0.703 A 
HETATM    2  N   UNL     1       5.247  28.357  54.346  1.00  0.00    -0.141 N 
HETATM    3  C   UNL     1       4.628  27.916  53.177  1.00  0.00     0.188 C 
HETATM    4  N   UNL     1       3.304  27.631  53.271  1.00  0.00    -0.272 NA
HETATM    5  N   UNL     1       5.219  27.756  52.036  1.00  0.00    -0.273 NA
HETATM    6  H   UNL     1       4.539  27.365  51.380  1.00  0.00     0.189 HD
HETATM    7  C   UNL     1       6.729  28.194  54.349  1.00  0.00     0.179 A 
HETATM    8  C   UNL     1       7.456  28.841  55.521  1.00  0.00    -0.001 A 
HETATM    9  C   UNL     1       6.722  29.472  56.521  1.00  0.00     0.058 A 
HETATM   10  N   UNL     1       5.335  29.487  56.443  1.00  0.00    -0.190 N 
HETATM   11  C   UNL     1       8.861  28.801  55.619  1.00  0.00     0.035 A 
HETATM   12  C   UNL     1       9.510  29.367  56.714  1.00  0.00     0.034 A 
HETATM   13 CL   UNL     1      11.222  29.278  56.840  1.00  0.00    -0.084 Cl
HETATM   14  C   UNL     1       8.775  29.998  57.711  1.00  0.00     0.026 A 
HETATM   15  C   UNL     1       7.384  30.050  57.612  1.00  0.00     0.032 A 
HETATM   16  H   UNL     1       2.877  28.131  54.061  1.00  0.00     0.127 HD
HETATM   17  H   UNL     1       2.763  27.754  52.429  1.00  0.00     0.127 HD
HETATM   18  H   UNL     1       4.857  30.008  57.163  1.00  0.00     0.184 HD
ENDROOT
BRANCH   1  19
HETATM   19  N   UNL     1       3.307  29.147  55.441  1.00  0.00    -0.117 NA
HETATM   20  H   UNL     1       2.995  29.582  54.571  1.00  0.00     0.206 HD
ENDBRANCH   1  19
BRANCH   7  21
HETATM   21  C   UNL     1       7.121  26.710  54.242  1.00  0.00    -0.030 A 
HETATM   22  C   UNL     1       7.727  26.232  53.066  1.00  0.00     0.009 A 
HETATM   23  C   UNL     1       8.122  24.898  52.956  1.00  0.00     0.001 A 
HETATM   24  C   UNL     1       7.913  24.024  54.020  1.00  0.00     0.000 A 
HETATM   25  C   UNL     1       7.305  24.479  55.189  1.00  0.00     0.001 A 
HETATM   26  C   UNL     1       6.909  25.814  55.302  1.00  0.00     0.009 A 
ENDBRANCH   7  21
TORSDOF 2
ENDMDL
MODEL 9
REMARK VINA RESULT:      -7.3      9.871     12.241
REMARK  2 active torsions:
REMARK  status: ('A' for Active; 'I' for Inactive)
REMARK    1  A    between atoms: N_2  and  C_3 
REMARK       I    between atoms: N_4  and  C_5 
REMARK       I    between atoms: C_5  and  N_6 
REMARK    2  A    between atoms: C_9  and  C_10 
ROOT
HETATM    1  C   UNL     1       7.361  32.451  60.465  1.00  0.00     0.703 A 
HETATM    2  N   UNL     1       5.979  32.399  60.295  1.00  0.00    -0.141 N 
HETATM    3  C   UNL     1       5.323  31.989  59.135  1.00  0.00     0.188 C 
HETATM    4  N   UNL     1       6.018  32.118  57.976  1.00  0.00    -0.272 NA
HETATM    5  N   UNL     1       4.120  31.512  59.089  1.00  0.00    -0.273 NA
HETATM    6  H   UNL     1       3.879  31.358  58.107  1.00  0.00     0.189 HD
HETATM    7  C   UNL     1       5.067  32.705  61.434  1.00  0.00     0.179 A 
HETATM    8  C   UNL     1       5.753  32.965  62.770  1.00  0.00    -0.001 A 
HETATM    9  C   UNL     1       7.142  32.966  62.839  1.00  0.00     0.058 A 
HETATM   10  N   UNL     1       7.884  32.745  61.685  1.00  0.00    -0.190 N 
HETATM   11  C   UNL     1       5.005  33.219  63.937  1.00  0.00     0.035 A 
HETATM   12  C   UNL     1       5.646  33.489  65.144  1.00  0.00     0.034 A 
HETATM   13 CL   UNL     1       4.721  33.835  66.551  1.00  0.00    -0.084 Cl
HETATM   14  C   UNL     1       7.034  33.488  65.211  1.00  0.00     0.026 A 
HETATM   15  C   UNL     1       7.779  33.225  64.060  1.00  0.00     0.032 A 
HETATM   16  H   UNL     1       7.030  32.135  58.156  1.00  0.00     0.127 HD
HETATM   17  H   UNL     1       5.790  31.459  57.247  1.00  0.00     0.127 HD
HETATM   18  H   UNL     1       8.885  32.699  61.804  1.00  0.00     0.184 HD
ENDROOT
BRANCH   1  19
HETATM   19  N   UNL     1       8.190  32.189  59.488  1.00  0.00    -0.117 NA
HETATM   20  H   UNL     1       9.139  32.102  59.857  1.00  0.00     0.206 HD
ENDBRANCH   1  19
BRANCH   7  21
HETATM   21  C   UNL     1       4.126  33.872  61.092  1.00  0.00    -0.030 A 
HETATM   22  C   UNL     1       2.733  33.692  61.171  1.00  0.00     0.009 A 
HETATM   23  C   UNL     1       1.858  34.744  60.896  1.00  0.00     0.001 A 
HETATM   24  C   UNL     1       2.365  35.990  60.535  1.00  0.00     0.000 A 
HETATM   25  C   UNL     1       3.743  36.183  60.441  1.00  0.00     0.001 A 
HETATM   26  C   UNL     1       4.621  35.131  60.716  1.00  0.00     0.009 A 
ENDBRANCH   7  21
TORSDOF 2
ENDMDL
MODEL 10
REMARK VINA RESULT:      -7.3      5.255      7.264
REMARK  2 active torsions:
REMARK  status: ('A' for Active; 'I' for Inactive)
REMARK    1  A    between atoms: N_2  and  C_3 
REMARK       I    between atoms: N_4  and  C_5 
REMARK       I    between atoms: C_5  and  N_6 
REMARK    2  A    between atoms: C_9  and  C_10 
ROOT
HETATM    1  C   UNL     1       7.331  28.142  54.672  1.00  0.00     0.703 A 
HETATM    2  N   UNL     1       6.289  28.278  55.587  1.00  0.00    -0.141 N 
HETATM    3  C   UNL     1       5.050  27.644  55.498  1.00  0.00     0.188 C 
HETATM    4  N   UNL     1       4.649  27.284  54.252  1.00  0.00    -0.272 NA
HETATM    5  N   UNL     1       4.269  27.390  56.500  1.00  0.00    -0.273 NA
HETATM    6  H   UNL     1       3.407  26.981  56.132  1.00  0.00     0.189 HD
HETATM    7  C   UNL     1       6.477  29.074  56.832  1.00  0.00     0.179 A 
HETATM    8  C   UNL     1       7.883  29.617  57.056  1.00  0.00    -0.001 A 
HETATM    9  C   UNL     1       8.863  29.402  56.093  1.00  0.00     0.058 A 
HETATM   10  N   UNL     1       8.540  28.708  54.933  1.00  0.00    -0.190 N 
HETATM   11  C   UNL     1       8.207  30.347  58.217  1.00  0.00     0.035 A 
HETATM   12  C   UNL     1       9.488  30.866  58.392  1.00  0.00     0.034 A 
HETATM   13 CL   UNL     1       9.858  31.787  59.795  1.00  0.00    -0.084 Cl
HETATM   14  C   UNL     1      10.466  30.649  57.429  1.00  0.00     0.026 A 
HETATM   15  C   UNL     1      10.152  29.917  56.283  1.00  0.00     0.032 A 
HETATM   16  H   UNL     1       5.456  27.183  53.623  1.00  0.00     0.127 HD
HETATM   17  H   UNL     1       4.043  26.480  54.197  1.00  0.00     0.127 HD
HETATM   18  H   UNL     1       9.302  28.531  54.296  1.00  0.00     0.184 HD
ENDROOT
BRANCH   1  19
HETATM   19  N   UNL     1       7.201  27.450  53.570  1.00  0.00    -0.117 NA
HETATM   20  H   UNL     1       6.839  26.520  53.790  1.00  0.00     0.206 HD
ENDBRANCH   1  19
BRANCH   7  21
HETATM   21  C   UNL     1       5.453  30.219  56.916  1.00  0.00    -0.030 A 
HETATM   22  C   UNL     1       5.327  31.123  55.844  1.00  0.00     0.009 A 
HETATM   23  C   UNL     1       4.384  32.151  55.883  1.00  0.00     0.001 A 
HETATM   24  C   UNL     1       3.557  32.291  56.994  1.00  0.00     0.000 A 
HETATM   25  C   UNL     1       3.675  31.411  58.069  1.00  0.00     0.001 A 
HETATM   26  C   UNL     1       4.618  30.380  58.034  1.00  0.00     0.009 A 
ENDBRANCH   7  21
TORSDOF 2
ENDMDL
