MODEL 1
REMARK VINA RESULT:      -9.8      0.000      0.000
REMARK  4 active torsions:
REMARK  status: ('A' for Active; 'I' for Inactive)
REMARK    1  A    between atoms: C_4  and  C_5 
REMARK    2  A    between atoms: C_5  and  C_6 
REMARK    3  A    between atoms: C_7  and  N_8 
REMARK       I    between atoms: N_8  and  C_9 
REMARK    4  A    between atoms: C_9  and  C_10 
ROOT
HETATM    1  N   UNL     1       5.348  24.707  55.537  1.00  0.00    -0.321 N 
HETATM    2  C   UNL     1       5.124  25.577  56.584  1.00  0.00     0.277 C 
HETATM    3  O   UNL     1       4.705  25.180  57.668  1.00  0.00    -0.266 OA
HETATM    4  H   UNL     1       4.803  23.859  55.630  1.00  0.00     0.169 HD
ENDROOT
BRANCH   1   5
HETATM    5  C   UNL     1       5.763  25.063  54.248  1.00  0.00     0.041 A 
HETATM    6  C   UNL     1       7.110  24.959  53.856  1.00  0.00    -0.027 A 
HETATM    7  C   UNL     1       7.448  25.300  52.534  1.00  0.00     0.010 A 
HETATM    8  C   UNL     1       6.469  25.695  51.620  1.00  0.00     0.001 A 
HETATM    9  C   UNL     1       5.134  25.735  52.008  1.00  0.00     0.002 A 
HETATM   10  C   UNL     1       4.778  25.404  53.315  1.00  0.00     0.030 A 
BRANCH   6  11
HETATM   11  C   UNL     1       8.190  24.378  54.752  1.00  0.00     0.079 C 
BRANCH  11  12
HETATM   12  C   UNL     1       8.245  22.865  54.754  1.00  0.00    -0.054 A 
HETATM   13  C   UNL     1       8.269  22.142  53.553  1.00  0.00     0.007 A 
HETATM   14  C   UNL     1       8.331  20.748  53.566  1.00  0.00     0.001 A 
HETATM   15  C   UNL     1       8.367  20.060  54.778  1.00  0.00     0.000 A 
HETATM   16  C   UNL     1       8.339  20.766  55.979  1.00  0.00     0.001 A 
HETATM   17  C   UNL     1       8.279  22.160  55.968  1.00  0.00     0.007 A 
ENDBRANCH  11  12
ENDBRANCH   6  11
ENDBRANCH   1   5
BRANCH   2  18
HETATM   18  C   UNL     1       5.249  27.078  56.364  1.00  0.00     0.156 A 
HETATM   19  N   UNL     1       4.203  27.727  55.941  1.00  0.00    -0.166 NA
HETATM   20  N   UNL     1       4.316  29.068  55.733  1.00  0.00    -0.242 N 
HETATM   21  C   UNL     1       5.455  29.820  55.898  1.00  0.00     0.272 A 
HETATM   22  H   UNL     1       3.480  29.553  55.421  1.00  0.00     0.192 HD
HETATM   23  O   UNL     1       5.482  31.027  55.688  1.00  0.00    -0.266 OA
HETATM   24  C   UNL     1       6.654  29.088  56.340  1.00  0.00     0.046 A 
HETATM   25  C   UNL     1       6.563  27.721  56.593  1.00  0.00     0.016 A 
HETATM   26  C   UNL     1       7.872  29.761  56.491  1.00  0.00     0.018 A 
HETATM   27  C   UNL     1       7.701  27.020  57.009  1.00  0.00     0.015 A 
HETATM   28  C   UNL     1       8.920  27.691  57.157  1.00  0.00     0.001 A 
HETATM   29  C   UNL     1       9.006  29.059  56.896  1.00  0.00     0.001 A 
ENDBRANCH   2  18
TORSDOF 4
ENDMDL
MODEL 2
REMARK VINA RESULT:      -9.2      1.437      2.204
REMARK  4 active torsions:
REMARK  status: ('A' for Active; 'I' for Inactive)
REMARK    1  A    between atoms: C_4  and  C_5 
REMARK    2  A    between atoms: C_5  and  C_6 
REMARK    3  A    between atoms: C_7  and  N_8 
REMARK       I    between atoms: N_8  and  C_9 
REMARK    4  A    between atoms: C_9  and  C_10 
ROOT
HETATM    1  N   UNL     1       5.164  24.916  55.564  1.00  0.00    -0.321 N 
HETATM    2  C   UNL     1       5.320  25.554  56.777  1.00  0.00     0.277 C 
HETATM    3  O   UNL     1       4.674  25.218  57.766  1.00  0.00    -0.266 OA
HETATM    4  H   UNL     1       4.262  24.460  55.493  1.00  0.00     0.169 HD
ENDROOT
BRANCH   1   5
HETATM    5  C   UNL     1       5.802  25.261  54.366  1.00  0.00     0.041 A 
HETATM    6  C   UNL     1       7.161  24.968  54.148  1.00  0.00    -0.027 A 
HETATM    7  C   UNL     1       7.726  25.311  52.907  1.00  0.00     0.010 A 
HETATM    8  C   UNL     1       6.953  25.892  51.900  1.00  0.00     0.001 A 
HETATM    9  C   UNL     1       5.597  26.120  52.110  1.00  0.00     0.002 A 
HETATM   10  C   UNL     1       5.017  25.790  53.336  1.00  0.00     0.030 A 
BRANCH   6  11
HETATM   11  C   UNL     1       8.008  24.189  55.139  1.00  0.00     0.079 C 
BRANCH  11  12
HETATM   12  C   UNL     1       8.144  22.716  54.814  1.00  0.00    -0.054 A 
HETATM   13  C   UNL     1       8.407  22.288  53.505  1.00  0.00     0.007 A 
HETATM   14  C   UNL     1       8.542  20.929  53.218  1.00  0.00     0.001 A 
HETATM   15  C   UNL     1       8.413  19.983  54.234  1.00  0.00     0.000 A 
HETATM   16  C   UNL     1       8.147  20.395  55.537  1.00  0.00     0.001 A 
HETATM   17  C   UNL     1       8.014  21.753  55.827  1.00  0.00     0.007 A 
ENDBRANCH  11  12
ENDBRANCH   6  11
ENDBRANCH   1   5
BRANCH   2  18
HETATM   18  C   UNL     1       6.195  26.797  56.874  1.00  0.00     0.156 A 
HETATM   19  N   UNL     1       7.399  26.665  57.349  1.00  0.00    -0.166 NA
HETATM   20  N   UNL     1       8.180  27.777  57.447  1.00  0.00    -0.242 N 
HETATM   21  C   UNL     1       7.808  29.059  57.116  1.00  0.00     0.272 A 
HETATM   22  H   UNL     1       9.121  27.644  57.803  1.00  0.00     0.192 HD
HETATM   23  O   UNL     1       8.566  30.014  57.234  1.00  0.00    -0.266 OA
HETATM   24  C   UNL     1       6.434  29.224  56.614  1.00  0.00     0.046 A 
HETATM   25  C   UNL     1       5.621  28.100  56.471  1.00  0.00     0.016 A 
HETATM   26  C   UNL     1       5.950  30.498  56.295  1.00  0.00     0.018 A 
HETATM   27  C   UNL     1       4.313  28.253  55.997  1.00  0.00     0.015 A 
HETATM   28  C   UNL     1       3.827  29.527  55.682  1.00  0.00     0.001 A 
HETATM   29  C   UNL     1       4.644  30.647  55.833  1.00  0.00     0.001 A 
ENDBRANCH   2  18
TORSDOF 4
ENDMDL
MODEL 3
REMARK VINA RESULT:      -8.7      2.851      7.419
REMARK  4 active torsions:
REMARK  status: ('A' for Active; 'I' for Inactive)
REMARK    1  A    between atoms: C_4  and  C_5 
REMARK    2  A    between atoms: C_5  and  C_6 
REMARK    3  A    between atoms: C_7  and  N_8 
REMARK       I    between atoms: N_8  and  C_9 
REMARK    4  A    between atoms: C_9  and  C_10 
ROOT
HETATM    1  N   UNL     1       6.404  29.186  55.845  1.00  0.00    -0.321 N 
HETATM    2  C   UNL     1       5.773  27.959  55.836  1.00  0.00     0.277 C 
HETATM    3  O   UNL     1       4.564  27.862  55.645  1.00  0.00    -0.266 OA
HETATM    4  H   UNL     1       5.760  29.939  56.056  1.00  0.00     0.169 HD
ENDROOT
BRANCH   1   5
HETATM    5  C   UNL     1       7.760  29.411  56.115  1.00  0.00     0.041 A 
HETATM    6  C   UNL     1       8.191  29.854  57.379  1.00  0.00    -0.027 A 
HETATM    7  C   UNL     1       9.572  30.023  57.590  1.00  0.00     0.010 A 
HETATM    8  C   UNL     1      10.495  29.724  56.586  1.00  0.00     0.001 A 
HETATM    9  C   UNL     1      10.055  29.230  55.363  1.00  0.00     0.002 A 
HETATM   10  C   UNL     1       8.690  29.058  55.132  1.00  0.00     0.030 A 
BRANCH   6  11
HETATM   11  C   UNL     1       7.252  30.036  58.558  1.00  0.00     0.079 C 
BRANCH  11  12
HETATM   12  C   UNL     1       7.849  30.815  59.711  1.00  0.00    -0.054 A 
HETATM   13  C   UNL     1       7.425  32.120  59.996  1.00  0.00     0.007 A 
HETATM   14  C   UNL     1       7.974  32.826  61.068  1.00  0.00     0.001 A 
HETATM   15  C   UNL     1       8.953  32.236  61.866  1.00  0.00     0.000 A 
HETATM   16  C   UNL     1       9.386  30.941  61.591  1.00  0.00     0.001 A 
HETATM   17  C   UNL     1       8.837  30.233  60.521  1.00  0.00     0.007 A 
ENDBRANCH  11  12
ENDBRANCH   6  11
ENDBRANCH   1   5
BRANCH   2  18
HETATM   18  C   UNL     1       6.547  26.705  56.218  1.00  0.00     0.156 A 
HETATM   19  N   UNL     1       6.805  26.501  57.477  1.00  0.00    -0.166 NA
HETATM   20  N   UNL     1       7.507  25.385  57.819  1.00  0.00    -0.242 N 
HETATM   21  C   UNL     1       8.010  24.446  56.950  1.00  0.00     0.272 A 
HETATM   22  H   UNL     1       7.678  25.240  58.809  1.00  0.00     0.192 HD
HETATM   23  O   UNL     1       8.636  23.465  57.332  1.00  0.00    -0.266 OA
HETATM   24  C   UNL     1       7.756  24.688  55.520  1.00  0.00     0.046 A 
HETATM   25  C   UNL     1       7.013  25.804  55.139  1.00  0.00     0.016 A 
HETATM   26  C   UNL     1       8.269  23.811  54.556  1.00  0.00     0.018 A 
HETATM   27  C   UNL     1       6.772  26.040  53.780  1.00  0.00     0.015 A 
HETATM   28  C   UNL     1       7.287  25.166  52.817  1.00  0.00     0.001 A 
HETATM   29  C   UNL     1       8.035  24.055  53.204  1.00  0.00     0.001 A 
ENDBRANCH   2  18
TORSDOF 4
ENDMDL
MODEL 4
REMARK VINA RESULT:      -8.6      2.198      6.864
REMARK  4 active torsions:
REMARK  status: ('A' for Active; 'I' for Inactive)
REMARK    1  A    between atoms: C_4  and  C_5 
REMARK    2  A    between atoms: C_5  and  C_6 
REMARK    3  A    between atoms: C_7  and  N_8 
REMARK       I    between atoms: N_8  and  C_9 
REMARK    4  A    between atoms: C_9  and  C_10 
ROOT
HETATM    1  N   UNL     1       5.759  26.955  57.107  1.00  0.00    -0.321 N 
HETATM    2  C   UNL     1       5.584  25.592  56.988  1.00  0.00     0.277 C 
HETATM    3  O   UNL     1       4.579  25.035  57.421  1.00  0.00    -0.266 OA
HETATM    4  H   UNL     1       5.213  27.339  57.869  1.00  0.00     0.169 HD
ENDROOT
BRANCH   1   5
HETATM    5  C   UNL     1       6.891  27.676  56.706  1.00  0.00     0.041 A 
HETATM    6  C   UNL     1       6.996  28.211  55.408  1.00  0.00    -0.027 A 
HETATM    7  C   UNL     1       8.145  28.956  55.087  1.00  0.00     0.010 A 
HETATM    8  C   UNL     1       9.140  29.192  56.038  1.00  0.00     0.001 A 
HETATM    9  C   UNL     1       8.991  28.707  57.333  1.00  0.00     0.002 A 
HETATM   10  C   UNL     1       7.860  27.963  57.672  1.00  0.00     0.030 A 
BRANCH   6  11
HETATM   11  C   UNL     1       5.877  28.129  54.386  1.00  0.00     0.079 C 
BRANCH  11  12
HETATM   12  C   UNL     1       4.928  29.309  54.411  1.00  0.00    -0.054 A 
HETATM   13  C   UNL     1       4.667  29.999  55.603  1.00  0.00     0.007 A 
HETATM   14  C   UNL     1       3.799  31.092  55.613  1.00  0.00     0.001 A 
HETATM   15  C   UNL     1       3.181  31.507  54.435  1.00  0.00     0.000 A 
HETATM   16  C   UNL     1       3.428  30.827  53.244  1.00  0.00     0.001 A 
HETATM   17  C   UNL     1       4.297  29.735  53.231  1.00  0.00     0.007 A 
ENDBRANCH  11  12
ENDBRANCH   6  11
ENDBRANCH   1   5
BRANCH   2  18
HETATM   18  C   UNL     1       6.713  24.726  56.445  1.00  0.00     0.156 A 
HETATM   19  N   UNL     1       7.623  24.311  57.278  1.00  0.00    -0.166 NA
HETATM   20  N   UNL     1       8.640  23.545  56.793  1.00  0.00    -0.242 N 
HETATM   21  C   UNL     1       8.826  23.183  55.480  1.00  0.00     0.272 A 
HETATM   22  H   UNL     1       9.326  23.219  57.466  1.00  0.00     0.192 HD
HETATM   23  O   UNL     1       9.769  22.492  55.116  1.00  0.00    -0.266 OA
HETATM   24  C   UNL     1       7.822  23.680  54.524  1.00  0.00     0.046 A 
HETATM   25  C   UNL     1       6.751  24.439  54.994  1.00  0.00     0.016 A 
HETATM   26  C   UNL     1       7.953  23.402  53.158  1.00  0.00     0.018 A 
HETATM   27  C   UNL     1       5.797  24.917  54.088  1.00  0.00     0.015 A 
HETATM   28  C   UNL     1       5.929  24.642  52.722  1.00  0.00     0.001 A 
HETATM   29  C   UNL     1       7.006  23.888  52.259  1.00  0.00     0.001 A 
ENDBRANCH   2  18
TORSDOF 4
ENDMDL
MODEL 5
REMARK VINA RESULT:      -8.3      5.705      8.115
REMARK  4 active torsions:
REMARK  status: ('A' for Active; 'I' for Inactive)
REMARK    1  A    between atoms: C_4  and  C_5 
REMARK    2  A    between atoms: C_5  and  C_6 
REMARK    3  A    between atoms: C_7  and  N_8 
REMARK       I    between atoms: N_8  and  C_9 
REMARK    4  A    between atoms: C_9  and  C_10 
ROOT
HETATM    1  N   UNL     1       5.823  27.782  49.031  1.00  0.00    -0.321 N 
HETATM    2  C   UNL     1       5.217  27.352  47.868  1.00  0.00     0.277 C 
HETATM    3  O   UNL     1       5.877  27.019  46.887  1.00  0.00    -0.266 OA
HETATM    4  H   UNL     1       6.756  28.136  48.859  1.00  0.00     0.169 HD
ENDROOT
BRANCH   1   5
HETATM    5  C   UNL     1       5.165  28.243  50.178  1.00  0.00     0.041 A 
HETATM    6  C   UNL     1       4.668  27.350  51.145  1.00  0.00    -0.027 A 
HETATM    7  C   UNL     1       4.050  27.886  52.290  1.00  0.00     0.010 A 
HETATM    8  C   UNL     1       3.966  29.266  52.484  1.00  0.00     0.001 A 
HETATM    9  C   UNL     1       4.517  30.133  51.546  1.00  0.00     0.002 A 
HETATM   10  C   UNL     1       5.130  29.623  50.402  1.00  0.00     0.030 A 
BRANCH   6  11
HETATM   11  C   UNL     1       4.877  25.848  51.071  1.00  0.00     0.079 C 
BRANCH  11  12
HETATM   12  C   UNL     1       5.852  25.308  52.096  1.00  0.00    -0.054 A 
HETATM   13  C   UNL     1       5.407  24.854  53.345  1.00  0.00     0.007 A 
HETATM   14  C   UNL     1       6.313  24.347  54.279  1.00  0.00     0.001 A 
HETATM   15  C   UNL     1       7.672  24.290  53.975  1.00  0.00     0.000 A 
HETATM   16  C   UNL     1       8.128  24.742  52.739  1.00  0.00     0.001 A 
HETATM   17  C   UNL     1       7.224  25.247  51.804  1.00  0.00     0.007 A 
ENDBRANCH  11  12
ENDBRANCH   6  11
ENDBRANCH   1   5
BRANCH   2  18
HETATM   18  C   UNL     1       3.703  27.429  47.728  1.00  0.00     0.156 A 
HETATM   19  N   UNL     1       3.004  26.370  48.021  1.00  0.00    -0.166 NA
HETATM   20  N   UNL     1       1.650  26.433  47.886  1.00  0.00    -0.242 N 
HETATM   21  C   UNL     1       0.931  27.513  47.433  1.00  0.00     0.272 A 
HETATM   22  H   UNL     1       1.128  25.600  48.140  1.00  0.00     0.192 HD
HETATM   23  O   UNL     1      -0.290  27.495  47.336  1.00  0.00    -0.266 OA
HETATM   24  C   UNL     1       1.715  28.702  47.062  1.00  0.00     0.046 A 
HETATM   25  C   UNL     1       3.100  28.681  47.220  1.00  0.00     0.016 A 
HETATM   26  C   UNL     1       1.075  29.835  46.546  1.00  0.00     0.018 A 
HETATM   27  C   UNL     1       3.851  29.809  46.864  1.00  0.00     0.015 A 
HETATM   28  C   UNL     1       3.211  30.940  46.346  1.00  0.00     0.001 A 
HETATM   29  C   UNL     1       1.826  30.952  46.185  1.00  0.00     0.001 A 
ENDBRANCH   2  18
TORSDOF 4
ENDMDL
MODEL 6
REMARK VINA RESULT:      -8.3      2.325      4.186
REMARK  4 active torsions:
REMARK  status: ('A' for Active; 'I' for Inactive)
REMARK    1  A    between atoms: C_4  and  C_5 
REMARK    2  A    between atoms: C_5  and  C_6 
REMARK    3  A    between atoms: C_7  and  N_8 
REMARK       I    between atoms: N_8  and  C_9 
REMARK    4  A    between atoms: C_9  and  C_10 
ROOT
HETATM    1  N   UNL     1       6.155  26.995  53.992  1.00  0.00    -0.321 N 
HETATM    2  C   UNL     1       4.887  27.502  53.796  1.00  0.00     0.277 C 
HETATM    3  O   UNL     1       4.223  27.202  52.808  1.00  0.00    -0.266 OA
HETATM    4  H   UNL     1       6.581  26.702  53.121  1.00  0.00     0.169 HD
ENDROOT
BRANCH   1   5
HETATM    5  C   UNL     1       7.017  27.321  55.047  1.00  0.00     0.041 A 
HETATM    6  C   UNL     1       7.245  26.427  56.109  1.00  0.00    -0.027 A 
HETATM    7  C   UNL     1       8.151  26.807  57.115  1.00  0.00     0.010 A 
HETATM    8  C   UNL     1       8.837  28.021  57.046  1.00  0.00     0.001 A 
HETATM    9  C   UNL     1       8.644  28.866  55.958  1.00  0.00     0.002 A 
HETATM   10  C   UNL     1       7.747  28.510  54.951  1.00  0.00     0.030 A 
BRANCH   6  11
HETATM   11  C   UNL     1       6.658  25.027  56.154  1.00  0.00     0.079 C 
BRANCH  11  12
HETATM   12  C   UNL     1       7.419  24.011  55.329  1.00  0.00    -0.054 A 
HETATM   13  C   UNL     1       8.551  23.366  55.845  1.00  0.00     0.007 A 
HETATM   14  C   UNL     1       9.239  22.422  55.080  1.00  0.00     0.001 A 
HETATM   15  C   UNL     1       8.804  22.113  53.792  1.00  0.00     0.000 A 
HETATM   16  C   UNL     1       7.683  22.750  53.266  1.00  0.00     0.001 A 
HETATM   17  C   UNL     1       6.993  23.693  54.030  1.00  0.00     0.007 A 
ENDBRANCH  11  12
ENDBRANCH   6  11
ENDBRANCH   1   5
BRANCH   2  18
HETATM   18  C   UNL     1       4.344  28.571  54.735  1.00  0.00     0.156 A 
HETATM   19  N   UNL     1       4.107  28.240  55.971  1.00  0.00    -0.166 NA
HETATM   20  N   UNL     1       3.610  29.192  56.810  1.00  0.00    -0.242 N 
HETATM   21  C   UNL     1       3.298  30.487  56.470  1.00  0.00     0.272 A 
HETATM   22  H   UNL     1       3.453  28.913  57.773  1.00  0.00     0.192 HD
HETATM   23  O   UNL     1       2.851  31.289  57.282  1.00  0.00    -0.266 OA
HETATM   24  C   UNL     1       3.527  30.860  55.065  1.00  0.00     0.046 A 
HETATM   25  C   UNL     1       4.064  29.918  54.189  1.00  0.00     0.016 A 
HETATM   26  C   UNL     1       3.194  32.143  54.615  1.00  0.00     0.018 A 
HETATM   27  C   UNL     1       4.280  30.267  52.850  1.00  0.00     0.015 A 
HETATM   28  C   UNL     1       3.945  31.549  52.399  1.00  0.00     0.001 A 
HETATM   29  C   UNL     1       3.402  32.484  53.279  1.00  0.00     0.001 A 
ENDBRANCH   2  18
TORSDOF 4
ENDMDL
MODEL 7
REMARK VINA RESULT:      -8.2      1.836      2.572
REMARK  4 active torsions:
REMARK  status: ('A' for Active; 'I' for Inactive)
REMARK    1  A    between atoms: C_4  and  C_5 
REMARK    2  A    between atoms: C_5  and  C_6 
REMARK    3  A    between atoms: C_7  and  N_8 
REMARK       I    between atoms: N_8  and  C_9 
REMARK    4  A    between atoms: C_9  and  C_10 
ROOT
HETATM    1  N   UNL     1       4.986  26.430  55.246  1.00  0.00    -0.321 N 
HETATM    2  C   UNL     1       5.145  26.727  56.584  1.00  0.00     0.277 C 
HETATM    3  O   UNL     1       5.006  25.869  57.451  1.00  0.00    -0.266 OA
HETATM    4  H   UNL     1       4.408  25.609  55.109  1.00  0.00     0.169 HD
ENDROOT
BRANCH   1   5
HETATM    5  C   UNL     1       5.060  27.343  54.187  1.00  0.00     0.041 A 
HETATM    6  C   UNL     1       6.290  27.677  53.592  1.00  0.00    -0.027 A 
HETATM    7  C   UNL     1       6.284  28.575  52.509  1.00  0.00     0.010 A 
HETATM    8  C   UNL     1       5.088  29.093  52.010  1.00  0.00     0.001 A 
HETATM    9  C   UNL     1       3.876  28.705  52.572  1.00  0.00     0.002 A 
HETATM   10  C   UNL     1       3.860  27.819  53.649  1.00  0.00     0.030 A 
BRANCH   6  11
HETATM   11  C   UNL     1       7.603  27.021  53.981  1.00  0.00     0.079 C 
BRANCH  11  12
HETATM   12  C   UNL     1       7.653  25.531  53.715  1.00  0.00    -0.054 A 
HETATM   13  C   UNL     1       7.770  24.615  54.770  1.00  0.00     0.007 A 
HETATM   14  C   UNL     1       7.803  23.242  54.515  1.00  0.00     0.001 A 
HETATM   15  C   UNL     1       7.723  22.771  53.206  1.00  0.00     0.000 A 
HETATM   16  C   UNL     1       7.611  23.671  52.149  1.00  0.00     0.001 A 
HETATM   17  C   UNL     1       7.575  25.043  52.401  1.00  0.00     0.007 A 
ENDBRANCH  11  12
ENDBRANCH   6  11
ENDBRANCH   1   5
BRANCH   2  18
HETATM   18  C   UNL     1       5.349  28.171  57.022  1.00  0.00     0.156 A 
HETATM   19  N   UNL     1       4.304  28.943  57.098  1.00  0.00    -0.166 NA
HETATM   20  N   UNL     1       4.485  30.238  57.479  1.00  0.00    -0.242 N 
HETATM   21  C   UNL     1       5.689  30.836  57.768  1.00  0.00     0.272 A 
HETATM   22  H   UNL     1       3.652  30.814  57.548  1.00  0.00     0.192 HD
HETATM   23  O   UNL     1       5.775  32.011  58.103  1.00  0.00    -0.266 OA
HETATM   24  C   UNL     1       6.881  29.980  57.648  1.00  0.00     0.046 A 
HETATM   25  C   UNL     1       6.725  28.642  57.292  1.00  0.00     0.016 A 
HETATM   26  C   UNL     1       8.155  30.513  57.878  1.00  0.00     0.018 A 
HETATM   27  C   UNL     1       7.857  27.825  57.172  1.00  0.00     0.015 A 
HETATM   28  C   UNL     1       9.131  28.358  57.399  1.00  0.00     0.001 A 
HETATM   29  C   UNL     1       9.279  29.700  57.749  1.00  0.00     0.001 A 
ENDBRANCH   2  18
TORSDOF 4
ENDMDL
MODEL 8
REMARK VINA RESULT:      -8.1      2.490      3.776
REMARK  4 active torsions:
REMARK  status: ('A' for Active; 'I' for Inactive)
REMARK    1  A    between atoms: C_4  and  C_5 
REMARK    2  A    between atoms: C_5  and  C_6 
REMARK    3  A    between atoms: C_7  and  N_8 
REMARK       I    between atoms: N_8  and  C_9 
REMARK    4  A    between atoms: C_9  and  C_10 
ROOT
HETATM    1  N   UNL     1       7.298  27.069  54.488  1.00  0.00    -0.321 N 
HETATM    2  C   UNL     1       8.002  28.235  54.707  1.00  0.00     0.277 C 
HETATM    3  O   UNL     1       8.731  28.714  53.843  1.00  0.00    -0.266 OA
HETATM    4  H   UNL     1       7.722  26.504  53.763  1.00  0.00     0.169 HD
ENDROOT
BRANCH   1   5
HETATM    5  C   UNL     1       6.493  26.407  55.424  1.00  0.00     0.041 A 
HETATM    6  C   UNL     1       6.880  25.176  55.984  1.00  0.00    -0.027 A 
HETATM    7  C   UNL     1       6.038  24.588  56.945  1.00  0.00     0.010 A 
HETATM    8  C   UNL     1       4.869  25.224  57.364  1.00  0.00     0.001 A 
HETATM    9  C   UNL     1       4.532  26.469  56.844  1.00  0.00     0.002 A 
HETATM   10  C   UNL     1       5.351  27.069  55.887  1.00  0.00     0.030 A 
BRANCH   6  11
HETATM   11  C   UNL     1       8.217  24.518  55.693  1.00  0.00     0.079 C 
BRANCH  11  12
HETATM   12  C   UNL     1       8.110  23.184  54.986  1.00  0.00    -0.054 A 
HETATM   13  C   UNL     1       8.113  21.983  55.709  1.00  0.00     0.007 A 
HETATM   14  C   UNL     1       8.002  20.758  55.049  1.00  0.00     0.001 A 
HETATM   15  C   UNL     1       7.890  20.719  53.660  1.00  0.00     0.000 A 
HETATM   16  C   UNL     1       7.890  21.905  52.929  1.00  0.00     0.001 A 
HETATM   17  C   UNL     1       7.999  23.131  53.588  1.00  0.00     0.007 A 
ENDBRANCH  11  12
ENDBRANCH   6  11
ENDBRANCH   1   5
BRANCH   2  18
HETATM   18  C   UNL     1       8.004  28.872  56.089  1.00  0.00     0.156 A 
HETATM   19  N   UNL     1       8.925  28.505  56.934  1.00  0.00    -0.166 NA
HETATM   20  N   UNL     1       8.922  29.066  58.175  1.00  0.00    -0.242 N 
HETATM   21  C   UNL     1       8.010  29.977  58.650  1.00  0.00     0.272 A 
HETATM   22  H   UNL     1       9.662  28.777  58.807  1.00  0.00     0.192 HD
HETATM   23  O   UNL     1       8.070  30.438  59.783  1.00  0.00    -0.266 OA
HETATM   24  C   UNL     1       6.942  30.370  57.715  1.00  0.00     0.046 A 
HETATM   25  C   UNL     1       6.936  29.839  56.427  1.00  0.00     0.016 A 
HETATM   26  C   UNL     1       5.940  31.258  58.125  1.00  0.00     0.018 A 
HETATM   27  C   UNL     1       5.920  30.206  55.535  1.00  0.00     0.015 A 
HETATM   28  C   UNL     1       4.916  31.091  55.945  1.00  0.00     0.001 A 
HETATM   29  C   UNL     1       4.925  31.614  57.238  1.00  0.00     0.001 A 
ENDBRANCH   2  18
TORSDOF 4
ENDMDL
MODEL 9
REMARK VINA RESULT:      -8.0      2.309      7.094
REMARK  4 active torsions:
REMARK  status: ('A' for Active; 'I' for Inactive)
REMARK    1  A    between atoms: C_4  and  C_5 
REMARK    2  A    between atoms: C_5  and  C_6 
REMARK    3  A    between atoms: C_7  and  N_8 
REMARK       I    between atoms: N_8  and  C_9 
REMARK    4  A    between atoms: C_9  and  C_10 
ROOT
HETATM    1  N   UNL     1       5.459  27.006  53.702  1.00  0.00    -0.321 N 
HETATM    2  C   UNL     1       5.306  25.645  53.876  1.00  0.00     0.277 C 
HETATM    3  O   UNL     1       4.411  25.024  53.310  1.00  0.00    -0.266 OA
HETATM    4  H   UNL     1       4.597  27.446  53.406  1.00  0.00     0.169 HD
ENDROOT
BRANCH   1   5
HETATM    5  C   UNL     1       6.402  27.815  54.347  1.00  0.00     0.041 A 
HETATM    6  C   UNL     1       6.028  28.699  55.376  1.00  0.00    -0.027 A 
HETATM    7  C   UNL     1       7.035  29.454  56.003  1.00  0.00     0.010 A 
HETATM    8  C   UNL     1       8.375  29.307  55.644  1.00  0.00     0.001 A 
HETATM    9  C   UNL     1       8.734  28.385  54.666  1.00  0.00     0.002 A 
HETATM   10  C   UNL     1       7.751  27.628  54.029  1.00  0.00     0.030 A 
BRANCH   6  11
HETATM   11  C   UNL     1       4.614  28.781  55.923  1.00  0.00     0.079 C 
BRANCH  11  12
HETATM   12  C   UNL     1       3.838  29.993  55.453  1.00  0.00    -0.054 A 
HETATM   13  C   UNL     1       3.787  30.335  54.095  1.00  0.00     0.007 A 
HETATM   14  C   UNL     1       3.060  31.449  53.671  1.00  0.00     0.001 A 
HETATM   15  C   UNL     1       2.378  32.234  54.599  1.00  0.00     0.000 A 
HETATM   16  C   UNL     1       2.425  31.909  55.952  1.00  0.00     0.001 A 
HETATM   17  C   UNL     1       3.149  30.794  56.378  1.00  0.00     0.007 A 
ENDBRANCH  11  12
ENDBRANCH   6  11
ENDBRANCH   1   5
BRANCH   2  18
HETATM   18  C   UNL     1       6.158  24.911  54.902  1.00  0.00     0.156 A 
HETATM   19  N   UNL     1       6.054  25.261  56.151  1.00  0.00    -0.166 NA
HETATM   20  N   UNL     1       6.824  24.613  57.069  1.00  0.00    -0.242 N 
HETATM   21  C   UNL     1       7.742  23.626  56.803  1.00  0.00     0.272 A 
HETATM   22  H   UNL     1       6.709  24.893  58.039  1.00  0.00     0.192 HD
HETATM   23  O   UNL     1       8.402  23.088  57.684  1.00  0.00    -0.266 OA
HETATM   24  C   UNL     1       7.895  23.249  55.388  1.00  0.00     0.046 A 
HETATM   25  C   UNL     1       7.098  23.871  54.428  1.00  0.00     0.016 A 
HETATM   26  C   UNL     1       8.839  22.285  55.015  1.00  0.00     0.018 A 
HETATM   27  C   UNL     1       7.242  23.518  53.081  1.00  0.00     0.015 A 
HETATM   28  C   UNL     1       8.188  22.558  52.706  1.00  0.00     0.001 A 
HETATM   29  C   UNL     1       8.986  21.944  53.671  1.00  0.00     0.001 A 
ENDBRANCH   2  18
TORSDOF 4
ENDMDL
MODEL 10
REMARK VINA RESULT:      -8.0      2.451      7.647
REMARK  4 active torsions:
REMARK  status: ('A' for Active; 'I' for Inactive)
REMARK    1  A    between atoms: C_4  and  C_5 
REMARK    2  A    between atoms: C_5  and  C_6 
REMARK    3  A    between atoms: C_7  and  N_8 
REMARK       I    between atoms: N_8  and  C_9 
REMARK    4  A    between atoms: C_9  and  C_10 
ROOT
HETATM    1  N   UNL     1       6.156  29.021  55.077  1.00  0.00    -0.321 N 
HETATM    2  C   UNL     1       5.623  27.774  54.821  1.00  0.00     0.277 C 
HETATM    3  O   UNL     1       4.572  27.642  54.200  1.00  0.00    -0.266 OA
HETATM    4  H   UNL     1       5.448  29.745  55.048  1.00  0.00     0.169 HD
ENDROOT
BRANCH   1   5
HETATM    5  C   UNL     1       7.309  29.283  55.827  1.00  0.00     0.041 A 
HETATM    6  C   UNL     1       7.231  29.765  57.147  1.00  0.00    -0.027 A 
HETATM    7  C   UNL     1       8.430  29.972  57.852  1.00  0.00     0.010 A 
HETATM    8  C   UNL     1       9.665  29.670  57.276  1.00  0.00     0.001 A 
HETATM    9  C   UNL     1       9.721  29.138  55.992  1.00  0.00     0.002 A 
HETATM   10  C   UNL     1       8.543  28.929  55.274  1.00  0.00     0.030 A 
BRANCH   6  11
HETATM   11  C   UNL     1       5.916  29.953  57.883  1.00  0.00     0.079 C 
BRANCH  11  12
HETATM   12  C   UNL     1       5.461  31.394  57.980  1.00  0.00    -0.054 A 
HETATM   13  C   UNL     1       5.372  32.040  59.221  1.00  0.00     0.007 A 
HETATM   14  C   UNL     1       4.962  33.372  59.298  1.00  0.00     0.001 A 
HETATM   15  C   UNL     1       4.635  34.073  58.138  1.00  0.00     0.000 A 
HETATM   16  C   UNL     1       4.715  33.441  56.899  1.00  0.00     0.001 A 
HETATM   17  C   UNL     1       5.126  32.110  56.820  1.00  0.00     0.007 A 
ENDBRANCH  11  12
ENDBRANCH   6  11
ENDBRANCH   1   5
BRANCH   2  18
HETATM   18  C   UNL     1       6.256  26.536  55.441  1.00  0.00     0.156 A 
HETATM   19  N   UNL     1       6.215  26.408  56.736  1.00  0.00    -0.166 NA
HETATM   20  N   UNL     1       6.791  25.307  57.294  1.00  0.00    -0.242 N 
HETATM   21  C   UNL     1       7.452  24.309  56.618  1.00  0.00     0.272 A 
HETATM   22  H   UNL     1       6.728  25.221  58.304  1.00  0.00     0.192 HD
HETATM   23  O   UNL     1       7.949  23.346  57.190  1.00  0.00    -0.266 OA
HETATM   24  C   UNL     1       7.538  24.464  55.157  1.00  0.00     0.046 A 
HETATM   25  C   UNL     1       6.931  25.564  54.552  1.00  0.00     0.016 A 
HETATM   26  C   UNL     1       8.233  23.523  54.389  1.00  0.00     0.018 A 
HETATM   27  C   UNL     1       7.012  25.718  53.163  1.00  0.00     0.015 A 
HETATM   28  C   UNL     1       7.709  24.778  52.395  1.00  0.00     0.001 A 
HETATM   29  C   UNL     1       8.320  23.684  53.007  1.00  0.00     0.001 A 
ENDBRANCH   2  18
TORSDOF 4
ENDMDL
