MODEL 1
REMARK VINA RESULT:      -8.5      0.000      0.000
REMARK  7 active torsions:
REMARK  status: ('A' for Active; 'I' for Inactive)
REMARK    1  A    between atoms: C_2  and  C_3 
REMARK    2  A    between atoms: C_3  and  N_4 
REMARK       I    between atoms: N_4  and  C_5 
REMARK    3  A    between atoms: C_5  and  C_6 
REMARK    4  A    between atoms: C_7  and  N_8 
REMARK       I    between atoms: N_8  and  C_9 
REMARK    5  A    between atoms: C_9  and  C_10 
REMARK    6  A    between atoms: C_12  and  O_13 
REMARK    7  A    between atoms: O_13  and  C_14 
ROOT
HETATM    1  N   UNL     1       7.257  27.333  55.565  1.00  0.00    -0.322 N 
HETATM    2  C   UNL     1       8.211  28.228  55.111  1.00  0.00     0.256 C 
HETATM    3  O   UNL     1       8.445  28.488  53.935  1.00  0.00    -0.267 OA
HETATM    4  H   UNL     1       6.860  27.527  56.476  1.00  0.00     0.169 HD
ENDROOT
BRANCH   1   5
HETATM    5  C   UNL     1       6.521  26.472  54.720  1.00  0.00     0.050 A 
HETATM    6  C   UNL     1       6.858  25.137  54.438  1.00  0.00     0.058 A 
HETATM    7  C   UNL     1       6.101  24.399  53.511  1.00  0.00     0.019 A 
HETATM    8  C   UNL     1       5.001  24.978  52.880  1.00  0.00     0.001 A 
HETATM    9  C   UNL     1       4.630  26.282  53.196  1.00  0.00     0.002 A 
HETATM   10  C   UNL     1       5.377  27.020  54.119  1.00  0.00     0.030 A 
BRANCH   6  11
HETATM   11  C   UNL     1       7.864  24.380  55.227  1.00  0.00     0.254 C 
HETATM   12  N   UNL     1       8.242  23.171  54.679  1.00  0.00    -0.353 N 
HETATM   13  H   UNL     1       8.093  23.063  53.685  1.00  0.00     0.163 HD
HETATM   14  O   UNL     1       8.270  24.818  56.298  1.00  0.00    -0.268 OA
BRANCH  12  15
HETATM   15  C   UNL     1       9.290  22.404  55.296  1.00  0.00     0.149 C 
BRANCH  15  16
HETATM   16  C   UNL     1       8.654  21.385  56.187  1.00  0.00    -0.018 C 
HETATM   17  C   UNL     1       7.644  20.581  55.828  1.00  0.00     0.008 C 
ENDBRANCH  15  16
ENDBRANCH  12  15
ENDBRANCH   6  11
ENDBRANCH   1   5
BRANCH   2  18
HETATM   18  C   UNL     1       8.892  29.010  56.173  1.00  0.00     0.037 A 
HETATM   19  C   UNL     1       8.284  29.097  57.423  1.00  0.00     0.075 A 
HETATM   20  C   UNL     1       8.927  29.831  58.398  1.00  0.00     0.165 A 
HETATM   21  N   UNL     1      10.106  30.462  58.217  1.00  0.00    -0.237 NA
HETATM   22  C   UNL     1      10.661  30.374  56.988  1.00  0.00     0.120 A 
HETATM   23  C   UNL     1      10.101  29.667  55.939  1.00  0.00     0.036 A 
BRANCH  20  24
HETATM   24  O   UNL     1       8.308  29.895  59.631  1.00  0.00    -0.329 OA
BRANCH  24  25
HETATM   25  C   UNL     1       8.712  30.981  60.490  1.00  0.00     0.130 C 
HETATM   26  C   UNL     1       7.579  31.763  61.207  1.00  0.00     0.032 C 
HETATM   27  C   UNL     1       8.464  31.781  62.466  1.00  0.00     0.005 C 
HETATM   28  C   UNL     1       9.180  30.542  61.902  1.00  0.00     0.032 C 
ENDBRANCH  24  25
ENDBRANCH  20  24
ENDBRANCH   2  18
TORSDOF 7
ENDMDL
MODEL 2
REMARK VINA RESULT:      -8.5      2.053      4.289
REMARK  7 active torsions:
REMARK  status: ('A' for Active; 'I' for Inactive)
REMARK    1  A    between atoms: C_2  and  C_3 
REMARK    2  A    between atoms: C_3  and  N_4 
REMARK       I    between atoms: N_4  and  C_5 
REMARK    3  A    between atoms: C_5  and  C_6 
REMARK    4  A    between atoms: C_7  and  N_8 
REMARK       I    between atoms: N_8  and  C_9 
REMARK    5  A    between atoms: C_9  and  C_10 
REMARK    6  A    between atoms: C_12  and  O_13 
REMARK    7  A    between atoms: O_13  and  C_14 
ROOT
HETATM    1  N   UNL     1       7.773  25.285  55.615  1.00  0.00    -0.322 N 
HETATM    2  C   UNL     1       6.486  25.745  55.836  1.00  0.00     0.256 C 
HETATM    3  O   UNL     1       5.456  25.111  55.637  1.00  0.00    -0.267 OA
HETATM    4  H   UNL     1       8.496  25.680  56.203  1.00  0.00     0.169 HD
ENDROOT
BRANCH   1   5
HETATM    5  C   UNL     1       8.072  24.061  54.975  1.00  0.00     0.050 A 
HETATM    6  C   UNL     1       7.798  23.767  53.627  1.00  0.00     0.058 A 
HETATM    7  C   UNL     1       8.058  22.483  53.119  1.00  0.00     0.019 A 
HETATM    8  C   UNL     1       8.606  21.498  53.939  1.00  0.00     0.001 A 
HETATM    9  C   UNL     1       8.928  21.798  55.259  1.00  0.00     0.002 A 
HETATM   10  C   UNL     1       8.675  23.074  55.771  1.00  0.00     0.030 A 
BRANCH   6  11
HETATM   11  C   UNL     1       7.432  24.813  52.638  1.00  0.00     0.254 C 
HETATM   12  N   UNL     1       6.076  24.972  52.437  1.00  0.00    -0.353 N 
HETATM   13  H   UNL     1       5.471  24.648  53.179  1.00  0.00     0.163 HD
HETATM   14  O   UNL     1       8.304  25.435  52.041  1.00  0.00    -0.268 OA
BRANCH  12  15
HETATM   15  C   UNL     1       5.599  26.030  51.586  1.00  0.00     0.149 C 
BRANCH  15  16
HETATM   16  C   UNL     1       5.212  27.183  52.455  1.00  0.00    -0.018 C 
HETATM   17  C   UNL     1       6.001  28.229  52.733  1.00  0.00     0.008 C 
ENDBRANCH  15  16
ENDBRANCH  12  15
ENDBRANCH   6  11
ENDBRANCH   1   5
BRANCH   2  18
HETATM   18  C   UNL     1       6.400  27.074  56.492  1.00  0.00     0.037 A 
HETATM   19  C   UNL     1       7.491  27.516  57.236  1.00  0.00     0.075 A 
HETATM   20  C   UNL     1       7.395  28.751  57.843  1.00  0.00     0.165 A 
HETATM   21  N   UNL     1       6.315  29.555  57.755  1.00  0.00    -0.237 NA
HETATM   22  C   UNL     1       5.267  29.091  57.041  1.00  0.00     0.120 A 
HETATM   23  C   UNL     1       5.256  27.868  56.395  1.00  0.00     0.036 A 
BRANCH  20  24
HETATM   24  O   UNL     1       8.493  29.169  58.569  1.00  0.00    -0.329 OA
BRANCH  24  25
HETATM   25  C   UNL     1       8.380  30.458  59.208  1.00  0.00     0.130 C 
HETATM   26  C   UNL     1       8.944  30.574  60.650  1.00  0.00     0.032 C 
HETATM   27  C   UNL     1       9.510  31.950  60.258  1.00  0.00     0.005 C 
HETATM   28  C   UNL     1       9.474  31.477  58.795  1.00  0.00     0.032 C 
ENDBRANCH  24  25
ENDBRANCH  20  24
ENDBRANCH   2  18
TORSDOF 7
ENDMDL
MODEL 3
REMARK VINA RESULT:      -8.3      2.107      3.874
REMARK  7 active torsions:
REMARK  status: ('A' for Active; 'I' for Inactive)
REMARK    1  A    between atoms: C_2  and  C_3 
REMARK    2  A    between atoms: C_3  and  N_4 
REMARK       I    between atoms: N_4  and  C_5 
REMARK    3  A    between atoms: C_5  and  C_6 
REMARK    4  A    between atoms: C_7  and  N_8 
REMARK       I    between atoms: N_8  and  C_9 
REMARK    5  A    between atoms: C_9  and  C_10 
REMARK    6  A    between atoms: C_12  and  O_13 
REMARK    7  A    between atoms: O_13  and  C_14 
ROOT
HETATM    1  N   UNL     1       8.658  27.578  56.823  1.00  0.00    -0.322 N 
HETATM    2  C   UNL     1       7.952  28.563  57.493  1.00  0.00     0.256 C 
HETATM    3  O   UNL     1       6.795  28.470  57.889  1.00  0.00    -0.267 OA
HETATM    4  H   UNL     1       9.662  27.584  56.949  1.00  0.00     0.169 HD
ENDROOT
BRANCH   1   5
HETATM    5  C   UNL     1       8.081  26.373  56.361  1.00  0.00     0.050 A 
HETATM    6  C   UNL     1       7.292  26.248  55.204  1.00  0.00     0.058 A 
HETATM    7  C   UNL     1       6.695  25.015  54.888  1.00  0.00     0.019 A 
HETATM    8  C   UNL     1       6.895  23.905  55.706  1.00  0.00     0.001 A 
HETATM    9  C   UNL     1       7.717  24.009  56.824  1.00  0.00     0.002 A 
HETATM   10  C   UNL     1       8.317  25.232  57.143  1.00  0.00     0.030 A 
BRANCH   6  11
HETATM   11  C   UNL     1       7.217  27.310  54.167  1.00  0.00     0.254 C 
HETATM   12  N   UNL     1       6.082  27.276  53.383  1.00  0.00    -0.353 N 
HETATM   13  H   UNL     1       5.281  26.797  53.774  1.00  0.00     0.163 HD
HETATM   14  O   UNL     1       8.137  28.108  54.029  1.00  0.00    -0.268 OA
BRANCH  12  15
HETATM   15  C   UNL     1       5.846  28.319  52.421  1.00  0.00     0.149 C 
BRANCH  15  16
HETATM   16  C   UNL     1       5.078  27.731  51.281  1.00  0.00    -0.018 C 
HETATM   17  C   UNL     1       5.198  26.468  50.849  1.00  0.00     0.008 C 
ENDBRANCH  15  16
ENDBRANCH  12  15
ENDBRANCH   6  11
ENDBRANCH   1   5
BRANCH   2  18
HETATM   18  C   UNL     1       8.745  29.764  57.857  1.00  0.00     0.037 A 
HETATM   19  C   UNL     1       8.169  30.704  58.707  1.00  0.00     0.075 A 
HETATM   20  C   UNL     1       8.917  31.817  59.033  1.00  0.00     0.165 A 
HETATM   21  N   UNL     1      10.169  32.045  58.584  1.00  0.00    -0.237 NA
HETATM   22  C   UNL     1      10.693  31.123  57.747  1.00  0.00     0.120 A 
HETATM   23  C   UNL     1      10.030  29.975  57.354  1.00  0.00     0.036 A 
BRANCH  20  24
HETATM   24  O   UNL     1       8.326  32.730  59.884  1.00  0.00    -0.329 OA
BRANCH  24  25
HETATM   25  C   UNL     1       7.817  32.204  61.127  1.00  0.00     0.130 C 
HETATM   26  C   UNL     1       8.862  31.893  62.233  1.00  0.00     0.032 C 
HETATM   27  C   UNL     1       7.875  32.487  63.253  1.00  0.00     0.005 C 
HETATM   28  C   UNL     1       7.248  33.276  62.092  1.00  0.00     0.032 C 
ENDBRANCH  24  25
ENDBRANCH  20  24
ENDBRANCH   2  18
TORSDOF 7
ENDMDL
MODEL 4
REMARK VINA RESULT:      -8.1      3.604      8.352
REMARK  7 active torsions:
REMARK  status: ('A' for Active; 'I' for Inactive)
REMARK    1  A    between atoms: C_2  and  C_3 
REMARK    2  A    between atoms: C_3  and  N_4 
REMARK       I    between atoms: N_4  and  C_5 
REMARK    3  A    between atoms: C_5  and  C_6 
REMARK    4  A    between atoms: C_7  and  N_8 
REMARK       I    between atoms: N_8  and  C_9 
REMARK    5  A    between atoms: C_9  and  C_10 
REMARK    6  A    between atoms: C_12  and  O_13 
REMARK    7  A    between atoms: O_13  and  C_14 
ROOT
HETATM    1  N   UNL     1       6.967  24.883  52.974  1.00  0.00    -0.322 N 
HETATM    2  C   UNL     1       5.674  25.163  52.563  1.00  0.00     0.256 C 
HETATM    3  O   UNL     1       4.679  24.497  52.830  1.00  0.00    -0.267 OA
HETATM    4  H   UNL     1       7.582  25.679  53.084  1.00  0.00     0.169 HD
ENDROOT
BRANCH   1   5
HETATM    5  C   UNL     1       7.342  23.691  53.634  1.00  0.00     0.050 A 
HETATM    6  C   UNL     1       7.478  23.548  55.026  1.00  0.00     0.058 A 
HETATM    7  C   UNL     1       7.944  22.337  55.567  1.00  0.00     0.019 A 
HETATM    8  C   UNL     1       8.255  21.264  54.733  1.00  0.00     0.001 A 
HETATM    9  C   UNL     1       8.071  21.383  53.358  1.00  0.00     0.002 A 
HETATM   10  C   UNL     1       7.606  22.583  52.813  1.00  0.00     0.030 A 
BRANCH   6  11
HETATM   11  C   UNL     1       6.958  24.551  55.989  1.00  0.00     0.254 C 
HETATM   12  N   UNL     1       7.888  25.027  56.891  1.00  0.00    -0.353 N 
HETATM   13  H   UNL     1       8.858  24.939  56.623  1.00  0.00     0.163 HD
HETATM   14  O   UNL     1       5.775  24.872  55.972  1.00  0.00    -0.268 OA
BRANCH  12  15
HETATM   15  C   UNL     1       7.527  26.083  57.799  1.00  0.00     0.149 C 
BRANCH  15  16
HETATM   16  C   UNL     1       8.029  27.372  57.231  1.00  0.00    -0.018 C 
HETATM   17  C   UNL     1       7.866  28.573  57.801  1.00  0.00     0.008 C 
ENDBRANCH  15  16
ENDBRANCH  12  15
ENDBRANCH   6  11
ENDBRANCH   1   5
BRANCH   2  18
HETATM   18  C   UNL     1       5.508  26.456  51.855  1.00  0.00     0.037 A 
HETATM   19  C   UNL     1       4.978  26.442  50.567  1.00  0.00     0.075 A 
HETATM   20  C   UNL     1       4.834  27.652  49.920  1.00  0.00     0.165 A 
HETATM   21  N   UNL     1       5.167  28.843  50.460  1.00  0.00    -0.237 NA
HETATM   22  C   UNL     1       5.694  28.822  51.703  1.00  0.00     0.120 A 
HETATM   23  C   UNL     1       5.885  27.666  52.439  1.00  0.00     0.036 A 
BRANCH  20  24
HETATM   24  O   UNL     1       4.300  27.611  48.648  1.00  0.00    -0.329 OA
BRANCH  24  25
HETATM   25  C   UNL     1       3.015  26.967  48.517  1.00  0.00     0.130 C 
HETATM   26  C   UNL     1       1.762  27.863  48.708  1.00  0.00     0.032 C 
HETATM   27  C   UNL     1       1.119  27.120  47.524  1.00  0.00     0.005 C 
HETATM   28  C   UNL     1       2.541  26.772  47.053  1.00  0.00     0.032 C 
ENDBRANCH  24  25
ENDBRANCH  20  24
ENDBRANCH   2  18
TORSDOF 7
ENDMDL
MODEL 5
REMARK VINA RESULT:      -7.8      1.964      2.404
REMARK  7 active torsions:
REMARK  status: ('A' for Active; 'I' for Inactive)
REMARK    1  A    between atoms: C_2  and  C_3 
REMARK    2  A    between atoms: C_3  and  N_4 
REMARK       I    between atoms: N_4  and  C_5 
REMARK    3  A    between atoms: C_5  and  C_6 
REMARK    4  A    between atoms: C_7  and  N_8 
REMARK       I    between atoms: N_8  and  C_9 
REMARK    5  A    between atoms: C_9  and  C_10 
REMARK    6  A    between atoms: C_12  and  O_13 
REMARK    7  A    between atoms: O_13  and  C_14 
ROOT
HETATM    1  N   UNL     1       7.214  27.161  55.160  1.00  0.00    -0.322 N 
HETATM    2  C   UNL     1       6.015  27.779  55.473  1.00  0.00     0.256 C 
HETATM    3  O   UNL     1       4.908  27.437  55.071  1.00  0.00    -0.267 OA
HETATM    4  H   UNL     1       7.946  27.228  55.855  1.00  0.00     0.169 HD
ENDROOT
BRANCH   1   5
HETATM    5  C   UNL     1       7.342  26.134  54.197  1.00  0.00     0.050 A 
HETATM    6  C   UNL     1       7.883  24.860  54.443  1.00  0.00     0.058 A 
HETATM    7  C   UNL     1       8.042  23.946  53.387  1.00  0.00     0.019 A 
HETATM    8  C   UNL     1       7.650  24.287  52.094  1.00  0.00     0.001 A 
HETATM    9  C   UNL     1       7.065  25.527  51.854  1.00  0.00     0.002 A 
HETATM   10  C   UNL     1       6.900  26.440  52.900  1.00  0.00     0.030 A 
BRANCH   6  11
HETATM   11  C   UNL     1       8.112  24.338  55.815  1.00  0.00     0.254 C 
HETATM   12  N   UNL     1       8.029  22.966  55.935  1.00  0.00    -0.353 N 
HETATM   13  H   UNL     1       8.168  22.432  55.088  1.00  0.00     0.163 HD
HETATM   14  O   UNL     1       8.316  25.109  56.746  1.00  0.00    -0.268 OA
BRANCH  12  15
HETATM   15  C   UNL     1       8.343  22.339  57.191  1.00  0.00     0.149 C 
BRANCH  15  16
HETATM   16  C   UNL     1       8.369  20.859  56.975  1.00  0.00    -0.018 C 
HETATM   17  C   UNL     1       8.646  20.263  55.808  1.00  0.00     0.008 C 
ENDBRANCH  15  16
ENDBRANCH  12  15
ENDBRANCH   6  11
ENDBRANCH   1   5
BRANCH   2  18
HETATM   18  C   UNL     1       6.113  28.859  56.486  1.00  0.00     0.037 A 
HETATM   19  C   UNL     1       7.247  28.908  57.293  1.00  0.00     0.075 A 
HETATM   20  C   UNL     1       7.322  29.915  58.233  1.00  0.00     0.165 A 
HETATM   21  N   UNL     1       6.370  30.855  58.412  1.00  0.00    -0.237 NA
HETATM   22  C   UNL     1       5.275  30.770  57.626  1.00  0.00     0.120 A 
HETATM   23  C   UNL     1       5.097  29.800  56.656  1.00  0.00     0.036 A 
BRANCH  20  24
HETATM   24  O   UNL     1       8.459  29.945  59.015  1.00  0.00    -0.329 OA
BRANCH  24  25
HETATM   25  C   UNL     1       8.413  30.808  60.171  1.00  0.00     0.130 C 
HETATM   26  C   UNL     1       9.291  30.398  61.384  1.00  0.00     0.032 C 
HETATM   27  C   UNL     1       9.656  31.883  61.551  1.00  0.00     0.005 C 
HETATM   28  C   UNL     1       9.309  32.070  60.065  1.00  0.00     0.032 C 
ENDBRANCH  24  25
ENDBRANCH  20  24
ENDBRANCH   2  18
TORSDOF 7
ENDMDL
MODEL 6
REMARK VINA RESULT:      -7.8      3.835      7.467
REMARK  7 active torsions:
REMARK  status: ('A' for Active; 'I' for Inactive)
REMARK    1  A    between atoms: C_2  and  C_3 
REMARK    2  A    between atoms: C_3  and  N_4 
REMARK       I    between atoms: N_4  and  C_5 
REMARK    3  A    between atoms: C_5  and  C_6 
REMARK    4  A    between atoms: C_7  and  N_8 
REMARK       I    between atoms: N_8  and  C_9 
REMARK    5  A    between atoms: C_9  and  C_10 
REMARK    6  A    between atoms: C_12  and  O_13 
REMARK    7  A    between atoms: O_13  and  C_14 
ROOT
HETATM    1  N   UNL     1       5.425  27.237  54.939  1.00  0.00    -0.322 N 
HETATM    2  C   UNL     1       6.801  27.229  55.094  1.00  0.00     0.256 C 
HETATM    3  O   UNL     1       7.560  28.145  54.796  1.00  0.00    -0.267 OA
HETATM    4  H   UNL     1       4.898  26.672  55.592  1.00  0.00     0.169 HD
ENDROOT
BRANCH   1   5
HETATM    5  C   UNL     1       4.716  28.256  54.263  1.00  0.00     0.050 A 
HETATM    6  C   UNL     1       4.453  28.276  52.882  1.00  0.00     0.058 A 
HETATM    7  C   UNL     1       3.814  29.387  52.302  1.00  0.00     0.019 A 
HETATM    8  C   UNL     1       3.420  30.465  53.092  1.00  0.00     0.001 A 
HETATM    9  C   UNL     1       3.630  30.427  54.468  1.00  0.00     0.002 A 
HETATM   10  C   UNL     1       4.262  29.325  55.051  1.00  0.00     0.030 A 
BRANCH   6  11
HETATM   11  C   UNL     1       4.631  27.083  52.015  1.00  0.00     0.254 C 
HETATM   12  N   UNL     1       4.411  27.305  50.671  1.00  0.00    -0.353 N 
HETATM   13  H   UNL     1       4.493  28.262  50.354  1.00  0.00     0.163 HD
HETATM   14  O   UNL     1       4.914  25.996  52.506  1.00  0.00    -0.268 OA
BRANCH  12  15
HETATM   15  C   UNL     1       4.662  26.252  49.723  1.00  0.00     0.149 C 
BRANCH  15  16
HETATM   16  C   UNL     1       4.387  26.789  48.354  1.00  0.00    -0.018 C 
HETATM   17  C   UNL     1       5.087  27.764  47.761  1.00  0.00     0.008 C 
ENDBRANCH  15  16
ENDBRANCH  12  15
ENDBRANCH   6  11
ENDBRANCH   1   5
BRANCH   2  18
HETATM   18  C   UNL     1       7.343  26.044  55.805  1.00  0.00     0.037 A 
HETATM   19  C   UNL     1       7.049  24.779  55.303  1.00  0.00     0.075 A 
HETATM   20  C   UNL     1       7.557  23.688  55.978  1.00  0.00     0.165 A 
HETATM   21  N   UNL     1       8.324  23.772  57.085  1.00  0.00    -0.237 NA
HETATM   22  C   UNL     1       8.577  25.012  57.557  1.00  0.00     0.120 A 
HETATM   23  C   UNL     1       8.115  26.172  56.961  1.00  0.00     0.036 A 
BRANCH  20  24
HETATM   24  O   UNL     1       7.256  22.445  55.456  1.00  0.00    -0.329 OA
BRANCH  24  25
HETATM   25  C   UNL     1       8.239  21.873  54.568  1.00  0.00     0.130 C 
HETATM   26  C   UNL     1       8.234  20.327  54.423  1.00  0.00     0.032 C 
HETATM   27  C   UNL     1       8.471  20.524  52.916  1.00  0.00     0.005 C 
HETATM   28  C   UNL     1       7.856  21.925  53.066  1.00  0.00     0.032 C 
ENDBRANCH  24  25
ENDBRANCH  20  24
ENDBRANCH   2  18
TORSDOF 7
ENDMDL
MODEL 7
REMARK VINA RESULT:      -7.7      3.792      8.080
REMARK  7 active torsions:
REMARK  status: ('A' for Active; 'I' for Inactive)
REMARK    1  A    between atoms: C_2  and  C_3 
REMARK    2  A    between atoms: C_3  and  N_4 
REMARK       I    between atoms: N_4  and  C_5 
REMARK    3  A    between atoms: C_5  and  C_6 
REMARK    4  A    between atoms: C_7  and  N_8 
REMARK       I    between atoms: N_8  and  C_9 
REMARK    5  A    between atoms: C_9  and  C_10 
REMARK    6  A    between atoms: C_12  and  O_13 
REMARK    7  A    between atoms: O_13  and  C_14 
ROOT
HETATM    1  N   UNL     1       6.871  26.980  53.485  1.00  0.00    -0.322 N 
HETATM    2  C   UNL     1       5.577  27.324  53.132  1.00  0.00     0.256 C 
HETATM    3  O   UNL     1       4.605  27.314  53.881  1.00  0.00    -0.267 OA
HETATM    4  H   UNL     1       7.611  27.434  52.964  1.00  0.00     0.169 HD
ENDROOT
BRANCH   1   5
HETATM    5  C   UNL     1       7.223  26.414  54.731  1.00  0.00     0.050 A 
HETATM    6  C   UNL     1       7.190  25.041  55.032  1.00  0.00     0.058 A 
HETATM    7  C   UNL     1       7.476  24.599  56.336  1.00  0.00     0.019 A 
HETATM    8  C   UNL     1       7.814  25.513  57.333  1.00  0.00     0.001 A 
HETATM    9  C   UNL     1       7.899  26.868  57.027  1.00  0.00     0.002 A 
HETATM   10  C   UNL     1       7.618  27.315  55.733  1.00  0.00     0.030 A 
BRANCH   6  11
HETATM   11  C   UNL     1       7.066  23.994  53.986  1.00  0.00     0.254 C 
HETATM   12  N   UNL     1       8.072  23.049  53.989  1.00  0.00    -0.353 N 
HETATM   13  H   UNL     1       8.579  22.937  54.856  1.00  0.00     0.163 HD
HETATM   14  O   UNL     1       6.145  24.030  53.178  1.00  0.00    -0.268 OA
BRANCH  12  15
HETATM   15  C   UNL     1       7.998  21.925  53.095  1.00  0.00     0.149 C 
BRANCH  15  16
HETATM   16  C   UNL     1       8.077  20.677  53.915  1.00  0.00    -0.018 C 
HETATM   17  C   UNL     1       7.804  20.605  55.224  1.00  0.00     0.008 C 
ENDBRANCH  15  16
ENDBRANCH  12  15
ENDBRANCH   6  11
ENDBRANCH   1   5
BRANCH   2  18
HETATM   18  C   UNL     1       5.425  27.869  51.760  1.00  0.00     0.037 A 
HETATM   19  C   UNL     1       5.054  26.997  50.739  1.00  0.00     0.075 A 
HETATM   20  C   UNL     1       4.921  27.518  49.469  1.00  0.00     0.165 A 
HETATM   21  N   UNL     1       5.122  28.815  49.158  1.00  0.00    -0.237 NA
HETATM   22  C   UNL     1       5.498  29.632  50.166  1.00  0.00     0.120 A 
HETATM   23  C   UNL     1       5.663  29.214  51.474  1.00  0.00     0.036 A 
BRANCH  20  24
HETATM   24  O   UNL     1       4.545  26.634  48.476  1.00  0.00    -0.329 OA
BRANCH  24  25
HETATM   25  C   UNL     1       3.135  26.342  48.385  1.00  0.00     0.130 C 
HETATM   26  C   UNL     1       2.163  27.547  48.509  1.00  0.00     0.032 C 
HETATM   27  C   UNL     1       1.332  26.921  47.377  1.00  0.00     0.005 C 
HETATM   28  C   UNL     1       2.605  26.180  46.937  1.00  0.00     0.032 C 
ENDBRANCH  24  25
ENDBRANCH  20  24
ENDBRANCH   2  18
TORSDOF 7
ENDMDL
MODEL 8
REMARK VINA RESULT:      -7.7      3.875      7.815
REMARK  7 active torsions:
REMARK  status: ('A' for Active; 'I' for Inactive)
REMARK    1  A    between atoms: C_2  and  C_3 
REMARK    2  A    between atoms: C_3  and  N_4 
REMARK       I    between atoms: N_4  and  C_5 
REMARK    3  A    between atoms: C_5  and  C_6 
REMARK    4  A    between atoms: C_7  and  N_8 
REMARK       I    between atoms: N_8  and  C_9 
REMARK    5  A    between atoms: C_9  and  C_10 
REMARK    6  A    between atoms: C_12  and  O_13 
REMARK    7  A    between atoms: O_13  and  C_14 
ROOT
HETATM    1  N   UNL     1       5.981  26.479  54.529  1.00  0.00    -0.322 N 
HETATM    2  C   UNL     1       6.324  27.489  53.646  1.00  0.00     0.256 C 
HETATM    3  O   UNL     1       7.462  27.889  53.425  1.00  0.00    -0.267 OA
HETATM    4  H   UNL     1       5.144  25.956  54.306  1.00  0.00     0.169 HD
ENDROOT
BRANCH   1   5
HETATM    5  C   UNL     1       6.893  25.872  55.423  1.00  0.00     0.050 A 
HETATM    6  C   UNL     1       7.362  24.551  55.322  1.00  0.00     0.058 A 
HETATM    7  C   UNL     1       8.200  24.023  56.319  1.00  0.00     0.019 A 
HETATM    8  C   UNL     1       8.587  24.808  57.404  1.00  0.00     0.001 A 
HETATM    9  C   UNL     1       8.168  26.133  57.481  1.00  0.00     0.002 A 
HETATM   10  C   UNL     1       7.336  26.666  56.491  1.00  0.00     0.030 A 
BRANCH   6  11
HETATM   11  C   UNL     1       7.187  23.729  54.096  1.00  0.00     0.254 C 
HETATM   12  N   UNL     1       8.132  22.739  53.922  1.00  0.00    -0.353 N 
HETATM   13  H   UNL     1       8.621  22.433  54.752  1.00  0.00     0.163 HD
HETATM   14  O   UNL     1       6.280  23.975  53.309  1.00  0.00    -0.268 OA
BRANCH  12  15
HETATM   15  C   UNL     1       8.000  21.810  52.831  1.00  0.00     0.149 C 
BRANCH  15  16
HETATM   16  C   UNL     1       8.338  20.446  53.343  1.00  0.00    -0.018 C 
HETATM   17  C   UNL     1       8.495  20.133  54.636  1.00  0.00     0.008 C 
ENDBRANCH  15  16
ENDBRANCH  12  15
ENDBRANCH   6  11
ENDBRANCH   1   5
BRANCH   2  18
HETATM   18  C   UNL     1       5.203  28.010  52.824  1.00  0.00     0.037 A 
HETATM   19  C   UNL     1       5.221  27.769  51.453  1.00  0.00     0.075 A 
HETATM   20  C   UNL     1       4.174  28.263  50.702  1.00  0.00     0.165 A 
HETATM   21  N   UNL     1       3.136  28.957  51.215  1.00  0.00    -0.237 NA
HETATM   22  C   UNL     1       3.157  29.189  52.545  1.00  0.00     0.120 A 
HETATM   23  C   UNL     1       4.158  28.742  53.389  1.00  0.00     0.036 A 
BRANCH  20  24
HETATM   24  O   UNL     1       4.211  28.005  49.346  1.00  0.00    -0.329 OA
BRANCH  24  25
HETATM   25  C   UNL     1       3.624  26.758  48.920  1.00  0.00     0.130 C 
HETATM   26  C   UNL     1       2.300  26.849  48.114  1.00  0.00     0.032 C 
HETATM   27  C   UNL     1       2.844  25.735  47.203  1.00  0.00     0.005 C 
HETATM   28  C   UNL     1       4.257  26.155  47.639  1.00  0.00     0.032 C 
ENDBRANCH  24  25
ENDBRANCH  20  24
ENDBRANCH   2  18
TORSDOF 7
ENDMDL
MODEL 9
REMARK VINA RESULT:      -7.6      3.430      6.446
REMARK  7 active torsions:
REMARK  status: ('A' for Active; 'I' for Inactive)
REMARK    1  A    between atoms: C_2  and  C_3 
REMARK    2  A    between atoms: C_3  and  N_4 
REMARK       I    between atoms: N_4  and  C_5 
REMARK    3  A    between atoms: C_5  and  C_6 
REMARK    4  A    between atoms: C_7  and  N_8 
REMARK       I    between atoms: N_8  and  C_9 
REMARK    5  A    between atoms: C_9  and  C_10 
REMARK    6  A    between atoms: C_12  and  O_13 
REMARK    7  A    between atoms: O_13  and  C_14 
ROOT
HETATM    1  N   UNL     1       7.093  31.008  59.433  1.00  0.00    -0.322 N 
HETATM    2  C   UNL     1       6.269  32.098  59.211  1.00  0.00     0.256 C 
HETATM    3  O   UNL     1       6.230  32.767  58.184  1.00  0.00    -0.267 OA
HETATM    4  H   UNL     1       6.743  30.305  60.072  1.00  0.00     0.169 HD
ENDROOT
BRANCH   1   5
HETATM    5  C   UNL     1       8.126  30.610  58.553  1.00  0.00     0.050 A 
HETATM    6  C   UNL     1       8.017  29.594  57.588  1.00  0.00     0.058 A 
HETATM    7  C   UNL     1       9.139  29.223  56.826  1.00  0.00     0.019 A 
HETATM    8  C   UNL     1      10.360  29.870  57.007  1.00  0.00     0.001 A 
HETATM    9  C   UNL     1      10.460  30.913  57.924  1.00  0.00     0.002 A 
HETATM   10  C   UNL     1       9.348  31.289  58.683  1.00  0.00     0.030 A 
BRANCH   6  11
HETATM   11  C   UNL     1       6.712  29.017  57.175  1.00  0.00     0.254 C 
HETATM   12  N   UNL     1       6.769  28.178  56.082  1.00  0.00    -0.353 N 
HETATM   13  H   UNL     1       7.669  27.763  55.880  1.00  0.00     0.163 HD
HETATM   14  O   UNL     1       5.683  29.323  57.767  1.00  0.00    -0.268 OA
BRANCH  12  15
HETATM   15  C   UNL     1       5.588  27.474  55.660  1.00  0.00     0.149 C 
BRANCH  15  16
HETATM   16  C   UNL     1       5.738  26.039  56.056  1.00  0.00    -0.018 C 
HETATM   17  C   UNL     1       5.209  25.492  57.158  1.00  0.00     0.008 C 
ENDBRANCH  15  16
ENDBRANCH  12  15
ENDBRANCH   6  11
ENDBRANCH   1   5
BRANCH   2  18
HETATM   18  C   UNL     1       5.274  32.358  60.281  1.00  0.00     0.037 A 
HETATM   19  C   UNL     1       5.675  32.211  61.607  1.00  0.00     0.075 A 
HETATM   20  C   UNL     1       4.738  32.454  62.590  1.00  0.00     0.165 A 
HETATM   21  N   UNL     1       3.465  32.829  62.347  1.00  0.00    -0.237 NA
HETATM   22  C   UNL     1       3.102  32.946  61.051  1.00  0.00     0.120 A 
HETATM   23  C   UNL     1       3.960  32.724  59.988  1.00  0.00     0.036 A 
BRANCH  20  24
HETATM   24  O   UNL     1       5.163  32.308  63.896  1.00  0.00    -0.329 OA
BRANCH  24  25
HETATM   25  C   UNL     1       5.600  33.511  64.561  1.00  0.00     0.130 C 
HETATM   26  C   UNL     1       5.040  33.764  65.987  1.00  0.00     0.032 C 
HETATM   27  C   UNL     1       6.445  34.240  66.394  1.00  0.00     0.005 C 
HETATM   28  C   UNL     1       6.997  33.405  65.227  1.00  0.00     0.032 C 
ENDBRANCH  24  25
ENDBRANCH  20  24
ENDBRANCH   2  18
TORSDOF 7
ENDMDL
MODEL 10
REMARK VINA RESULT:      -7.0      2.965      6.837
REMARK  7 active torsions:
REMARK  status: ('A' for Active; 'I' for Inactive)
REMARK    1  A    between atoms: C_2  and  C_3 
REMARK    2  A    between atoms: C_3  and  N_4 
REMARK       I    between atoms: N_4  and  C_5 
REMARK    3  A    between atoms: C_5  and  C_6 
REMARK    4  A    between atoms: C_7  and  N_8 
REMARK       I    between atoms: N_8  and  C_9 
REMARK    5  A    between atoms: C_9  and  C_10 
REMARK    6  A    between atoms: C_12  and  O_13 
REMARK    7  A    between atoms: O_13  and  C_14 
ROOT
HETATM    1  N   UNL     1       6.367  25.489  53.989  1.00  0.00    -0.322 N 
HETATM    2  C   UNL     1       6.889  25.795  52.744  1.00  0.00     0.256 C 
HETATM    3  O   UNL     1       7.938  25.360  52.281  1.00  0.00    -0.267 OA
HETATM    4  H   UNL     1       5.359  25.527  54.073  1.00  0.00     0.169 HD
ENDROOT
BRANCH   1   5
HETATM    5  C   UNL     1       7.061  24.745  54.971  1.00  0.00     0.050 A 
HETATM    6  C   UNL     1       7.746  25.298  56.067  1.00  0.00     0.058 A 
HETATM    7  C   UNL     1       8.477  24.465  56.933  1.00  0.00     0.019 A 
HETATM    8  C   UNL     1       8.513  23.088  56.724  1.00  0.00     0.001 A 
HETATM    9  C   UNL     1       7.793  22.530  55.672  1.00  0.00     0.002 A 
HETATM   10  C   UNL     1       7.061  23.351  54.808  1.00  0.00     0.030 A 
BRANCH   6  11
HETATM   11  C   UNL     1       7.575  26.711  56.489  1.00  0.00     0.254 C 
HETATM   12  N   UNL     1       8.689  27.283  57.069  1.00  0.00    -0.353 N 
HETATM   13  H   UNL     1       9.578  26.853  56.853  1.00  0.00     0.163 HD
HETATM   14  O   UNL     1       6.494  27.274  56.350  1.00  0.00    -0.268 OA
BRANCH  12  15
HETATM   15  C   UNL     1       8.677  28.679  57.416  1.00  0.00     0.149 C 
BRANCH  15  16
HETATM   16  C   UNL     1       9.709  29.370  56.584  1.00  0.00    -0.018 C 
HETATM   17  C   UNL     1      10.929  29.720  57.015  1.00  0.00     0.008 C 
ENDBRANCH  15  16
ENDBRANCH  12  15
ENDBRANCH   6  11
ENDBRANCH   1   5
BRANCH   2  18
HETATM   18  C   UNL     1       6.006  26.619  51.880  1.00  0.00     0.037 A 
HETATM   19  C   UNL     1       5.780  27.945  52.239  1.00  0.00     0.075 A 
HETATM   20  C   UNL     1       4.954  28.696  51.429  1.00  0.00     0.165 A 
HETATM   21  N   UNL     1       4.359  28.227  50.312  1.00  0.00    -0.237 NA
HETATM   22  C   UNL     1       4.584  26.932  50.000  1.00  0.00     0.120 A 
HETATM   23  C   UNL     1       5.391  26.090  50.744  1.00  0.00     0.036 A 
BRANCH  20  24
HETATM   24  O   UNL     1       4.751  30.010  51.802  1.00  0.00    -0.329 OA
BRANCH  24  25
HETATM   25  C   UNL     1       3.609  30.262  52.647  1.00  0.00     0.130 C 
HETATM   26  C   UNL     1       3.853  30.228  54.180  1.00  0.00     0.032 C 
HETATM   27  C   UNL     1       2.935  31.456  54.298  1.00  0.00     0.005 C 
HETATM   28  C   UNL     1       3.263  31.764  52.827  1.00  0.00     0.032 C 
ENDBRANCH  24  25
ENDBRANCH  20  24
ENDBRANCH   2  18
TORSDOF 7
ENDMDL
