MODEL 1
REMARK VINA RESULT:      -9.8      0.000      0.000
REMARK  4 active torsions:
REMARK  status: ('A' for Active; 'I' for Inactive)
REMARK    1  A    between atoms: C_9  and  C_10 
REMARK       I    between atoms: C_10  and  N_11 
REMARK    2  A    between atoms: N_11  and  C_12 
REMARK    3  A    between atoms: C_14  and  C_15 
REMARK       I    between atoms: C_15  and  N_16 
REMARK    4  A    between atoms: N_16  and  C_17 
ROOT
HETATM    1  C   UNL     1       6.718  25.912  55.400  1.00  0.00     0.277 C 
HETATM    2  N   UNL     1       7.323  27.152  55.307  1.00  0.00    -0.322 N 
HETATM    3  O   UNL     1       5.908  25.565  56.254  1.00  0.00    -0.266 OA
HETATM    4  H   UNL     1       7.969  27.221  54.524  1.00  0.00     0.169 HD
ENDROOT
BRANCH   2   5
HETATM    5  C   UNL     1       7.156  28.276  56.132  1.00  0.00     0.036 A 
HETATM    6  C   UNL     1       8.071  28.663  57.114  1.00  0.00     0.046 A 
HETATM    7  C   UNL     1       7.818  29.784  57.917  1.00  0.00     0.034 A 
HETATM    8  C   UNL     1       6.665  30.549  57.703  1.00  0.00     0.017 A 
HETATM    9  C   UNL     1       5.754  30.173  56.719  1.00  0.00     0.003 A 
HETATM   10  C   UNL     1       5.994  29.037  55.945  1.00  0.00     0.029 A 
BRANCH   7  11
HETATM   11  C   UNL     1       8.749  30.203  59.001  1.00  0.00     0.252 C 
HETATM   12  N   UNL     1       8.213  30.258  60.275  1.00  0.00    -0.352 N 
HETATM   13  H   UNL     1       7.222  30.095  60.403  1.00  0.00     0.163 HD
HETATM   14  O   UNL     1       9.903  30.513  58.727  1.00  0.00    -0.268 OA
BRANCH  12  15
HETATM   15  C   UNL     1       8.971  30.674  61.413  1.00  0.00     0.084 A 
HETATM   16  C   UNL     1       8.932  32.106  61.872  1.00  0.00     0.027 A 
HETATM   17  C   UNL     1       8.273  31.038  62.694  1.00  0.00     0.027 A 
ENDBRANCH  12  15
ENDBRANCH   7  11
ENDBRANCH   2   5
BRANCH   1  18
HETATM   18  C   UNL     1       7.163  25.007  54.323  1.00  0.00     0.157 A 
HETATM   19  C   UNL     1       7.459  23.617  54.422  1.00  0.00     0.029 A 
HETATM   20  C   UNL     1       7.471  22.651  55.449  1.00  0.00     0.023 A 
HETATM   21  C   UNL     1       7.819  23.231  53.137  1.00  0.00     0.063 A 
HETATM   22  C   UNL     1       7.851  21.331  55.153  1.00  0.00    -0.061 A 
HETATM   23  C   UNL     1       7.881  20.288  56.234  1.00  0.00     0.048 C 
HETATM   24  C   UNL     1       8.194  20.982  53.841  1.00  0.00     0.009 A 
HETATM   25  C   UNL     1       8.185  21.924  52.805  1.00  0.00     0.032 A 
HETATM   26  N   UNL     1       7.723  24.365  52.379  1.00  0.00    -0.277 N 
HETATM   27  H   UNL     1       7.910  24.455  51.387  1.00  0.00     0.189 HD
HETATM   28  N   UNL     1       7.349  25.463  53.062  1.00  0.00    -0.168 NA
ENDBRANCH   1  18
TORSDOF 4
ENDMDL
MODEL 2
REMARK VINA RESULT:      -9.7      1.686      2.229
REMARK  4 active torsions:
REMARK  status: ('A' for Active; 'I' for Inactive)
REMARK    1  A    between atoms: C_9  and  C_10 
REMARK       I    between atoms: C_10  and  N_11 
REMARK    2  A    between atoms: N_11  and  C_12 
REMARK    3  A    between atoms: C_14  and  C_15 
REMARK       I    between atoms: C_15  and  N_16 
REMARK    4  A    between atoms: N_16  and  C_17 
ROOT
HETATM    1  C   UNL     1       7.985  26.486  56.756  1.00  0.00     0.277 C 
HETATM    2  N   UNL     1       8.386  27.757  56.382  1.00  0.00    -0.322 N 
HETATM    3  O   UNL     1       7.906  26.062  57.905  1.00  0.00    -0.266 OA
HETATM    4  H   UNL     1       8.385  27.893  55.374  1.00  0.00     0.169 HD
ENDROOT
BRANCH   2   5
HETATM    5  C   UNL     1       8.776  28.831  57.199  1.00  0.00     0.036 A 
HETATM    6  C   UNL     1       7.949  29.416  58.160  1.00  0.00     0.046 A 
HETATM    7  C   UNL     1       8.403  30.505  58.918  1.00  0.00     0.034 A 
HETATM    8  C   UNL     1       9.709  30.978  58.746  1.00  0.00     0.017 A 
HETATM    9  C   UNL     1      10.542  30.392  57.795  1.00  0.00     0.003 A 
HETATM   10  C   UNL     1      10.073  29.330  57.020  1.00  0.00     0.029 A 
BRANCH   7  11
HETATM   11  C   UNL     1       7.537  31.182  59.922  1.00  0.00     0.252 C 
HETATM   12  N   UNL     1       7.891  31.007  61.247  1.00  0.00    -0.352 N 
HETATM   13  H   UNL     1       8.652  30.381  61.478  1.00  0.00     0.163 HD
HETATM   14  O   UNL     1       6.552  31.813  59.551  1.00  0.00    -0.268 OA
BRANCH  12  15
HETATM   15  C   UNL     1       7.140  31.567  62.327  1.00  0.00     0.084 A 
HETATM   16  C   UNL     1       7.841  32.270  63.457  1.00  0.00     0.027 A 
HETATM   17  C   UNL     1       7.026  33.059  62.475  1.00  0.00     0.027 A 
ENDBRANCH  12  15
ENDBRANCH   7  11
ENDBRANCH   2   5
BRANCH   1  18
HETATM   18  C   UNL     1       7.648  25.656  55.584  1.00  0.00     0.157 A 
HETATM   19  C   UNL     1       7.813  24.248  55.440  1.00  0.00     0.029 A 
HETATM   20  C   UNL     1       8.314  23.197  56.235  1.00  0.00     0.023 A 
HETATM   21  C   UNL     1       7.337  23.956  54.168  1.00  0.00     0.063 A 
HETATM   22  C   UNL     1       8.330  21.888  55.723  1.00  0.00    -0.061 A 
HETATM   23  C   UNL     1       8.869  20.755  56.547  1.00  0.00     0.048 C 
HETATM   24  C   UNL     1       7.828  21.637  54.439  1.00  0.00     0.009 A 
HETATM   25  C   UNL     1       7.321  22.665  53.635  1.00  0.00     0.032 A 
HETATM   26  N   UNL     1       6.937  25.156  53.648  1.00  0.00    -0.277 N 
HETATM   27  H   UNL     1       6.533  25.322  52.734  1.00  0.00     0.189 HD
HETATM   28  N   UNL     1       7.125  26.209  54.465  1.00  0.00    -0.168 NA
ENDBRANCH   1  18
TORSDOF 4
ENDMDL
MODEL 3
REMARK VINA RESULT:      -9.3      4.568      7.555
REMARK  4 active torsions:
REMARK  status: ('A' for Active; 'I' for Inactive)
REMARK    1  A    between atoms: C_9  and  C_10 
REMARK       I    between atoms: C_10  and  N_11 
REMARK    2  A    between atoms: N_11  and  C_12 
REMARK    3  A    between atoms: C_14  and  C_15 
REMARK       I    between atoms: C_15  and  N_16 
REMARK    4  A    between atoms: N_16  and  C_17 
ROOT
HETATM    1  C   UNL     1       7.127  25.792  54.420  1.00  0.00     0.277 C 
HETATM    2  N   UNL     1       5.773  26.075  54.424  1.00  0.00    -0.322 N 
HETATM    3  O   UNL     1       7.978  26.338  53.725  1.00  0.00    -0.266 OA
HETATM    4  H   UNL     1       5.248  25.495  55.075  1.00  0.00     0.169 HD
ENDROOT
BRANCH   2   5
HETATM    5  C   UNL     1       5.072  27.030  53.669  1.00  0.00     0.036 A 
HETATM    6  C   UNL     1       4.973  26.998  52.275  1.00  0.00     0.046 A 
HETATM    7  C   UNL     1       4.278  28.005  51.591  1.00  0.00     0.034 A 
HETATM    8  C   UNL     1       3.637  29.021  52.309  1.00  0.00     0.017 A 
HETATM    9  C   UNL     1       3.724  29.053  53.699  1.00  0.00     0.003 A 
HETATM   10  C   UNL     1       4.447  28.067  54.373  1.00  0.00     0.029 A 
BRANCH   7  11
HETATM   11  C   UNL     1       4.186  28.028  50.105  1.00  0.00     0.252 C 
HETATM   12  N   UNL     1       3.040  27.480  49.558  1.00  0.00    -0.352 N 
HETATM   13  H   UNL     1       2.368  27.027  50.166  1.00  0.00     0.163 HD
HETATM   14  O   UNL     1       5.115  28.478  49.444  1.00  0.00    -0.268 OA
BRANCH  12  15
HETATM   15  C   UNL     1       2.820  27.399  48.148  1.00  0.00     0.084 A 
HETATM   16  C   UNL     1       2.814  26.064  47.454  1.00  0.00     0.027 A 
HETATM   17  C   UNL     1       1.534  26.830  47.615  1.00  0.00     0.027 A 
ENDBRANCH  12  15
ENDBRANCH   7  11
ENDBRANCH   2   5
BRANCH   1  18
HETATM   18  C   UNL     1       7.460  24.719  55.375  1.00  0.00     0.157 A 
HETATM   19  C   UNL     1       7.778  23.361  55.082  1.00  0.00     0.029 A 
HETATM   20  C   UNL     1       7.877  22.569  53.920  1.00  0.00     0.023 A 
HETATM   21  C   UNL     1       8.023  22.772  56.316  1.00  0.00     0.063 A 
HETATM   22  C   UNL     1       8.211  21.208  54.036  1.00  0.00    -0.061 A 
HETATM   23  C   UNL     1       8.313  20.343  52.812  1.00  0.00     0.048 C 
HETATM   24  C   UNL     1       8.464  20.659  55.299  1.00  0.00     0.009 A 
HETATM   25  C   UNL     1       8.375  21.428  56.465  1.00  0.00     0.032 A 
HETATM   26  N   UNL     1       7.843  23.768  57.234  1.00  0.00    -0.277 N 
HETATM   27  H   UNL     1       7.942  23.698  58.240  1.00  0.00     0.189 HD
HETATM   28  N   UNL     1       7.484  24.954  56.708  1.00  0.00    -0.168 NA
ENDBRANCH   1  18
TORSDOF 4
ENDMDL
MODEL 4
REMARK VINA RESULT:      -9.2      4.654     11.865
REMARK  4 active torsions:
REMARK  status: ('A' for Active; 'I' for Inactive)
REMARK    1  A    between atoms: C_9  and  C_10 
REMARK       I    between atoms: C_10  and  N_11 
REMARK    2  A    between atoms: N_11  and  C_12 
REMARK    3  A    between atoms: C_14  and  C_15 
REMARK       I    between atoms: C_15  and  N_16 
REMARK    4  A    between atoms: N_16  and  C_17 
ROOT
HETATM    1  C   UNL     1       5.228  32.282  63.330  1.00  0.00     0.277 C 
HETATM    2  N   UNL     1       6.256  32.849  62.598  1.00  0.00    -0.322 N 
HETATM    3  O   UNL     1       4.963  31.085  63.397  1.00  0.00    -0.266 OA
HETATM    4  H   UNL     1       6.289  33.863  62.680  1.00  0.00     0.169 HD
ENDROOT
BRANCH   2   5
HETATM    5  C   UNL     1       7.216  32.215  61.793  1.00  0.00     0.036 A 
HETATM    6  C   UNL     1       6.930  31.631  60.556  1.00  0.00     0.046 A 
HETATM    7  C   UNL     1       7.940  30.992  59.824  1.00  0.00     0.034 A 
HETATM    8  C   UNL     1       9.253  30.979  60.310  1.00  0.00     0.017 A 
HETATM    9  C   UNL     1       9.546  31.568  61.539  1.00  0.00     0.003 A 
HETATM   10  C   UNL     1       8.529  32.174  62.280  1.00  0.00     0.029 A 
BRANCH   7  11
HETATM   11  C   UNL     1       7.666  30.323  58.522  1.00  0.00     0.252 C 
HETATM   12  N   UNL     1       8.264  29.090  58.335  1.00  0.00    -0.352 N 
HETATM   13  H   UNL     1       8.908  28.740  59.034  1.00  0.00     0.163 HD
HETATM   14  O   UNL     1       6.980  30.889  57.679  1.00  0.00    -0.268 OA
BRANCH  12  15
HETATM   15  C   UNL     1       8.123  28.340  57.126  1.00  0.00     0.084 A 
HETATM   16  C   UNL     1       8.247  26.840  57.143  1.00  0.00     0.027 A 
HETATM   17  C   UNL     1       6.909  27.479  56.909  1.00  0.00     0.027 A 
ENDBRANCH  12  15
ENDBRANCH   7  11
ENDBRANCH   2   5
BRANCH   1  18
HETATM   18  C   UNL     1       4.446  33.303  64.052  1.00  0.00     0.157 A 
HETATM   19  C   UNL     1       4.778  33.943  65.282  1.00  0.00     0.029 A 
HETATM   20  C   UNL     1       5.835  33.871  66.211  1.00  0.00     0.023 A 
HETATM   21  C   UNL     1       3.731  34.823  65.526  1.00  0.00     0.063 A 
HETATM   22  C   UNL     1       5.802  34.679  67.361  1.00  0.00    -0.061 A 
HETATM   23  C   UNL     1       6.912  34.612  68.370  1.00  0.00     0.048 C 
HETATM   24  C   UNL     1       4.733  35.562  67.561  1.00  0.00     0.009 A 
HETATM   25  C   UNL     1       3.675  35.653  66.648  1.00  0.00     0.032 A 
HETATM   26  N   UNL     1       2.871  34.661  64.475  1.00  0.00    -0.277 N 
HETATM   27  H   UNL     1       1.995  35.148  64.321  1.00  0.00     0.189 HD
HETATM   28  N   UNL     1       3.258  33.739  63.573  1.00  0.00    -0.168 NA
ENDBRANCH   1  18
TORSDOF 4
ENDMDL
MODEL 5
REMARK VINA RESULT:      -9.2      2.146      3.188
REMARK  4 active torsions:
REMARK  status: ('A' for Active; 'I' for Inactive)
REMARK    1  A    between atoms: C_9  and  C_10 
REMARK       I    between atoms: C_10  and  N_11 
REMARK    2  A    between atoms: N_11  and  C_12 
REMARK    3  A    between atoms: C_14  and  C_15 
REMARK       I    between atoms: C_15  and  N_16 
REMARK    4  A    between atoms: N_16  and  C_17 
ROOT
HETATM    1  C   UNL     1       6.386  27.945  56.306  1.00  0.00     0.277 C 
HETATM    2  N   UNL     1       7.426  28.767  55.912  1.00  0.00    -0.322 N 
HETATM    3  O   UNL     1       6.079  27.671  57.462  1.00  0.00    -0.266 OA
HETATM    4  H   UNL     1       7.505  28.850  54.901  1.00  0.00     0.169 HD
ENDROOT
BRANCH   2   5
HETATM    5  C   UNL     1       8.343  29.469  56.712  1.00  0.00     0.036 A 
HETATM    6  C   UNL     1       7.976  30.253  57.808  1.00  0.00     0.046 A 
HETATM    7  C   UNL     1       8.951  30.946  58.541  1.00  0.00     0.034 A 
HETATM    8  C   UNL     1      10.302  30.814  58.203  1.00  0.00     0.017 A 
HETATM    9  C   UNL     1      10.675  30.025  57.117  1.00  0.00     0.003 A 
HETATM   10  C   UNL     1       9.698  29.365  56.370  1.00  0.00     0.029 A 
BRANCH   7  11
HETATM   11  C   UNL     1       8.596  31.825  59.690  1.00  0.00     0.252 C 
HETATM   12  N   UNL     1       7.555  31.389  60.489  1.00  0.00    -0.352 N 
HETATM   13  H   UNL     1       7.040  30.558  60.224  1.00  0.00     0.163 HD
HETATM   14  O   UNL     1       9.190  32.885  59.853  1.00  0.00    -0.268 OA
BRANCH  12  15
HETATM   15  C   UNL     1       7.077  32.137  61.609  1.00  0.00     0.084 A 
HETATM   16  C   UNL     1       6.379  31.442  62.747  1.00  0.00     0.027 A 
HETATM   17  C   UNL     1       7.753  32.011  62.947  1.00  0.00     0.027 A 
ENDBRANCH  12  15
ENDBRANCH   7  11
ENDBRANCH   2   5
BRANCH   1  18
HETATM   18  C   UNL     1       5.650  27.406  55.147  1.00  0.00     0.157 A 
HETATM   19  C   UNL     1       5.980  26.262  54.363  1.00  0.00     0.029 A 
HETATM   20  C   UNL     1       7.013  25.304  54.349  1.00  0.00     0.023 A 
HETATM   21  C   UNL     1       4.973  26.175  53.409  1.00  0.00     0.063 A 
HETATM   22  C   UNL     1       7.007  24.293  53.372  1.00  0.00    -0.061 A 
HETATM   23  C   UNL     1       8.103  23.267  53.332  1.00  0.00     0.048 C 
HETATM   24  C   UNL     1       5.965  24.235  52.438  1.00  0.00     0.009 A 
HETATM   25  C   UNL     1       4.927  25.173  52.436  1.00  0.00     0.032 A 
HETATM   26  N   UNL     1       4.139  27.228  53.667  1.00  0.00    -0.277 N 
HETATM   27  H   UNL     1       3.293  27.473  53.167  1.00  0.00     0.189 HD
HETATM   28  N   UNL     1       4.523  28.005  54.696  1.00  0.00    -0.168 NA
ENDBRANCH   1  18
TORSDOF 4
ENDMDL
MODEL 6
REMARK VINA RESULT:      -8.9      5.795      8.968
REMARK  4 active torsions:
REMARK  status: ('A' for Active; 'I' for Inactive)
REMARK    1  A    between atoms: C_9  and  C_10 
REMARK       I    between atoms: C_10  and  N_11 
REMARK    2  A    between atoms: N_11  and  C_12 
REMARK    3  A    between atoms: C_14  and  C_15 
REMARK       I    between atoms: C_15  and  N_16 
REMARK    4  A    between atoms: N_16  and  C_17 
ROOT
HETATM    1  C   UNL     1       4.698  26.684  50.100  1.00  0.00     0.277 C 
HETATM    2  N   UNL     1       4.472  25.711  51.057  1.00  0.00    -0.322 N 
HETATM    3  O   UNL     1       5.555  27.560  50.148  1.00  0.00    -0.266 OA
HETATM    4  H   UNL     1       3.704  25.088  50.817  1.00  0.00     0.169 HD
ENDROOT
BRANCH   2   5
HETATM    5  C   UNL     1       5.151  25.494  52.267  1.00  0.00     0.036 A 
HETATM    6  C   UNL     1       6.083  24.471  52.462  1.00  0.00     0.046 A 
HETATM    7  C   UNL     1       6.699  24.303  53.710  1.00  0.00     0.034 A 
HETATM    8  C   UNL     1       6.417  25.193  54.753  1.00  0.00     0.017 A 
HETATM    9  C   UNL     1       5.497  26.221  54.561  1.00  0.00     0.003 A 
HETATM   10  C   UNL     1       4.860  26.363  53.327  1.00  0.00     0.029 A 
BRANCH   7  11
HETATM   11  C   UNL     1       7.666  23.200  53.969  1.00  0.00     0.252 C 
HETATM   12  N   UNL     1       7.759  22.769  55.280  1.00  0.00    -0.352 N 
HETATM   13  H   UNL     1       7.243  23.259  56.001  1.00  0.00     0.163 HD
HETATM   14  O   UNL     1       8.349  22.760  53.051  1.00  0.00    -0.268 OA
BRANCH  12  15
HETATM   15  C   UNL     1       8.664  21.742  55.692  1.00  0.00     0.084 A 
HETATM   16  C   UNL     1       8.402  20.956  56.948  1.00  0.00     0.027 A 
HETATM   17  C   UNL     1       8.256  20.297  55.608  1.00  0.00     0.027 A 
ENDBRANCH  12  15
ENDBRANCH   7  11
ENDBRANCH   2   5
BRANCH   1  18
HETATM   18  C   UNL     1       3.764  26.558  48.965  1.00  0.00     0.157 A 
HETATM   19  C   UNL     1       2.783  27.499  48.538  1.00  0.00     0.029 A 
HETATM   20  C   UNL     1       2.335  28.765  48.966  1.00  0.00     0.023 A 
HETATM   21  C   UNL     1       2.181  26.916  47.430  1.00  0.00     0.063 A 
HETATM   22  C   UNL     1       1.292  29.402  48.273  1.00  0.00    -0.061 A 
HETATM   23  C   UNL     1       0.792  30.747  48.717  1.00  0.00     0.048 C 
HETATM   24  C   UNL     1       0.722  28.784  47.152  1.00  0.00     0.009 A 
HETATM   25  C   UNL     1       1.154  27.529  46.707  1.00  0.00     0.032 A 
HETATM   26  N   UNL     1       2.808  25.712  47.269  1.00  0.00    -0.277 N 
HETATM   27  H   UNL     1       2.626  25.019  46.553  1.00  0.00     0.189 HD
HETATM   28  N   UNL     1       3.757  25.450  48.187  1.00  0.00    -0.168 NA
ENDBRANCH   1  18
TORSDOF 4
ENDMDL
MODEL 7
REMARK VINA RESULT:      -8.7      4.501      8.199
REMARK  4 active torsions:
REMARK  status: ('A' for Active; 'I' for Inactive)
REMARK    1  A    between atoms: C_9  and  C_10 
REMARK       I    between atoms: C_10  and  N_11 
REMARK    2  A    between atoms: N_11  and  C_12 
REMARK    3  A    between atoms: C_14  and  C_15 
REMARK       I    between atoms: C_15  and  N_16 
REMARK    4  A    between atoms: N_16  and  C_17 
ROOT
HETATM    1  C   UNL     1       5.267  27.703  53.048  1.00  0.00     0.277 C 
HETATM    2  N   UNL     1       4.861  26.707  53.917  1.00  0.00    -0.322 N 
HETATM    3  O   UNL     1       6.397  28.175  52.966  1.00  0.00    -0.266 OA
HETATM    4  H   UNL     1       3.876  26.472  53.820  1.00  0.00     0.169 HD
ENDROOT
BRANCH   2   5
HETATM    5  C   UNL     1       5.619  26.014  54.875  1.00  0.00     0.036 A 
HETATM    6  C   UNL     1       6.556  25.027  54.560  1.00  0.00     0.046 A 
HETATM    7  C   UNL     1       7.254  24.361  55.577  1.00  0.00     0.034 A 
HETATM    8  C   UNL     1       7.047  24.719  56.914  1.00  0.00     0.017 A 
HETATM    9  C   UNL     1       6.121  25.709  57.235  1.00  0.00     0.003 A 
HETATM   10  C   UNL     1       5.404  26.346  56.220  1.00  0.00     0.029 A 
BRANCH   7  11
HETATM   11  C   UNL     1       8.230  23.276  55.283  1.00  0.00     0.252 C 
HETATM   12  N   UNL     1       8.042  22.595  54.094  1.00  0.00    -0.352 N 
HETATM   13  H   UNL     1       7.227  22.802  53.529  1.00  0.00     0.163 HD
HETATM   14  O   UNL     1       9.107  23.008  56.097  1.00  0.00    -0.268 OA
BRANCH  12  15
HETATM   15  C   UNL     1       8.875  21.508  53.687  1.00  0.00     0.084 A 
HETATM   16  C   UNL     1       8.617  20.117  54.201  1.00  0.00     0.027 A 
HETATM   17  C   UNL     1       8.339  20.448  52.764  1.00  0.00     0.027 A 
ENDBRANCH  12  15
ENDBRANCH   7  11
ENDBRANCH   2   5
BRANCH   1  18
HETATM   18  C   UNL     1       4.158  28.162  52.190  1.00  0.00     0.157 A 
HETATM   19  C   UNL     1       4.129  28.228  50.767  1.00  0.00     0.029 A 
HETATM   20  C   UNL     1       5.025  27.942  49.718  1.00  0.00     0.023 A 
HETATM   21  C   UNL     1       2.865  28.712  50.453  1.00  0.00     0.063 A 
HETATM   22  C   UNL     1       4.627  28.159  48.388  1.00  0.00    -0.061 A 
HETATM   23  C   UNL     1       5.570  27.870  47.255  1.00  0.00     0.048 C 
HETATM   24  C   UNL     1       3.339  28.636  48.116  1.00  0.00     0.009 A 
HETATM   25  C   UNL     1       2.431  28.923  49.142  1.00  0.00     0.032 A 
HETATM   26  N   UNL     1       2.242  28.902  51.656  1.00  0.00    -0.277 N 
HETATM   27  H   UNL     1       1.301  29.245  51.809  1.00  0.00     0.189 HD
HETATM   28  N   UNL     1       2.995  28.599  52.729  1.00  0.00    -0.168 NA
ENDBRANCH   1  18
TORSDOF 4
ENDMDL
MODEL 8
REMARK VINA RESULT:      -8.6      4.897      8.293
REMARK  4 active torsions:
REMARK  status: ('A' for Active; 'I' for Inactive)
REMARK    1  A    between atoms: C_9  and  C_10 
REMARK       I    between atoms: C_10  and  N_11 
REMARK    2  A    between atoms: N_11  and  C_12 
REMARK    3  A    between atoms: C_14  and  C_15 
REMARK       I    between atoms: C_15  and  N_16 
REMARK    4  A    between atoms: N_16  and  C_17 
ROOT
HETATM    1  C   UNL     1       7.517  32.095  60.234  1.00  0.00     0.277 C 
HETATM    2  N   UNL     1       8.058  32.651  61.380  1.00  0.00    -0.322 N 
HETATM    3  O   UNL     1       6.321  31.989  59.977  1.00  0.00    -0.266 OA
HETATM    4  H   UNL     1       9.075  32.630  61.389  1.00  0.00     0.169 HD
ENDROOT
BRANCH   2   5
HETATM    5  C   UNL     1       7.393  33.215  62.481  1.00  0.00     0.036 A 
HETATM    6  C   UNL     1       6.361  34.150  62.370  1.00  0.00     0.046 A 
HETATM    7  C   UNL     1       5.765  34.688  63.519  1.00  0.00     0.034 A 
HETATM    8  C   UNL     1       6.174  34.253  64.785  1.00  0.00     0.017 A 
HETATM    9  C   UNL     1       7.196  33.314  64.902  1.00  0.00     0.003 A 
HETATM   10  C   UNL     1       7.809  32.806  63.755  1.00  0.00     0.029 A 
BRANCH   7  11
HETATM   11  C   UNL     1       4.691  35.717  63.442  1.00  0.00     0.252 C 
HETATM   12  N   UNL     1       4.590  36.401  62.245  1.00  0.00    -0.352 N 
HETATM   13  H   UNL     1       5.279  36.238  61.521  1.00  0.00     0.163 HD
HETATM   14  O   UNL     1       3.989  35.940  64.423  1.00  0.00    -0.268 OA
BRANCH  12  15
HETATM   15  C   UNL     1       3.631  37.439  62.028  1.00  0.00     0.084 A 
HETATM   16  C   UNL     1       3.990  38.646  61.204  1.00  0.00     0.027 A 
HETATM   17  C   UNL     1       3.022  37.633  60.667  1.00  0.00     0.027 A 
ENDBRANCH  12  15
ENDBRANCH   7  11
ENDBRANCH   2   5
BRANCH   1  18
HETATM   18  C   UNL     1       8.566  31.621  59.312  1.00  0.00     0.157 A 
HETATM   19  C   UNL     1       8.582  30.410  58.562  1.00  0.00     0.029 A 
HETATM   20  C   UNL     1       7.732  29.295  58.414  1.00  0.00     0.023 A 
HETATM   21  C   UNL     1       9.773  30.443  57.847  1.00  0.00     0.063 A 
HETATM   22  C   UNL     1       8.110  28.245  57.560  1.00  0.00    -0.061 A 
HETATM   23  C   UNL     1       7.225  27.043  57.395  1.00  0.00     0.048 C 
HETATM   24  C   UNL     1       9.314  28.325  56.849  1.00  0.00     0.009 A 
HETATM   25  C   UNL     1      10.171  29.424  56.977  1.00  0.00     0.032 A 
HETATM   26  N   UNL     1      10.374  31.619  58.200  1.00  0.00    -0.277 N 
HETATM   27  H   UNL     1      11.263  31.975  57.868  1.00  0.00     0.189 HD
HETATM   28  N   UNL     1       9.686  32.350  59.097  1.00  0.00    -0.168 NA
ENDBRANCH   1  18
TORSDOF 4
ENDMDL
MODEL 9
REMARK VINA RESULT:      -8.6      2.254     10.152
REMARK  4 active torsions:
REMARK  status: ('A' for Active; 'I' for Inactive)
REMARK    1  A    between atoms: C_9  and  C_10 
REMARK       I    between atoms: C_10  and  N_11 
REMARK    2  A    between atoms: N_11  and  C_12 
REMARK    3  A    between atoms: C_14  and  C_15 
REMARK       I    between atoms: C_15  and  N_16 
REMARK    4  A    between atoms: N_16  and  C_17 
ROOT
HETATM    1  C   UNL     1       7.673  31.314  59.768  1.00  0.00     0.277 C 
HETATM    2  N   UNL     1       8.092  30.043  59.418  1.00  0.00    -0.322 N 
HETATM    3  O   UNL     1       7.237  32.168  59.003  1.00  0.00    -0.266 OA
HETATM    4  H   UNL     1       8.424  29.501  60.212  1.00  0.00     0.169 HD
ENDROOT
BRANCH   2   5
HETATM    5  C   UNL     1       8.109  29.442  58.149  1.00  0.00     0.036 A 
HETATM    6  C   UNL     1       7.242  28.417  57.761  1.00  0.00     0.046 A 
HETATM    7  C   UNL     1       7.341  27.850  56.483  1.00  0.00     0.034 A 
HETATM    8  C   UNL     1       8.281  28.345  55.572  1.00  0.00     0.017 A 
HETATM    9  C   UNL     1       9.142  29.373  55.949  1.00  0.00     0.003 A 
HETATM   10  C   UNL     1       9.062  29.911  57.234  1.00  0.00     0.029 A 
BRANCH   7  11
HETATM   11  C   UNL     1       6.463  26.729  56.048  1.00  0.00     0.252 C 
HETATM   12  N   UNL     1       7.035  25.806  55.192  1.00  0.00    -0.352 N 
HETATM   13  H   UNL     1       7.971  25.967  54.843  1.00  0.00     0.163 HD
HETATM   14  O   UNL     1       5.295  26.691  56.419  1.00  0.00    -0.268 OA
BRANCH  12  15
HETATM   15  C   UNL     1       6.311  24.692  54.663  1.00  0.00     0.084 A 
HETATM   16  C   UNL     1       6.423  24.336  53.205  1.00  0.00     0.027 A 
HETATM   17  C   UNL     1       7.041  23.446  54.244  1.00  0.00     0.027 A 
ENDBRANCH  12  15
ENDBRANCH   7  11
ENDBRANCH   2   5
BRANCH   1  18
HETATM   18  C   UNL     1       7.809  31.550  61.218  1.00  0.00     0.157 A 
HETATM   19  C   UNL     1       7.234  32.606  61.984  1.00  0.00     0.029 A 
HETATM   20  C   UNL     1       6.420  33.726  61.721  1.00  0.00     0.023 A 
HETATM   21  C   UNL     1       7.651  32.373  63.289  1.00  0.00     0.063 A 
HETATM   22  C   UNL     1       6.059  34.582  62.775  1.00  0.00    -0.061 A 
HETATM   23  C   UNL     1       5.201  35.788  62.516  1.00  0.00     0.048 C 
HETATM   24  C   UNL     1       6.490  34.303  64.078  1.00  0.00     0.009 A 
HETATM   25  C   UNL     1       7.295  33.194  64.363  1.00  0.00     0.032 A 
HETATM   26  N   UNL     1       8.419  31.244  63.227  1.00  0.00    -0.277 N 
HETATM   27  H   UNL     1       8.888  30.781  63.998  1.00  0.00     0.189 HD
HETATM   28  N   UNL     1       8.555  30.728  61.992  1.00  0.00    -0.168 NA
ENDBRANCH   1  18
TORSDOF 4
ENDMDL
MODEL 10
REMARK VINA RESULT:      -8.4      3.253     10.365
REMARK  4 active torsions:
REMARK  status: ('A' for Active; 'I' for Inactive)
REMARK    1  A    between atoms: C_9  and  C_10 
REMARK       I    between atoms: C_10  and  N_11 
REMARK    2  A    between atoms: N_11  and  C_12 
REMARK    3  A    between atoms: C_14  and  C_15 
REMARK       I    between atoms: C_15  and  N_16 
REMARK    4  A    between atoms: N_16  and  C_17 
ROOT
HETATM    1  C   UNL     1       7.523  32.186  60.585  1.00  0.00     0.277 C 
HETATM    2  N   UNL     1       8.490  31.213  60.409  1.00  0.00    -0.322 N 
HETATM    3  O   UNL     1       6.855  32.710  59.698  1.00  0.00    -0.266 OA
HETATM    4  H   UNL     1       8.926  30.925  61.282  1.00  0.00     0.169 HD
ENDROOT
BRANCH   2   5
HETATM    5  C   UNL     1       8.918  30.604  59.218  1.00  0.00     0.036 A 
HETATM    6  C   UNL     1       8.344  29.447  58.687  1.00  0.00     0.046 A 
HETATM    7  C   UNL     1       8.847  28.884  57.505  1.00  0.00     0.034 A 
HETATM    8  C   UNL     1       9.899  29.511  56.827  1.00  0.00     0.017 A 
HETATM    9  C   UNL     1      10.469  30.671  57.347  1.00  0.00     0.003 A 
HETATM   10  C   UNL     1       9.987  31.208  58.542  1.00  0.00     0.029 A 
BRANCH   7  11
HETATM   11  C   UNL     1       8.289  27.629  56.931  1.00  0.00     0.252 C 
HETATM   12  N   UNL     1       7.837  27.706  55.626  1.00  0.00    -0.352 N 
HETATM   13  H   UNL     1       7.830  28.603  55.156  1.00  0.00     0.163 HD
HETATM   14  O   UNL     1       8.215  26.621  57.625  1.00  0.00    -0.268 OA
BRANCH  12  15
HETATM   15  C   UNL     1       7.246  26.595  54.947  1.00  0.00     0.084 A 
HETATM   16  C   UNL     1       5.916  26.745  54.259  1.00  0.00     0.027 A 
HETATM   17  C   UNL     1       7.167  26.582  53.446  1.00  0.00     0.027 A 
ENDBRANCH  12  15
ENDBRANCH   7  11
ENDBRANCH   2   5
BRANCH   1  18
HETATM   18  C   UNL     1       7.369  32.549  62.006  1.00  0.00     0.157 A 
HETATM   19  C   UNL     1       6.192  33.016  62.661  1.00  0.00     0.029 A 
HETATM   20  C   UNL     1       4.867  33.308  62.283  1.00  0.00     0.023 A 
HETATM   21  C   UNL     1       6.566  33.201  63.987  1.00  0.00     0.063 A 
HETATM   22  C   UNL     1       3.960  33.785  63.245  1.00  0.00    -0.061 A 
HETATM   23  C   UNL     1       2.545  34.112  62.862  1.00  0.00     0.048 C 
HETATM   24  C   UNL     1       4.375  33.943  64.573  1.00  0.00     0.009 A 
HETATM   25  C   UNL     1       5.686  33.655  64.973  1.00  0.00     0.032 A 
HETATM   26  N   UNL     1       7.886  32.851  64.042  1.00  0.00    -0.277 N 
HETATM   27  H   UNL     1       8.487  32.860  64.858  1.00  0.00     0.189 HD
HETATM   28  N   UNL     1       8.413  32.470  62.864  1.00  0.00    -0.168 NA
ENDBRANCH   1  18
TORSDOF 4
ENDMDL
