MODEL 1
REMARK VINA RESULT:      -9.6      0.000      0.000
REMARK  9 active torsions:
REMARK  status: ('A' for Active; 'I' for Inactive)
REMARK    1  A    between atoms: C_3  and  N_4 
REMARK       I    between atoms: N_4  and  C_5 
REMARK    2  A    between atoms: C_5  and  C_6 
REMARK    3  A    between atoms: C_6  and  O_7 
REMARK    4  A    between atoms: O_7  and  C_8 
REMARK    5  A    between atoms: C_8  and  C_9 
REMARK    6  A    between atoms: C_9  and  N_10 
REMARK    7  A    between atoms: C_9  and  C_18 
REMARK       I    between atoms: N_10  and  C_11 
REMARK    8  A    between atoms: C_11  and  C_12 
REMARK    9  A    between atoms: C_18  and  C_19 
ROOT
HETATM    1  C   UNL     1       6.239  25.144  54.070  1.00  0.00     0.189 C 
ENDROOT
BRANCH   1   2
HETATM    2  C   UNL     1       6.287  25.862  55.428  1.00  0.00     0.282 C 
HETATM    3  O   UNL     1       5.351  25.930  56.221  1.00  0.00    -0.263 OA
BRANCH   2   4
HETATM    4  O   UNL     1       7.516  26.396  55.656  1.00  0.00    -0.311 OA
BRANCH   4   5
HETATM    5  C   UNL     1       7.585  27.818  55.724  1.00  0.00     0.281 C 
BRANCH   5   6
HETATM    6  C   UNL     1       7.718  28.454  57.121  1.00  0.00     0.246 C 
HETATM    7  N   UNL     1       7.822  29.834  57.080  1.00  0.00    -0.324 N 
HETATM    8  H   UNL     1       7.971  30.223  56.150  1.00  0.00     0.169 HD
HETATM    9  O   UNL     1       7.830  27.750  58.121  1.00  0.00    -0.271 OA
BRANCH   7  10
HETATM   10  C   UNL     1       8.065  30.707  58.164  1.00  0.00     0.046 A 
HETATM   11  C   UNL     1       9.421  30.971  58.486  1.00  0.00    -0.035 A 
HETATM   12  C   UNL     1      10.563  30.318  57.752  1.00  0.00     0.050 C 
HETATM   13  C   UNL     1       9.730  31.839  59.546  1.00  0.00     0.009 A 
HETATM   14  C   UNL     1       8.719  32.441  60.284  1.00  0.00     0.001 A 
HETATM   15  C   UNL     1       7.389  32.204  59.953  1.00  0.00     0.009 A 
HETATM   16  C   UNL     1       7.041  31.364  58.878  1.00  0.00    -0.035 A 
HETATM   17  C   UNL     1       5.579  31.279  58.534  1.00  0.00     0.050 C 
ENDBRANCH   7  10
ENDBRANCH   5   6
ENDBRANCH   4   5
ENDBRANCH   2   4
ENDBRANCH   1   2
BRANCH   1  18
HETATM   18  N   UNL     1       5.826  26.066  53.015  1.00  0.00    -0.341 N 
HETATM   19  C   UNL     1       5.116  25.610  51.921  1.00  0.00     0.276 C 
HETATM   20  O   UNL     1       4.611  24.492  51.894  1.00  0.00    -0.265 OA
HETATM   21  H   UNL     1       6.339  26.931  52.879  1.00  0.00     0.163 HD
BRANCH  19  22
HETATM   22  C   UNL     1       5.060  26.537  50.812  1.00  0.00     0.142 A 
HETATM   23  O   UNL     1       5.487  27.829  50.984  1.00  0.00    -0.317 OA
HETATM   24  C   UNL     1       5.356  28.455  49.785  1.00  0.00     0.143 A 
HETATM   25  C   UNL     1       4.849  27.594  48.842  1.00  0.00     0.027 A 
HETATM   26  C   UNL     1       4.658  26.357  49.501  1.00  0.00     0.045 A 
ENDBRANCH  19  22
ENDBRANCH   1  18
BRANCH   1  27
HETATM   27  C   UNL     1       7.645  24.567  53.812  1.00  0.00     0.074 C 
BRANCH  27  28
HETATM   28  C   UNL     1       7.798  23.072  53.997  1.00  0.00    -0.056 A 
HETATM   29  C   UNL     1       7.719  22.530  55.289  1.00  0.00     0.007 A 
HETATM   30  C   UNL     1       7.819  21.153  55.493  1.00  0.00     0.001 A 
HETATM   31  C   UNL     1       7.992  20.300  54.408  1.00  0.00     0.000 A 
HETATM   32  C   UNL     1       8.059  20.823  53.118  1.00  0.00     0.001 A 
HETATM   33  C   UNL     1       7.955  22.201  52.911  1.00  0.00     0.007 A 
ENDBRANCH  27  28
ENDBRANCH   1  27
TORSDOF 9
ENDMDL
MODEL 2
REMARK VINA RESULT:      -9.4      1.812      7.370
REMARK  9 active torsions:
REMARK  status: ('A' for Active; 'I' for Inactive)
REMARK    1  A    between atoms: C_3  and  N_4 
REMARK       I    between atoms: N_4  and  C_5 
REMARK    2  A    between atoms: C_5  and  C_6 
REMARK    3  A    between atoms: C_6  and  O_7 
REMARK    4  A    between atoms: O_7  and  C_8 
REMARK    5  A    between atoms: C_8  and  C_9 
REMARK    6  A    between atoms: C_9  and  N_10 
REMARK    7  A    between atoms: C_9  and  C_18 
REMARK       I    between atoms: N_10  and  C_11 
REMARK    8  A    between atoms: C_11  and  C_12 
REMARK    9  A    between atoms: C_18  and  C_19 
ROOT
HETATM    1  C   UNL     1       7.224  25.767  55.458  1.00  0.00     0.189 C 
ENDROOT
BRANCH   1   2
HETATM    2  C   UNL     1       5.688  25.724  55.518  1.00  0.00     0.282 C 
HETATM    3  O   UNL     1       5.034  25.247  56.441  1.00  0.00    -0.263 OA
BRANCH   2   4
HETATM    4  O   UNL     1       5.139  26.309  54.421  1.00  0.00    -0.311 OA
BRANCH   4   5
HETATM    5  C   UNL     1       4.976  25.477  53.275  1.00  0.00     0.281 C 
BRANCH   5   6
HETATM    6  C   UNL     1       5.448  26.038  51.920  1.00  0.00     0.246 C 
HETATM    7  N   UNL     1       4.496  26.828  51.300  1.00  0.00    -0.324 N 
HETATM    8  H   UNL     1       3.570  26.793  51.723  1.00  0.00     0.169 HD
HETATM    9  O   UNL     1       6.524  25.691  51.440  1.00  0.00    -0.271 OA
BRANCH   7  10
HETATM   10  C   UNL     1       4.565  27.400  50.009  1.00  0.00     0.046 A 
HETATM   11  C   UNL     1       5.124  28.700  49.910  1.00  0.00    -0.035 A 
HETATM   12  C   UNL     1       5.579  29.473  51.121  1.00  0.00     0.050 C 
HETATM   13  C   UNL     1       5.231  29.320  48.655  1.00  0.00     0.009 A 
HETATM   14  C   UNL     1       4.793  28.671  47.507  1.00  0.00     0.001 A 
HETATM   15  C   UNL     1       4.269  27.387  47.599  1.00  0.00     0.009 A 
HETATM   16  C   UNL     1       4.173  26.722  48.836  1.00  0.00    -0.035 A 
HETATM   17  C   UNL     1       3.707  25.292  48.800  1.00  0.00     0.050 C 
ENDBRANCH   7  10
ENDBRANCH   5   6
ENDBRANCH   4   5
ENDBRANCH   2   4
ENDBRANCH   1   2
BRANCH   1  18
HETATM   18  N   UNL     1       7.733  26.933  56.175  1.00  0.00    -0.341 N 
HETATM   19  C   UNL     1       8.114  28.070  55.488  1.00  0.00     0.276 C 
HETATM   20  O   UNL     1       7.834  28.238  54.305  1.00  0.00    -0.265 OA
HETATM   21  H   UNL     1       8.148  26.814  57.093  1.00  0.00     0.163 HD
BRANCH  19  22
HETATM   22  C   UNL     1       8.897  29.007  56.263  1.00  0.00     0.142 A 
HETATM   23  O   UNL     1       8.454  29.402  57.500  1.00  0.00    -0.317 OA
HETATM   24  C   UNL     1       9.391  30.245  58.008  1.00  0.00     0.143 A 
HETATM   25  C   UNL     1      10.429  30.407  57.122  1.00  0.00     0.027 A 
HETATM   26  C   UNL     1      10.113  29.610  55.996  1.00  0.00     0.045 A 
ENDBRANCH  19  22
ENDBRANCH   1  18
BRANCH   1  27
HETATM   27  C   UNL     1       7.739  24.448  56.066  1.00  0.00     0.074 C 
BRANCH  27  28
HETATM   28  C   UNL     1       7.822  23.266  55.123  1.00  0.00    -0.056 A 
HETATM   29  C   UNL     1       7.726  21.966  55.644  1.00  0.00     0.007 A 
HETATM   30  C   UNL     1       7.763  20.854  54.801  1.00  0.00     0.001 A 
HETATM   31  C   UNL     1       7.888  21.028  53.426  1.00  0.00     0.000 A 
HETATM   32  C   UNL     1       7.969  22.313  52.895  1.00  0.00     0.001 A 
HETATM   33  C   UNL     1       7.930  23.427  53.736  1.00  0.00     0.007 A 
ENDBRANCH  27  28
ENDBRANCH   1  27
TORSDOF 9
ENDMDL
MODEL 3
REMARK VINA RESULT:      -9.3      2.865      4.560
REMARK  9 active torsions:
REMARK  status: ('A' for Active; 'I' for Inactive)
REMARK    1  A    between atoms: C_3  and  N_4 
REMARK       I    between atoms: N_4  and  C_5 
REMARK    2  A    between atoms: C_5  and  C_6 
REMARK    3  A    between atoms: C_6  and  O_7 
REMARK    4  A    between atoms: O_7  and  C_8 
REMARK    5  A    between atoms: C_8  and  C_9 
REMARK    6  A    between atoms: C_9  and  N_10 
REMARK    7  A    between atoms: C_9  and  C_18 
REMARK       I    between atoms: N_10  and  C_11 
REMARK    8  A    between atoms: C_11  and  C_12 
REMARK    9  A    between atoms: C_18  and  C_19 
ROOT
HETATM    1  C   UNL     1       7.475  28.441  55.169  1.00  0.00     0.189 C 
ENDROOT
BRANCH   1   2
HETATM    2  C   UNL     1       8.847  29.037  55.525  1.00  0.00     0.282 C 
HETATM    3  O   UNL     1       9.680  29.421  54.709  1.00  0.00    -0.263 OA
BRANCH   2   4
HETATM    4  O   UNL     1       9.012  29.112  56.872  1.00  0.00    -0.311 OA
BRANCH   4   5
HETATM    5  C   UNL     1      10.067  29.952  57.334  1.00  0.00     0.281 C 
BRANCH   5   6
HETATM    6  C   UNL     1       9.739  30.941  58.469  1.00  0.00     0.246 C 
HETATM    7  N   UNL     1       8.682  30.525  59.260  1.00  0.00    -0.324 N 
HETATM    8  H   UNL     1       8.161  29.731  58.893  1.00  0.00     0.169 HD
HETATM    9  O   UNL     1      10.315  32.024  58.542  1.00  0.00    -0.271 OA
BRANCH   7  10
HETATM   10  C   UNL     1       8.061  31.243  60.307  1.00  0.00     0.046 A 
HETATM   11  C   UNL     1       6.887  31.970  59.981  1.00  0.00    -0.035 A 
HETATM   12  C   UNL     1       6.342  32.029  58.577  1.00  0.00     0.050 C 
HETATM   13  C   UNL     1       6.217  32.696  60.978  1.00  0.00     0.009 A 
HETATM   14  C   UNL     1       6.693  32.710  62.283  1.00  0.00     0.001 A 
HETATM   15  C   UNL     1       7.829  31.978  62.610  1.00  0.00     0.009 A 
HETATM   16  C   UNL     1       8.511  31.214  61.643  1.00  0.00    -0.035 A 
HETATM   17  C   UNL     1       9.651  30.365  62.135  1.00  0.00     0.050 C 
ENDBRANCH   7  10
ENDBRANCH   5   6
ENDBRANCH   4   5
ENDBRANCH   2   4
ENDBRANCH   1   2
BRANCH   1  18
HETATM   18  N   UNL     1       6.446  29.476  55.183  1.00  0.00    -0.341 N 
HETATM   19  C   UNL     1       5.399  29.414  56.081  1.00  0.00     0.276 C 
HETATM   20  O   UNL     1       5.406  28.642  57.036  1.00  0.00    -0.265 OA
HETATM   21  H   UNL     1       6.275  30.023  54.344  1.00  0.00     0.163 HD
BRANCH  19  22
HETATM   22  C   UNL     1       4.292  30.295  55.778  1.00  0.00     0.142 A 
HETATM   23  O   UNL     1       4.084  30.703  54.485  1.00  0.00    -0.317 OA
HETATM   24  C   UNL     1       2.971  31.483  54.488  1.00  0.00     0.143 A 
HETATM   25  C   UNL     1       2.457  31.590  55.758  1.00  0.00     0.027 A 
HETATM   26  C   UNL     1       3.307  30.825  56.591  1.00  0.00     0.045 A 
ENDBRANCH  19  22
ENDBRANCH   1  18
BRANCH   1  27
HETATM   27  C   UNL     1       7.614  27.784  53.781  1.00  0.00     0.074 C 
BRANCH  27  28
HETATM   28  C   UNL     1       7.567  26.271  53.750  1.00  0.00    -0.056 A 
HETATM   29  C   UNL     1       7.162  25.575  54.899  1.00  0.00     0.007 A 
HETATM   30  C   UNL     1       7.073  24.182  54.897  1.00  0.00     0.001 A 
HETATM   31  C   UNL     1       7.381  23.468  53.743  1.00  0.00     0.000 A 
HETATM   32  C   UNL     1       7.771  24.147  52.591  1.00  0.00     0.001 A 
HETATM   33  C   UNL     1       7.858  25.541  52.590  1.00  0.00     0.007 A 
ENDBRANCH  27  28
ENDBRANCH   1  27
TORSDOF 9
ENDMDL
MODEL 4
REMARK VINA RESULT:      -9.2      2.330      8.279
REMARK  9 active torsions:
REMARK  status: ('A' for Active; 'I' for Inactive)
REMARK    1  A    between atoms: C_3  and  N_4 
REMARK       I    between atoms: N_4  and  C_5 
REMARK    2  A    between atoms: C_5  and  C_6 
REMARK    3  A    between atoms: C_6  and  O_7 
REMARK    4  A    between atoms: O_7  and  C_8 
REMARK    5  A    between atoms: C_8  and  C_9 
REMARK    6  A    between atoms: C_9  and  N_10 
REMARK    7  A    between atoms: C_9  and  C_18 
REMARK       I    between atoms: N_10  and  C_11 
REMARK    8  A    between atoms: C_11  and  C_12 
REMARK    9  A    between atoms: C_18  and  C_19 
ROOT
HETATM    1  C   UNL     1       6.369  26.387  54.257  1.00  0.00     0.189 C 
ENDROOT
BRANCH   1   2
HETATM    2  C   UNL     1       5.131  26.948  53.539  1.00  0.00     0.282 C 
HETATM    3  O   UNL     1       4.447  27.885  53.945  1.00  0.00    -0.263 OA
BRANCH   2   4
HETATM    4  O   UNL     1       4.899  26.288  52.374  1.00  0.00    -0.311 OA
BRANCH   4   5
HETATM    5  C   UNL     1       5.678  26.694  51.251  1.00  0.00     0.281 C 
BRANCH   5   6
HETATM    6  C   UNL     1       4.958  27.476  50.136  1.00  0.00     0.246 C 
HETATM    7  N   UNL     1       3.644  27.079  49.960  1.00  0.00    -0.324 N 
HETATM    8  H   UNL     1       3.384  26.227  50.454  1.00  0.00     0.169 HD
HETATM    9  O   UNL     1       5.573  28.274  49.434  1.00  0.00    -0.271 OA
BRANCH   7  10
HETATM   10  C   UNL     1       2.746  27.511  48.957  1.00  0.00     0.046 A 
HETATM   11  C   UNL     1       2.457  26.595  47.914  1.00  0.00    -0.035 A 
HETATM   12  C   UNL     1       3.107  25.239  47.832  1.00  0.00     0.050 C 
HETATM   13  C   UNL     1       1.564  26.960  46.893  1.00  0.00     0.009 A 
HETATM   14  C   UNL     1       0.962  28.212  46.894  1.00  0.00     0.001 A 
HETATM   15  C   UNL     1       1.224  29.101  47.930  1.00  0.00     0.009 A 
HETATM   16  C   UNL     1       2.090  28.760  48.987  1.00  0.00    -0.035 A 
HETATM   17  C   UNL     1       2.203  29.750  50.113  1.00  0.00     0.050 C 
ENDBRANCH   7  10
ENDBRANCH   5   6
ENDBRANCH   4   5
ENDBRANCH   2   4
ENDBRANCH   1   2
BRANCH   1  18
HETATM   18  N   UNL     1       6.867  27.341  55.243  1.00  0.00    -0.341 N 
HETATM   19  C   UNL     1       7.883  28.219  54.921  1.00  0.00     0.276 C 
HETATM   20  O   UNL     1       8.245  28.398  53.762  1.00  0.00    -0.265 OA
HETATM   21  H   UNL     1       6.754  27.142  56.233  1.00  0.00     0.163 HD
BRANCH  19  22
HETATM   22  C   UNL     1       8.502  28.867  56.057  1.00  0.00     0.142 A 
HETATM   23  O   UNL     1       9.670  29.565  55.887  1.00  0.00    -0.317 OA
HETATM   24  C   UNL     1      10.000  30.091  57.096  1.00  0.00     0.143 A 
HETATM   25  C   UNL     1       9.070  29.742  58.046  1.00  0.00     0.027 A 
HETATM   26  C   UNL     1       8.104  28.953  57.378  1.00  0.00     0.045 A 
ENDBRANCH  19  22
ENDBRANCH   1  18
BRANCH   1  27
HETATM   27  C   UNL     1       5.951  25.052  54.906  1.00  0.00     0.074 C 
BRANCH  27  28
HETATM   28  C   UNL     1       6.802  23.848  54.563  1.00  0.00    -0.056 A 
HETATM   29  C   UNL     1       7.152  23.615  53.224  1.00  0.00     0.007 A 
HETATM   30  C   UNL     1       7.964  22.535  52.875  1.00  0.00     0.001 A 
HETATM   31  C   UNL     1       8.443  21.678  53.861  1.00  0.00     0.000 A 
HETATM   32  C   UNL     1       8.114  21.905  55.196  1.00  0.00     0.001 A 
HETATM   33  C   UNL     1       7.304  22.987  55.547  1.00  0.00     0.007 A 
ENDBRANCH  27  28
ENDBRANCH   1  27
TORSDOF 9
ENDMDL
MODEL 5
REMARK VINA RESULT:      -9.1      1.264      2.192
REMARK  9 active torsions:
REMARK  status: ('A' for Active; 'I' for Inactive)
REMARK    1  A    between atoms: C_3  and  N_4 
REMARK       I    between atoms: N_4  and  C_5 
REMARK    2  A    between atoms: C_5  and  C_6 
REMARK    3  A    between atoms: C_6  and  O_7 
REMARK    4  A    between atoms: O_7  and  C_8 
REMARK    5  A    between atoms: C_8  and  C_9 
REMARK    6  A    between atoms: C_9  and  N_10 
REMARK    7  A    between atoms: C_9  and  C_18 
REMARK       I    between atoms: N_10  and  C_11 
REMARK    8  A    between atoms: C_11  and  C_12 
REMARK    9  A    between atoms: C_18  and  C_19 
ROOT
HETATM    1  C   UNL     1       5.929  25.689  54.762  1.00  0.00     0.189 C 
ENDROOT
BRANCH   1   2
HETATM    2  C   UNL     1       5.828  26.500  56.064  1.00  0.00     0.282 C 
HETATM    3  O   UNL     1       6.586  26.387  57.024  1.00  0.00    -0.263 OA
BRANCH   2   4
HETATM    4  O   UNL     1       4.800  27.388  56.008  1.00  0.00    -0.311 OA
BRANCH   4   5
HETATM    5  C   UNL     1       4.836  28.458  56.950  1.00  0.00     0.281 C 
BRANCH   5   6
HETATM    6  C   UNL     1       6.035  29.423  56.879  1.00  0.00     0.246 C 
HETATM    7  N   UNL     1       6.819  29.395  58.019  1.00  0.00    -0.324 N 
HETATM    8  H   UNL     1       6.415  28.887  58.804  1.00  0.00     0.169 HD
HETATM    9  O   UNL     1       6.163  30.194  55.932  1.00  0.00    -0.271 OA
BRANCH   7  10
HETATM   10  C   UNL     1       7.920  30.229  58.322  1.00  0.00     0.046 A 
HETATM   11  C   UNL     1       7.689  31.295  59.229  1.00  0.00    -0.035 A 
HETATM   12  C   UNL     1       6.328  31.573  59.813  1.00  0.00     0.050 C 
HETATM   13  C   UNL     1       8.744  32.153  59.580  1.00  0.00     0.009 A 
HETATM   14  C   UNL     1      10.013  31.969  59.045  1.00  0.00     0.001 A 
HETATM   15  C   UNL     1      10.247  30.909  58.176  1.00  0.00     0.009 A 
HETATM   16  C   UNL     1       9.221  30.010  57.825  1.00  0.00    -0.035 A 
HETATM   17  C   UNL     1       9.618  28.832  56.977  1.00  0.00     0.050 C 
ENDBRANCH   7  10
ENDBRANCH   5   6
ENDBRANCH   4   5
ENDBRANCH   2   4
ENDBRANCH   1   2
BRANCH   1  18
HETATM   18  N   UNL     1       5.594  26.522  53.610  1.00  0.00    -0.341 N 
HETATM   19  C   UNL     1       5.043  25.962  52.474  1.00  0.00     0.276 C 
HETATM   20  O   UNL     1       4.603  24.816  52.462  1.00  0.00    -0.265 OA
HETATM   21  H   UNL     1       6.074  27.407  53.477  1.00  0.00     0.163 HD
BRANCH  19  22
HETATM   22  C   UNL     1       5.069  26.818  51.308  1.00  0.00     0.142 A 
HETATM   23  O   UNL     1       5.366  28.150  51.450  1.00  0.00    -0.317 OA
HETATM   24  C   UNL     1       5.353  28.695  50.205  1.00  0.00     0.143 A 
HETATM   25  C   UNL     1       5.051  27.743  49.262  1.00  0.00     0.027 A 
HETATM   26  C   UNL     1       4.867  26.532  49.970  1.00  0.00     0.045 A 
ENDBRANCH  19  22
ENDBRANCH   1  18
BRANCH   1  27
HETATM   27  C   UNL     1       7.368  25.142  54.679  1.00  0.00     0.074 C 
BRANCH  27  28
HETATM   28  C   UNL     1       7.504  23.646  54.495  1.00  0.00    -0.056 A 
HETATM   29  C   UNL     1       7.720  23.131  53.207  1.00  0.00     0.007 A 
HETATM   30  C   UNL     1       7.885  21.760  53.004  1.00  0.00     0.001 A 
HETATM   31  C   UNL     1       7.845  20.887  54.086  1.00  0.00     0.000 A 
HETATM   32  C   UNL     1       7.646  21.386  55.372  1.00  0.00     0.001 A 
HETATM   33  C   UNL     1       7.483  22.757  55.578  1.00  0.00     0.007 A 
ENDBRANCH  27  28
ENDBRANCH   1  27
TORSDOF 9
ENDMDL
MODEL 6
REMARK VINA RESULT:      -9.0      2.405      5.499
REMARK  9 active torsions:
REMARK  status: ('A' for Active; 'I' for Inactive)
REMARK    1  A    between atoms: C_3  and  N_4 
REMARK       I    between atoms: N_4  and  C_5 
REMARK    2  A    between atoms: C_5  and  C_6 
REMARK    3  A    between atoms: C_6  and  O_7 
REMARK    4  A    between atoms: O_7  and  C_8 
REMARK    5  A    between atoms: C_8  and  C_9 
REMARK    6  A    between atoms: C_9  and  N_10 
REMARK    7  A    between atoms: C_9  and  C_18 
REMARK       I    between atoms: N_10  and  C_11 
REMARK    8  A    between atoms: C_11  and  C_12 
REMARK    9  A    between atoms: C_18  and  C_19 
ROOT
HETATM    1  C   UNL     1       6.980  27.011  55.885  1.00  0.00     0.189 C 
ENDROOT
BRANCH   1   2
HETATM    2  C   UNL     1       7.486  27.403  57.282  1.00  0.00     0.282 C 
HETATM    3  O   UNL     1       7.831  26.609  58.154  1.00  0.00    -0.263 OA
BRANCH   2   4
HETATM    4  O   UNL     1       7.530  28.753  57.426  1.00  0.00    -0.311 OA
BRANCH   4   5
HETATM    5  C   UNL     1       8.821  29.330  57.606  1.00  0.00     0.281 C 
BRANCH   5   6
HETATM    6  C   UNL     1       8.962  30.430  58.675  1.00  0.00     0.246 C 
HETATM    7  N   UNL     1       8.010  30.337  59.676  1.00  0.00    -0.324 N 
HETATM    8  H   UNL     1       7.254  29.681  59.487  1.00  0.00     0.169 HD
HETATM    9  O   UNL     1       9.780  31.335  58.538  1.00  0.00    -0.271 OA
BRANCH   7  10
HETATM   10  C   UNL     1       7.791  31.245  60.737  1.00  0.00     0.046 A 
HETATM   11  C   UNL     1       6.733  32.177  60.578  1.00  0.00    -0.035 A 
HETATM   12  C   UNL     1       5.904  32.246  59.322  1.00  0.00     0.050 C 
HETATM   13  C   UNL     1       6.457  33.099  61.601  1.00  0.00     0.009 A 
HETATM   14  C   UNL     1       7.211  33.108  62.767  1.00  0.00     0.001 A 
HETATM   15  C   UNL     1       8.232  32.179  62.935  1.00  0.00     0.009 A 
HETATM   16  C   UNL     1       8.519  31.220  61.945  1.00  0.00    -0.035 A 
HETATM   17  C   UNL     1       9.559  30.188  62.285  1.00  0.00     0.050 C 
ENDBRANCH   7  10
ENDBRANCH   5   6
ENDBRANCH   4   5
ENDBRANCH   2   4
ENDBRANCH   1   2
BRANCH   1  18
HETATM   18  N   UNL     1       7.447  25.675  55.526  1.00  0.00    -0.341 N 
HETATM   19  C   UNL     1       7.550  25.298  54.201  1.00  0.00     0.276 C 
HETATM   20  O   UNL     1       7.484  26.114  53.286  1.00  0.00    -0.265 OA
HETATM   21  H   UNL     1       7.350  24.916  56.194  1.00  0.00     0.163 HD
BRANCH  19  22
HETATM   22  C   UNL     1       7.698  23.874  53.990  1.00  0.00     0.142 A 
HETATM   23  O   UNL     1       7.608  23.017  55.057  1.00  0.00    -0.317 OA
HETATM   24  C   UNL     1       7.748  21.757  54.567  1.00  0.00     0.143 A 
HETATM   25  C   UNL     1       7.930  21.783  53.205  1.00  0.00     0.027 A 
HETATM   26  C   UNL     1       7.898  23.147  52.831  1.00  0.00     0.045 A 
ENDBRANCH  19  22
ENDBRANCH   1  18
BRANCH   1  27
HETATM   27  C   UNL     1       5.441  27.095  55.919  1.00  0.00     0.074 C 
BRANCH  27  28
HETATM   28  C   UNL     1       4.810  28.150  55.037  1.00  0.00    -0.056 A 
HETATM   29  C   UNL     1       4.241  27.769  53.812  1.00  0.00     0.007 A 
HETATM   30  C   UNL     1       3.619  28.709  52.989  1.00  0.00     0.001 A 
HETATM   31  C   UNL     1       3.550  30.041  53.384  1.00  0.00     0.000 A 
HETATM   32  C   UNL     1       4.098  30.431  54.604  1.00  0.00     0.001 A 
HETATM   33  C   UNL     1       4.719  29.491  55.430  1.00  0.00     0.007 A 
ENDBRANCH  27  28
ENDBRANCH   1  27
TORSDOF 9
ENDMDL
MODEL 7
REMARK VINA RESULT:      -9.0      2.304      8.734
REMARK  9 active torsions:
REMARK  status: ('A' for Active; 'I' for Inactive)
REMARK    1  A    between atoms: C_3  and  N_4 
REMARK       I    between atoms: N_4  and  C_5 
REMARK    2  A    between atoms: C_5  and  C_6 
REMARK    3  A    between atoms: C_6  and  O_7 
REMARK    4  A    between atoms: O_7  and  C_8 
REMARK    5  A    between atoms: C_8  and  C_9 
REMARK    6  A    between atoms: C_9  and  N_10 
REMARK    7  A    between atoms: C_9  and  C_18 
REMARK       I    between atoms: N_10  and  C_11 
REMARK    8  A    between atoms: C_11  and  C_12 
REMARK    9  A    between atoms: C_18  and  C_19 
ROOT
HETATM    1  C   UNL     1       6.510  27.903  55.766  1.00  0.00     0.189 C 
ENDROOT
BRANCH   1   2
HETATM    2  C   UNL     1       7.279  27.952  54.436  1.00  0.00     0.282 C 
HETATM    3  O   UNL     1       8.332  28.558  54.254  1.00  0.00    -0.263 OA
BRANCH   2   4
HETATM    4  O   UNL     1       6.655  27.211  53.483  1.00  0.00    -0.311 OA
BRANCH   4   5
HETATM    5  C   UNL     1       7.265  25.967  53.148  1.00  0.00     0.281 C 
BRANCH   5   6
HETATM    6  C   UNL     1       7.002  24.774  54.088  1.00  0.00     0.246 C 
HETATM    7  N   UNL     1       8.118  23.978  54.277  1.00  0.00    -0.324 N 
HETATM    8  H   UNL     1       8.896  24.178  53.650  1.00  0.00     0.169 HD
HETATM    9  O   UNL     1       5.869  24.542  54.502  1.00  0.00    -0.271 OA
BRANCH   7  10
HETATM   10  C   UNL     1       8.189  22.757  54.984  1.00  0.00     0.046 A 
HETATM   11  C   UNL     1       8.139  21.565  54.216  1.00  0.00    -0.035 A 
HETATM   12  C   UNL     1       7.964  21.580  52.720  1.00  0.00     0.050 C 
HETATM   13  C   UNL     1       8.215  20.318  54.857  1.00  0.00     0.009 A 
HETATM   14  C   UNL     1       8.339  20.240  56.239  1.00  0.00     0.001 A 
HETATM   15  C   UNL     1       8.415  21.407  56.991  1.00  0.00     0.009 A 
HETATM   16  C   UNL     1       8.371  22.675  56.380  1.00  0.00    -0.035 A 
HETATM   17  C   UNL     1       8.586  23.863  57.277  1.00  0.00     0.050 C 
ENDBRANCH   7  10
ENDBRANCH   5   6
ENDBRANCH   4   5
ENDBRANCH   2   4
ENDBRANCH   1   2
BRANCH   1  18
HETATM   18  N   UNL     1       6.854  29.051  56.600  1.00  0.00    -0.341 N 
HETATM   19  C   UNL     1       7.707  28.909  57.677  1.00  0.00     0.276 C 
HETATM   20  O   UNL     1       8.382  27.897  57.841  1.00  0.00    -0.265 OA
HETATM   21  H   UNL     1       6.223  29.847  56.641  1.00  0.00     0.163 HD
BRANCH  19  22
HETATM   22  C   UNL     1       7.703  30.021  58.601  1.00  0.00     0.142 A 
HETATM   23  O   UNL     1       8.426  29.941  59.763  1.00  0.00    -0.317 OA
HETATM   24  C   UNL     1       8.270  31.125  60.412  1.00  0.00     0.143 A 
HETATM   25  C   UNL     1       7.456  31.968  59.694  1.00  0.00     0.027 A 
HETATM   26  C   UNL     1       7.089  31.258  58.526  1.00  0.00     0.045 A 
ENDBRANCH  19  22
ENDBRANCH   1  18
BRANCH   1  27
HETATM   27  C   UNL     1       5.008  27.871  55.421  1.00  0.00     0.074 C 
BRANCH  27  28
HETATM   28  C   UNL     1       4.304  29.211  55.379  1.00  0.00    -0.056 A 
HETATM   29  C   UNL     1       4.205  29.895  54.158  1.00  0.00     0.007 A 
HETATM   30  C   UNL     1       3.533  31.115  54.074  1.00  0.00     0.001 A 
HETATM   31  C   UNL     1       2.942  31.662  55.209  1.00  0.00     0.000 A 
HETATM   32  C   UNL     1       3.020  30.987  56.425  1.00  0.00     0.001 A 
HETATM   33  C   UNL     1       3.690  29.764  56.510  1.00  0.00     0.007 A 
ENDBRANCH  27  28
ENDBRANCH   1  27
TORSDOF 9
ENDMDL
MODEL 8
REMARK VINA RESULT:      -8.9      1.666      2.644
REMARK  9 active torsions:
REMARK  status: ('A' for Active; 'I' for Inactive)
REMARK    1  A    between atoms: C_3  and  N_4 
REMARK       I    between atoms: N_4  and  C_5 
REMARK    2  A    between atoms: C_5  and  C_6 
REMARK    3  A    between atoms: C_6  and  O_7 
REMARK    4  A    between atoms: O_7  and  C_8 
REMARK    5  A    between atoms: C_8  and  C_9 
REMARK    6  A    between atoms: C_9  and  N_10 
REMARK    7  A    between atoms: C_9  and  C_18 
REMARK       I    between atoms: N_10  and  C_11 
REMARK    8  A    between atoms: C_11  and  C_12 
REMARK    9  A    between atoms: C_18  and  C_19 
ROOT
HETATM    1  C   UNL     1       6.139  24.990  55.052  1.00  0.00     0.189 C 
ENDROOT
BRANCH   1   2
HETATM    2  C   UNL     1       6.090  25.307  56.555  1.00  0.00     0.282 C 
HETATM    3  O   UNL     1       5.081  25.251  57.254  1.00  0.00    -0.263 OA
BRANCH   2   4
HETATM    4  O   UNL     1       7.322  25.636  57.026  1.00  0.00    -0.311 OA
BRANCH   4   5
HETATM    5  C   UNL     1       7.418  26.863  57.746  1.00  0.00     0.281 C 
BRANCH   5   6
HETATM    6  C   UNL     1       6.992  28.149  57.012  1.00  0.00     0.246 C 
HETATM    7  N   UNL     1       6.059  28.890  57.716  1.00  0.00    -0.324 N 
HETATM    8  H   UNL     1       5.655  28.414  58.522  1.00  0.00     0.169 HD
HETATM    9  O   UNL     1       7.387  28.379  55.872  1.00  0.00    -0.271 OA
BRANCH   7  10
HETATM   10  C   UNL     1       5.385  30.054  57.282  1.00  0.00     0.046 A 
HETATM   11  C   UNL     1       5.867  31.296  57.767  1.00  0.00    -0.035 A 
HETATM   12  C   UNL     1       7.012  31.388  58.742  1.00  0.00     0.050 C 
HETATM   13  C   UNL     1       5.247  32.490  57.365  1.00  0.00     0.009 A 
HETATM   14  C   UNL     1       4.163  32.467  56.497  1.00  0.00     0.001 A 
HETATM   15  C   UNL     1       3.705  31.251  56.000  1.00  0.00     0.009 A 
HETATM   16  C   UNL     1       4.320  30.036  56.357  1.00  0.00    -0.035 A 
HETATM   17  C   UNL     1       3.821  28.798  55.664  1.00  0.00     0.050 C 
ENDBRANCH   7  10
ENDBRANCH   5   6
ENDBRANCH   4   5
ENDBRANCH   2   4
ENDBRANCH   1   2
BRANCH   1  18
HETATM   18  N   UNL     1       5.745  26.157  54.268  1.00  0.00    -0.341 N 
HETATM   19  C   UNL     1       5.236  26.009  52.993  1.00  0.00     0.276 C 
HETATM   20  O   UNL     1       4.880  24.918  52.558  1.00  0.00    -0.265 OA
HETATM   21  H   UNL     1       6.161  27.061  54.474  1.00  0.00     0.163 HD
BRANCH  19  22
HETATM   22  C   UNL     1       5.201  27.227  52.213  1.00  0.00     0.142 A 
HETATM   23  O   UNL     1       4.580  27.232  50.990  1.00  0.00    -0.317 OA
HETATM   24  C   UNL     1       4.668  28.499  50.504  1.00  0.00     0.143 A 
HETATM   25  C   UNL     1       5.337  29.312  51.388  1.00  0.00     0.027 A 
HETATM   26  C   UNL     1       5.681  28.494  52.490  1.00  0.00     0.045 A 
ENDBRANCH  19  22
ENDBRANCH   1  18
BRANCH   1  27
HETATM   27  C   UNL     1       7.577  24.537  54.730  1.00  0.00     0.074 C 
BRANCH  27  28
HETATM   28  C   UNL     1       7.765  23.061  54.451  1.00  0.00    -0.056 A 
HETATM   29  C   UNL     1       7.690  22.148  55.513  1.00  0.00     0.007 A 
HETATM   30  C   UNL     1       7.824  20.777  55.288  1.00  0.00     0.001 A 
HETATM   31  C   UNL     1       8.026  20.301  53.996  1.00  0.00     0.000 A 
HETATM   32  C   UNL     1       8.088  21.196  52.930  1.00  0.00     0.001 A 
HETATM   33  C   UNL     1       7.952  22.568  53.153  1.00  0.00     0.007 A 
ENDBRANCH  27  28
ENDBRANCH   1  27
TORSDOF 9
ENDMDL
MODEL 9
REMARK VINA RESULT:      -8.9      2.836      4.123
REMARK  9 active torsions:
REMARK  status: ('A' for Active; 'I' for Inactive)
REMARK    1  A    between atoms: C_3  and  N_4 
REMARK       I    between atoms: N_4  and  C_5 
REMARK    2  A    between atoms: C_5  and  C_6 
REMARK    3  A    between atoms: C_6  and  O_7 
REMARK    4  A    between atoms: O_7  and  C_8 
REMARK    5  A    between atoms: C_8  and  C_9 
REMARK    6  A    between atoms: C_9  and  N_10 
REMARK    7  A    between atoms: C_9  and  C_18 
REMARK       I    between atoms: N_10  and  C_11 
REMARK    8  A    between atoms: C_11  and  C_12 
REMARK    9  A    between atoms: C_18  and  C_19 
ROOT
HETATM    1  C   UNL     1       6.629  27.914  55.845  1.00  0.00     0.189 C 
ENDROOT
BRANCH   1   2
HETATM    2  C   UNL     1       7.447  28.176  57.119  1.00  0.00     0.282 C 
HETATM    3  O   UNL     1       8.063  27.319  57.748  1.00  0.00    -0.263 OA
BRANCH   2   4
HETATM    4  O   UNL     1       7.427  29.493  57.452  1.00  0.00    -0.311 OA
BRANCH   4   5
HETATM    5  C   UNL     1       8.684  30.086  57.770  1.00  0.00     0.281 C 
BRANCH   5   6
HETATM    6  C   UNL     1       8.709  31.126  58.906  1.00  0.00     0.246 C 
HETATM    7  N   UNL     1       7.807  30.843  59.917  1.00  0.00    -0.324 N 
HETATM    8  H   UNL     1       7.139  30.104  59.701  1.00  0.00     0.169 HD
HETATM    9  O   UNL     1       9.396  32.139  58.812  1.00  0.00    -0.271 OA
BRANCH   7  10
HETATM   10  C   UNL     1       7.500  31.645  61.040  1.00  0.00     0.046 A 
HETATM   11  C   UNL     1       8.344  31.514  62.173  1.00  0.00    -0.035 A 
HETATM   12  C   UNL     1       9.487  30.534  62.216  1.00  0.00     0.050 C 
HETATM   13  C   UNL     1       8.099  32.290  63.318  1.00  0.00     0.009 A 
HETATM   14  C   UNL     1       7.037  33.185  63.352  1.00  0.00     0.001 A 
HETATM   15  C   UNL     1       6.225  33.333  62.233  1.00  0.00     0.009 A 
HETATM   16  C   UNL     1       6.457  32.594  61.057  1.00  0.00    -0.035 A 
HETATM   17  C   UNL     1       5.594  32.925  59.871  1.00  0.00     0.050 C 
ENDBRANCH   7  10
ENDBRANCH   5   6
ENDBRANCH   4   5
ENDBRANCH   2   4
ENDBRANCH   1   2
BRANCH   1  18
HETATM   18  N   UNL     1       5.846  29.093  55.486  1.00  0.00    -0.341 N 
HETATM   19  C   UNL     1       4.467  29.074  55.565  1.00  0.00     0.276 C 
HETATM   20  O   UNL     1       3.863  28.177  56.145  1.00  0.00    -0.265 OA
HETATM   21  H   UNL     1       6.241  29.781  54.851  1.00  0.00     0.163 HD
BRANCH  19  22
HETATM   22  C   UNL     1       3.809  30.163  54.879  1.00  0.00     0.142 A 
HETATM   23  O   UNL     1       3.036  31.045  55.590  1.00  0.00    -0.317 OA
HETATM   24  C   UNL     1       2.577  31.972  54.709  1.00  0.00     0.143 A 
HETATM   25  C   UNL     1       3.034  31.705  53.441  1.00  0.00     0.027 A 
HETATM   26  C   UNL     1       3.829  30.539  53.548  1.00  0.00     0.045 A 
ENDBRANCH  19  22
ENDBRANCH   1  18
BRANCH   1  27
HETATM   27  C   UNL     1       7.627  27.525  54.736  1.00  0.00     0.074 C 
BRANCH  27  28
HETATM   28  C   UNL     1       7.539  26.102  54.227  1.00  0.00    -0.056 A 
HETATM   29  C   UNL     1       7.127  25.086  55.102  1.00  0.00     0.007 A 
HETATM   30  C   UNL     1       6.999  23.769  54.658  1.00  0.00     0.001 A 
HETATM   31  C   UNL     1       7.274  23.453  53.331  1.00  0.00     0.000 A 
HETATM   32  C   UNL     1       7.671  24.455  52.448  1.00  0.00     0.001 A 
HETATM   33  C   UNL     1       7.796  25.774  52.890  1.00  0.00     0.007 A 
ENDBRANCH  27  28
ENDBRANCH   1  27
TORSDOF 9
ENDMDL
MODEL 10
REMARK VINA RESULT:      -8.7      2.339      3.194
REMARK  9 active torsions:
REMARK  status: ('A' for Active; 'I' for Inactive)
REMARK    1  A    between atoms: C_3  and  N_4 
REMARK       I    between atoms: N_4  and  C_5 
REMARK    2  A    between atoms: C_5  and  C_6 
REMARK    3  A    between atoms: C_6  and  O_7 
REMARK    4  A    between atoms: O_7  and  C_8 
REMARK    5  A    between atoms: C_8  and  C_9 
REMARK    6  A    between atoms: C_9  and  N_10 
REMARK    7  A    between atoms: C_9  and  C_18 
REMARK       I    between atoms: N_10  and  C_11 
REMARK    8  A    between atoms: C_11  and  C_12 
REMARK    9  A    between atoms: C_18  and  C_19 
ROOT
HETATM    1  C   UNL     1       6.289  28.039  55.219  1.00  0.00     0.189 C 
ENDROOT
BRANCH   1   2
HETATM    2  C   UNL     1       6.397  28.937  56.462  1.00  0.00     0.282 C 
HETATM    3  O   UNL     1       5.508  29.097  57.294  1.00  0.00    -0.263 OA
BRANCH   2   4
HETATM    4  O   UNL     1       7.623  29.519  56.541  1.00  0.00    -0.311 OA
BRANCH   4   5
HETATM    5  C   UNL     1       8.330  29.343  57.766  1.00  0.00     0.281 C 
BRANCH   5   6
HETATM    6  C   UNL     1       8.441  30.563  58.700  1.00  0.00     0.246 C 
HETATM    7  N   UNL     1       7.727  30.410  59.877  1.00  0.00    -0.324 N 
HETATM    8  H   UNL     1       7.098  29.609  59.893  1.00  0.00     0.169 HD
HETATM    9  O   UNL     1       9.020  31.582  58.333  1.00  0.00    -0.271 OA
BRANCH   7  10
HETATM   10  C   UNL     1       7.529  31.374  60.890  1.00  0.00     0.046 A 
HETATM   11  C   UNL     1       8.393  31.315  62.013  1.00  0.00    -0.035 A 
HETATM   12  C   UNL     1       9.447  30.248  62.161  1.00  0.00     0.050 C 
HETATM   13  C   UNL     1       8.255  32.252  63.050  1.00  0.00     0.009 A 
HETATM   14  C   UNL     1       7.277  33.237  62.987  1.00  0.00     0.001 A 
HETATM   15  C   UNL     1       6.445  33.312  61.875  1.00  0.00     0.009 A 
HETATM   16  C   UNL     1       6.574  32.409  60.803  1.00  0.00    -0.035 A 
HETATM   17  C   UNL     1       5.705  32.661  59.601  1.00  0.00     0.050 C 
ENDBRANCH   7  10
ENDBRANCH   5   6
ENDBRANCH   4   5
ENDBRANCH   2   4
ENDBRANCH   1   2
BRANCH   1  18
HETATM   18  N   UNL     1       6.035  28.842  54.026  1.00  0.00    -0.341 N 
HETATM   19  C   UNL     1       4.805  28.800  53.399  1.00  0.00     0.276 C 
HETATM   20  O   UNL     1       3.823  28.288  53.929  1.00  0.00    -0.265 OA
HETATM   21  H   UNL     1       6.816  29.136  53.446  1.00  0.00     0.163 HD
BRANCH  19  22
HETATM   22  C   UNL     1       4.788  29.367  52.069  1.00  0.00     0.142 A 
HETATM   23  O   UNL     1       5.947  29.416  51.337  1.00  0.00    -0.317 OA
HETATM   24  C   UNL     1       5.634  29.957  50.130  1.00  0.00     0.143 A 
HETATM   25  C   UNL     1       4.295  30.262  50.069  1.00  0.00     0.027 A 
HETATM   26  C   UNL     1       3.748  29.883  51.317  1.00  0.00     0.045 A 
ENDBRANCH  19  22
ENDBRANCH   1  18
BRANCH   1  27
HETATM   27  C   UNL     1       7.610  27.251  55.113  1.00  0.00     0.074 C 
BRANCH  27  28
HETATM   28  C   UNL     1       7.555  25.959  54.327  1.00  0.00    -0.056 A 
HETATM   29  C   UNL     1       7.227  24.766  54.990  1.00  0.00     0.007 A 
HETATM   30  C   UNL     1       7.132  23.562  54.291  1.00  0.00     0.001 A 
HETATM   31  C   UNL     1       7.356  23.536  52.918  1.00  0.00     0.000 A 
HETATM   32  C   UNL     1       7.669  24.715  52.244  1.00  0.00     0.001 A 
HETATM   33  C   UNL     1       7.761  25.921  52.942  1.00  0.00     0.007 A 
ENDBRANCH  27  28
ENDBRANCH   1  27
TORSDOF 9
ENDMDL
