MODEL 1
REMARK VINA RESULT:      -9.7      0.000      0.000
REMARK  6 active torsions:
REMARK  status: ('A' for Active; 'I' for Inactive)
REMARK    1  A    between atoms: C_5  and  C_6 
REMARK    2  A    between atoms: C_11  and  C_12 
REMARK       I    between atoms: C_12  and  N_13 
REMARK    3  A    between atoms: N_13  and  C_14 
REMARK    4  A    between atoms: C_17  and  C_18 
REMARK    5  A    between atoms: C_18  and  O_19 
REMARK    6  A    between atoms: C_25  and  C_26 
ROOT
HETATM    1  C   UNL     1       2.289  29.923  50.479  1.00  0.00     0.118 C 
HETATM    2  N   UNL     1       2.406  28.980  51.584  1.00  0.00    -0.366 N 
HETATM    3  C   UNL     1       3.581  28.435  51.955  1.00  0.00     0.123 A 
HETATM    4  N   UNL     1       4.761  28.784  51.363  1.00  0.00    -0.240 N 
HETATM    5  N   UNL     1       5.846  28.209  51.922  1.00  0.00    -0.165 NA
HETATM    6  C   UNL     1       5.316  27.385  52.856  1.00  0.00     0.148 A 
HETATM    7  C   UNL     1       3.899  27.502  52.905  1.00  0.00     0.089 A 
HETATM    8  C   UNL     1       4.871  29.730  50.271  1.00  0.00     0.221 C 
HETATM    9  C   UNL     1       3.626  30.636  50.211  1.00  0.00     0.066 C 
HETATM   10  H   UNL     1       1.523  28.625  51.948  1.00  0.00     0.161 HD
ENDROOT
BRANCH   6  11
HETATM   11  C   UNL     1       6.144  26.510  53.707  1.00  0.00     0.276 C 
HETATM   12  N   UNL     1       6.167  25.207  53.246  1.00  0.00    -0.322 N 
HETATM   13  H   UNL     1       5.620  25.066  52.401  1.00  0.00     0.169 HD
HETATM   14  O   UNL     1       6.727  26.952  54.690  1.00  0.00    -0.266 OA
BRANCH  12  15
HETATM   15  C   UNL     1       6.859  24.108  53.784  1.00  0.00     0.035 A 
HETATM   16  C   UNL     1       6.865  23.784  55.141  1.00  0.00     0.030 A 
HETATM   17  C   UNL     1       7.591  22.680  55.604  1.00  0.00     0.012 A 
HETATM   18  C   UNL     1       8.323  21.875  54.721  1.00  0.00    -0.030 A 
HETATM   19  C   UNL     1       8.311  22.203  53.360  1.00  0.00     0.012 A 
HETATM   20  C   UNL     1       7.582  23.305  52.896  1.00  0.00     0.030 A 
BRANCH  18  21
HETATM   21  C   UNL     1       9.146  20.710  55.222  1.00  0.00     0.147 C 
HETATM   22  C   UNL     1       8.766  20.333  56.650  1.00  0.00     0.044 C 
BRANCH  21  23
HETATM   23  O   UNL     1       8.953  19.581  54.372  1.00  0.00    -0.391 OA
HETATM   24  H   UNL     1       9.499  19.721  53.581  1.00  0.00     0.210 HD
ENDBRANCH  21  23
ENDBRANCH  18  21
ENDBRANCH  12  15
ENDBRANCH   6  11
BRANCH   8  25
HETATM   25  C   UNL     1       5.164  29.004  48.978  1.00  0.00     0.409 C 
HETATM   26  F   UNL     1       4.623  29.579  47.890  1.00  0.00    -0.169 F 
HETATM   27  F   UNL     1       6.505  28.936  48.774  1.00  0.00    -0.169 F 
HETATM   28  F   UNL     1       4.725  27.722  49.015  1.00  0.00    -0.169 F 
ENDBRANCH   8  25
BRANCH   1  29
HETATM   29  C   UNL     1       1.623  29.313  49.258  1.00  0.00    -0.035 A 
HETATM   30  C   UNL     1       1.584  27.914  49.127  1.00  0.00     0.010 A 
HETATM   31  C   UNL     1       1.020  27.308  47.999  1.00  0.00     0.007 A 
HETATM   32  C   UNL     1       0.485  28.087  46.971  1.00  0.00    -0.062 A 
HETATM   33  C   UNL     1      -0.139  27.452  45.765  1.00  0.00     0.048 C 
HETATM   34  C   UNL     1       0.503  29.479  47.098  1.00  0.00     0.007 A 
HETATM   35  C   UNL     1       1.072  30.083  48.223  1.00  0.00     0.010 A 
ENDBRANCH   1  29
TORSDOF 6
ENDMDL
MODEL 2
REMARK VINA RESULT:      -9.6      2.036      2.532
REMARK  6 active torsions:
REMARK  status: ('A' for Active; 'I' for Inactive)
REMARK    1  A    between atoms: C_5  and  C_6 
REMARK    2  A    between atoms: C_11  and  C_12 
REMARK       I    between atoms: C_12  and  N_13 
REMARK    3  A    between atoms: N_13  and  C_14 
REMARK    4  A    between atoms: C_17  and  C_18 
REMARK    5  A    between atoms: C_18  and  O_19 
REMARK    6  A    between atoms: C_25  and  C_26 
ROOT
HETATM    1  C   UNL     1       4.389  29.865  48.559  1.00  0.00     0.118 C 
HETATM    2  N   UNL     1       4.680  29.497  49.939  1.00  0.00    -0.366 N 
HETATM    3  C   UNL     1       4.805  28.218  50.341  1.00  0.00     0.123 A 
HETATM    4  N   UNL     1       4.738  27.172  49.465  1.00  0.00    -0.240 N 
HETATM    5  N   UNL     1       4.977  25.969  50.026  1.00  0.00    -0.165 NA
HETATM    6  C   UNL     1       5.113  26.261  51.342  1.00  0.00     0.148 A 
HETATM    7  C   UNL     1       5.013  27.660  51.574  1.00  0.00     0.089 A 
HETATM    8  C   UNL     1       4.493  27.321  48.044  1.00  0.00     0.221 C 
HETATM    9  C   UNL     1       4.820  28.754  47.584  1.00  0.00     0.066 C 
HETATM   10  H   UNL     1       4.612  30.257  50.615  1.00  0.00     0.161 HD
ENDROOT
BRANCH   6  11
HETATM   11  C   UNL     1       5.354  25.226  52.364  1.00  0.00     0.276 C 
HETATM   12  N   UNL     1       6.667  24.797  52.372  1.00  0.00    -0.322 N 
HETATM   13  H   UNL     1       7.250  25.264  51.682  1.00  0.00     0.169 HD
HETATM   14  O   UNL     1       4.451  24.842  53.099  1.00  0.00    -0.266 OA
BRANCH  12  15
HETATM   15  C   UNL     1       7.264  23.844  53.214  1.00  0.00     0.035 A 
HETATM   16  C   UNL     1       7.512  24.053  54.571  1.00  0.00     0.030 A 
HETATM   17  C   UNL     1       8.124  23.058  55.343  1.00  0.00     0.012 A 
HETATM   18  C   UNL     1       8.500  21.834  54.777  1.00  0.00    -0.030 A 
HETATM   19  C   UNL     1       8.247  21.627  53.415  1.00  0.00     0.012 A 
HETATM   20  C   UNL     1       7.630  22.621  52.644  1.00  0.00     0.030 A 
BRANCH  18  21
HETATM   21  C   UNL     1       9.203  20.775  55.595  1.00  0.00     0.147 C 
HETATM   22  C   UNL     1       8.591  20.649  56.986  1.00  0.00     0.044 C 
BRANCH  21  23
HETATM   23  O   UNL     1       9.121  19.515  54.930  1.00  0.00    -0.391 OA
HETATM   24  H   UNL     1       8.556  18.941  55.472  1.00  0.00     0.210 HD
ENDBRANCH  21  23
ENDBRANCH  18  21
ENDBRANCH  12  15
ENDBRANCH   6  11
BRANCH   8  25
HETATM   25  C   UNL     1       3.089  26.874  47.706  1.00  0.00     0.409 C 
HETATM   26  F   UNL     1       2.552  27.504  46.647  1.00  0.00    -0.169 F 
HETATM   27  F   UNL     1       3.076  25.543  47.434  1.00  0.00    -0.169 F 
HETATM   28  F   UNL     1       2.244  27.050  48.751  1.00  0.00    -0.169 F 
ENDBRANCH   8  25
BRANCH   1  29
HETATM   29  C   UNL     1       2.970  30.374  48.376  1.00  0.00    -0.035 A 
HETATM   30  C   UNL     1       2.106  30.404  49.484  1.00  0.00     0.010 A 
HETATM   31  C   UNL     1       0.778  30.823  49.354  1.00  0.00     0.007 A 
HETATM   32  C   UNL     1       0.278  31.219  48.111  1.00  0.00    -0.062 A 
HETATM   33  C   UNL     1      -1.137  31.688  47.961  1.00  0.00     0.048 C 
HETATM   34  C   UNL     1       1.134  31.210  47.006  1.00  0.00     0.007 A 
HETATM   35  C   UNL     1       2.460  30.785  47.136  1.00  0.00     0.010 A 
ENDBRANCH   1  29
TORSDOF 6
ENDMDL
MODEL 3
REMARK VINA RESULT:      -9.4      3.886      9.729
REMARK  6 active torsions:
REMARK  status: ('A' for Active; 'I' for Inactive)
REMARK    1  A    between atoms: C_5  and  C_6 
REMARK    2  A    between atoms: C_11  and  C_12 
REMARK       I    between atoms: C_12  and  N_13 
REMARK    3  A    between atoms: N_13  and  C_14 
REMARK    4  A    between atoms: C_17  and  C_18 
REMARK    5  A    between atoms: C_18  and  O_19 
REMARK    6  A    between atoms: C_25  and  C_26 
ROOT
HETATM    1  C   UNL     1       5.465  26.586  55.327  1.00  0.00     0.118 C 
HETATM    2  N   UNL     1       4.666  27.432  54.451  1.00  0.00    -0.366 N 
HETATM    3  C   UNL     1       4.630  27.269  53.114  1.00  0.00     0.123 A 
HETATM    4  N   UNL     1       5.287  26.246  52.490  1.00  0.00    -0.240 N 
HETATM    5  N   UNL     1       5.065  26.181  51.162  1.00  0.00    -0.165 NA
HETATM    6  C   UNL     1       4.301  27.272  50.919  1.00  0.00     0.148 A 
HETATM    7  C   UNL     1       4.008  27.975  52.120  1.00  0.00     0.089 A 
HETATM    8  C   UNL     1       6.107  25.270  53.181  1.00  0.00     0.221 C 
HETATM    9  C   UNL     1       5.744  25.219  54.677  1.00  0.00     0.066 C 
HETATM   10  H   UNL     1       4.274  28.264  54.890  1.00  0.00     0.161 HD
ENDROOT
BRANCH   6  11
HETATM   11  C   UNL     1       3.837  27.634  49.567  1.00  0.00     0.276 C 
HETATM   12  N   UNL     1       2.460  27.720  49.494  1.00  0.00    -0.322 N 
HETATM   13  H   UNL     1       1.995  27.527  50.377  1.00  0.00     0.169 HD
HETATM   14  O   UNL     1       4.635  27.832  48.658  1.00  0.00    -0.266 OA
BRANCH  12  15
HETATM   15  C   UNL     1       1.669  28.056  48.383  1.00  0.00     0.035 A 
HETATM   16  C   UNL     1       1.238  29.353  48.101  1.00  0.00     0.030 A 
HETATM   17  C   UNL     1       0.438  29.608  46.979  1.00  0.00     0.012 A 
HETATM   18  C   UNL     1       0.056  28.574  46.116  1.00  0.00    -0.030 A 
HETATM   19  C   UNL     1       0.493  27.274  46.401  1.00  0.00     0.012 A 
HETATM   20  C   UNL     1       1.296  27.021  47.520  1.00  0.00     0.030 A 
BRANCH  18  21
HETATM   21  C   UNL     1      -0.845  28.837  44.930  1.00  0.00     0.147 C 
HETATM   22  C   UNL     1      -0.741  30.284  44.462  1.00  0.00     0.044 C 
BRANCH  21  23
HETATM   23  O   UNL     1      -0.493  27.969  43.854  1.00  0.00    -0.391 OA
HETATM   24  H   UNL     1      -0.562  28.485  43.035  1.00  0.00     0.210 HD
ENDBRANCH  21  23
ENDBRANCH  18  21
ENDBRANCH  12  15
ENDBRANCH   6  11
BRANCH   8  25
HETATM   25  C   UNL     1       7.571  25.536  52.913  1.00  0.00     0.409 C 
HETATM   26  F   UNL     1       7.906  26.838  52.931  1.00  0.00    -0.169 F 
HETATM   27  F   UNL     1       8.337  24.910  53.845  1.00  0.00    -0.169 F 
HETATM   28  F   UNL     1       7.958  25.037  51.714  1.00  0.00    -0.169 F 
ENDBRANCH   8  25
BRANCH   1  29
HETATM   29  C   UNL     1       6.684  27.302  55.882  1.00  0.00    -0.035 A 
HETATM   30  C   UNL     1       6.928  28.632  55.499  1.00  0.00     0.010 A 
HETATM   31  C   UNL     1       8.062  29.317  55.950  1.00  0.00     0.007 A 
HETATM   32  C   UNL     1       8.982  28.687  56.791  1.00  0.00    -0.062 A 
HETATM   33  C   UNL     1      10.192  29.415  57.296  1.00  0.00     0.048 C 
HETATM   34  C   UNL     1       8.740  27.370  57.190  1.00  0.00     0.007 A 
HETATM   35  C   UNL     1       7.610  26.684  56.734  1.00  0.00     0.010 A 
ENDBRANCH   1  29
TORSDOF 6
ENDMDL
MODEL 4
REMARK VINA RESULT:      -9.3      7.013     10.101
REMARK  6 active torsions:
REMARK  status: ('A' for Active; 'I' for Inactive)
REMARK    1  A    between atoms: C_5  and  C_6 
REMARK    2  A    between atoms: C_11  and  C_12 
REMARK       I    between atoms: C_12  and  N_13 
REMARK    3  A    between atoms: N_13  and  C_14 
REMARK    4  A    between atoms: C_17  and  C_18 
REMARK    5  A    between atoms: C_18  and  O_19 
REMARK    6  A    between atoms: C_25  and  C_26 
ROOT
HETATM    1  C   UNL     1       5.024  26.680  54.653  1.00  0.00     0.118 C 
HETATM    2  N   UNL     1       4.587  27.374  55.858  1.00  0.00    -0.366 N 
HETATM    3  C   UNL     1       5.124  28.541  56.262  1.00  0.00     0.123 A 
HETATM    4  N   UNL     1       6.073  29.195  55.528  1.00  0.00    -0.240 N 
HETATM    5  N   UNL     1       6.431  30.392  56.036  1.00  0.00    -0.165 NA
HETATM    6  C   UNL     1       5.738  30.457  57.198  1.00  0.00     0.148 A 
HETATM    7  C   UNL     1       4.909  29.315  57.370  1.00  0.00     0.089 A 
HETATM    8  C   UNL     1       6.619  28.696  54.281  1.00  0.00     0.221 C 
HETATM    9  C   UNL     1       5.674  27.654  53.654  1.00  0.00     0.066 C 
HETATM   10  H   UNL     1       3.972  26.839  56.469  1.00  0.00     0.161 HD
ENDROOT
BRANCH   6  11
HETATM   11  C   UNL     1       5.847  31.598  58.126  1.00  0.00     0.276 C 
HETATM   12  N   UNL     1       5.918  31.192  59.445  1.00  0.00    -0.322 N 
HETATM   13  H   UNL     1       5.889  30.183  59.560  1.00  0.00     0.169 HD
HETATM   14  O   UNL     1       5.877  32.751  57.710  1.00  0.00    -0.266 OA
BRANCH  12  15
HETATM   15  C   UNL     1       6.046  31.991  60.594  1.00  0.00     0.035 A 
HETATM   16  C   UNL     1       7.248  32.183  61.275  1.00  0.00     0.030 A 
HETATM   17  C   UNL     1       7.293  32.985  62.423  1.00  0.00     0.012 A 
HETATM   18  C   UNL     1       6.141  33.612  62.912  1.00  0.00    -0.030 A 
HETATM   19  C   UNL     1       4.937  33.419  62.222  1.00  0.00     0.012 A 
HETATM   20  C   UNL     1       4.893  32.621  61.072  1.00  0.00     0.030 A 
BRANCH  18  21
HETATM   21  C   UNL     1       6.175  34.440  64.176  1.00  0.00     0.147 C 
HETATM   22  C   UNL     1       7.323  34.019  65.086  1.00  0.00     0.044 C 
BRANCH  21  23
HETATM   23  O   UNL     1       6.321  35.821  63.846  1.00  0.00    -0.391 OA
HETATM   24  H   UNL     1       6.684  35.864  62.947  1.00  0.00     0.210 HD
ENDBRANCH  21  23
ENDBRANCH  18  21
ENDBRANCH  12  15
ENDBRANCH   6  11
BRANCH   8  25
HETATM   25  C   UNL     1       8.030  28.197  54.492  1.00  0.00     0.409 C 
HETATM   26  F   UNL     1       8.974  29.146  54.363  1.00  0.00    -0.169 F 
HETATM   27  F   UNL     1       8.158  27.668  55.736  1.00  0.00    -0.169 F 
HETATM   28  F   UNL     1       8.341  27.200  53.627  1.00  0.00    -0.169 F 
ENDBRANCH   8  25
BRANCH   1  29
HETATM   29  C   UNL     1       5.830  25.429  54.958  1.00  0.00    -0.035 A 
HETATM   30  C   UNL     1       6.194  25.158  56.288  1.00  0.00     0.010 A 
HETATM   31  C   UNL     1       6.973  24.042  56.611  1.00  0.00     0.007 A 
HETATM   32  C   UNL     1       7.413  23.172  55.611  1.00  0.00    -0.062 A 
HETATM   33  C   UNL     1       8.233  21.962  55.945  1.00  0.00     0.048 C 
HETATM   34  C   UNL     1       7.042  23.423  54.287  1.00  0.00     0.007 A 
HETATM   35  C   UNL     1       6.269  24.542  53.965  1.00  0.00     0.010 A 
ENDBRANCH   1  29
TORSDOF 6
ENDMDL
MODEL 5
REMARK VINA RESULT:      -9.2      6.798     10.289
REMARK  6 active torsions:
REMARK  status: ('A' for Active; 'I' for Inactive)
REMARK    1  A    between atoms: C_5  and  C_6 
REMARK    2  A    between atoms: C_11  and  C_12 
REMARK       I    between atoms: C_12  and  N_13 
REMARK    3  A    between atoms: N_13  and  C_14 
REMARK    4  A    between atoms: C_17  and  C_18 
REMARK    5  A    between atoms: C_18  and  O_19 
REMARK    6  A    between atoms: C_25  and  C_26 
ROOT
HETATM    1  C   UNL     1       5.111  26.351  54.642  1.00  0.00     0.118 C 
HETATM    2  N   UNL     1       4.710  26.990  55.889  1.00  0.00    -0.366 N 
HETATM    3  C   UNL     1       5.209  28.173  56.296  1.00  0.00     0.123 A 
HETATM    4  N   UNL     1       6.080  28.895  55.529  1.00  0.00    -0.240 N 
HETATM    5  N   UNL     1       6.405  30.095  56.051  1.00  0.00    -0.165 NA
HETATM    6  C   UNL     1       5.778  30.093  57.251  1.00  0.00     0.148 A 
HETATM    7  C   UNL     1       5.019  28.905  57.437  1.00  0.00     0.089 A 
HETATM    8  C   UNL     1       6.577  28.457  54.239  1.00  0.00     0.221 C 
HETATM    9  C   UNL     1       5.652  27.384  53.637  1.00  0.00     0.066 C 
HETATM   10  H   UNL     1       4.159  26.407  56.518  1.00  0.00     0.161 HD
ENDROOT
BRANCH   6  11
HETATM   11  C   UNL     1       5.882  31.214  58.204  1.00  0.00     0.276 C 
HETATM   12  N   UNL     1       4.766  31.315  59.012  1.00  0.00    -0.322 N 
HETATM   13  H   UNL     1       4.064  30.605  58.825  1.00  0.00     0.169 HD
HETATM   14  O   UNL     1       6.877  31.930  58.231  1.00  0.00    -0.266 OA
BRANCH  12  15
HETATM   15  C   UNL     1       4.521  32.241  60.040  1.00  0.00     0.035 A 
HETATM   16  C   UNL     1       5.311  32.360  61.184  1.00  0.00     0.030 A 
HETATM   17  C   UNL     1       4.994  33.299  62.173  1.00  0.00     0.012 A 
HETATM   18  C   UNL     1       3.883  34.141  62.040  1.00  0.00    -0.030 A 
HETATM   19  C   UNL     1       3.094  34.020  60.889  1.00  0.00     0.012 A 
HETATM   20  C   UNL     1       3.414  33.084  59.898  1.00  0.00     0.030 A 
BRANCH  18  21
HETATM   21  C   UNL     1       3.510  35.123  63.125  1.00  0.00     0.147 C 
HETATM   22  C   UNL     1       3.255  36.514  62.555  1.00  0.00     0.044 C 
BRANCH  21  23
HETATM   23  O   UNL     1       2.338  34.673  63.804  1.00  0.00    -0.391 OA
HETATM   24  H   UNL     1       1.771  34.244  63.144  1.00  0.00     0.210 HD
ENDBRANCH  21  23
ENDBRANCH  18  21
ENDBRANCH  12  15
ENDBRANCH   6  11
BRANCH   8  25
HETATM   25  C   UNL     1       8.022  28.027  54.355  1.00  0.00     0.409 C 
HETATM   26  F   UNL     1       8.906  29.032  54.226  1.00  0.00    -0.169 F 
HETATM   27  F   UNL     1       8.241  27.449  55.565  1.00  0.00    -0.169 F 
HETATM   28  F   UNL     1       8.339  27.090  53.429  1.00  0.00    -0.169 F 
ENDBRANCH   8  25
BRANCH   1  29
HETATM   29  C   UNL     1       5.996  25.137  54.865  1.00  0.00    -0.035 A 
HETATM   30  C   UNL     1       6.386  24.363  53.758  1.00  0.00     0.010 A 
HETATM   31  C   UNL     1       7.164  23.212  53.919  1.00  0.00     0.007 A 
HETATM   32  C   UNL     1       7.569  22.803  55.192  1.00  0.00    -0.062 A 
HETATM   33  C   UNL     1       8.418  21.582  55.378  1.00  0.00     0.048 C 
HETATM   34  C   UNL     1       7.201  23.575  56.298  1.00  0.00     0.007 A 
HETATM   35  C   UNL     1       6.418  24.722  56.136  1.00  0.00     0.010 A 
ENDBRANCH   1  29
TORSDOF 6
ENDMDL
MODEL 6
REMARK VINA RESULT:      -9.1      6.512      8.915
REMARK  6 active torsions:
REMARK  status: ('A' for Active; 'I' for Inactive)
REMARK    1  A    between atoms: C_5  and  C_6 
REMARK    2  A    between atoms: C_11  and  C_12 
REMARK       I    between atoms: C_12  and  N_13 
REMARK    3  A    between atoms: N_13  and  C_14 
REMARK    4  A    between atoms: C_17  and  C_18 
REMARK    5  A    between atoms: C_18  and  O_19 
REMARK    6  A    between atoms: C_25  and  C_26 
ROOT
HETATM    1  C   UNL     1       6.869  31.842  58.426  1.00  0.00     0.118 C 
HETATM    2  N   UNL     1       7.427  30.496  58.415  1.00  0.00    -0.366 N 
HETATM    3  C   UNL     1       6.799  29.450  57.844  1.00  0.00     0.123 A 
HETATM    4  N   UNL     1       5.620  29.594  57.168  1.00  0.00    -0.240 N 
HETATM    5  N   UNL     1       5.182  28.460  56.584  1.00  0.00    -0.165 NA
HETATM    6  C   UNL     1       6.083  27.533  56.985  1.00  0.00     0.148 A 
HETATM    7  C   UNL     1       7.111  28.120  57.775  1.00  0.00     0.089 A 
HETATM    8  C   UNL     1       4.915  30.853  57.028  1.00  0.00     0.221 C 
HETATM    9  C   UNL     1       5.867  32.038  57.273  1.00  0.00     0.066 C 
HETATM   10  H   UNL     1       8.239  30.358  59.016  1.00  0.00     0.161 HD
ENDROOT
BRANCH   6  11
HETATM   11  C   UNL     1       5.983  26.111  56.609  1.00  0.00     0.276 C 
HETATM   12  N   UNL     1       7.054  25.699  55.840  1.00  0.00    -0.322 N 
HETATM   13  H   UNL     1       7.734  26.434  55.665  1.00  0.00     0.169 HD
HETATM   14  O   UNL     1       5.036  25.425  56.978  1.00  0.00    -0.266 OA
BRANCH  12  15
HETATM   15  C   UNL     1       7.306  24.419  55.318  1.00  0.00     0.035 A 
HETATM   16  C   UNL     1       7.231  24.104  53.961  1.00  0.00     0.030 A 
HETATM   17  C   UNL     1       7.483  22.800  53.519  1.00  0.00     0.012 A 
HETATM   18  C   UNL     1       7.818  21.783  54.422  1.00  0.00    -0.030 A 
HETATM   19  C   UNL     1       7.896  22.104  55.783  1.00  0.00     0.012 A 
HETATM   20  C   UNL     1       7.648  23.410  56.225  1.00  0.00     0.030 A 
BRANCH  18  21
HETATM   21  C   UNL     1       8.046  20.364  53.954  1.00  0.00     0.147 C 
HETATM   22  C   UNL     1       8.670  20.329  52.564  1.00  0.00     0.044 C 
BRANCH  21  23
HETATM   23  O   UNL     1       8.902  19.684  54.871  1.00  0.00    -0.391 OA
HETATM   24  H   UNL     1       8.513  18.810  55.032  1.00  0.00     0.210 HD
ENDBRANCH  21  23
ENDBRANCH  18  21
ENDBRANCH  12  15
ENDBRANCH   6  11
BRANCH   8  25
HETATM   25  C   UNL     1       3.685  30.863  57.907  1.00  0.00     0.409 C 
HETATM   26  F   UNL     1       3.879  30.340  59.130  1.00  0.00    -0.169 F 
HETATM   27  F   UNL     1       3.243  32.136  58.078  1.00  0.00    -0.169 F 
HETATM   28  F   UNL     1       2.659  30.184  57.338  1.00  0.00    -0.169 F 
ENDBRANCH   8  25
BRANCH   1  29
HETATM   29  C   UNL     1       6.367  32.257  59.798  1.00  0.00    -0.035 A 
HETATM   30  C   UNL     1       6.917  31.649  60.939  1.00  0.00     0.010 A 
HETATM   31  C   UNL     1       6.456  31.968  62.221  1.00  0.00     0.007 A 
HETATM   32  C   UNL     1       5.430  32.900  62.393  1.00  0.00    -0.062 A 
HETATM   33  C   UNL     1       4.939  33.264  63.762  1.00  0.00     0.048 C 
HETATM   34  C   UNL     1       4.888  33.523  61.266  1.00  0.00     0.007 A 
HETATM   35  C   UNL     1       5.345  33.199  59.985  1.00  0.00     0.010 A 
ENDBRANCH   1  29
TORSDOF 6
ENDMDL
MODEL 7
REMARK VINA RESULT:      -9.1      4.671      6.393
REMARK  6 active torsions:
REMARK  status: ('A' for Active; 'I' for Inactive)
REMARK    1  A    between atoms: C_5  and  C_6 
REMARK    2  A    between atoms: C_11  and  C_12 
REMARK       I    between atoms: C_12  and  N_13 
REMARK    3  A    between atoms: N_13  and  C_14 
REMARK    4  A    between atoms: C_17  and  C_18 
REMARK    5  A    between atoms: C_18  and  O_19 
REMARK    6  A    between atoms: C_25  and  C_26 
ROOT
HETATM    1  C   UNL     1       2.925  31.699  55.325  1.00  0.00     0.118 C 
HETATM    2  N   UNL     1       3.076  30.799  54.190  1.00  0.00    -0.366 N 
HETATM    3  C   UNL     1       3.713  29.614  54.278  1.00  0.00     0.123 A 
HETATM    4  N   UNL     1       4.200  29.140  55.462  1.00  0.00    -0.240 N 
HETATM    5  N   UNL     1       4.724  27.900  55.382  1.00  0.00    -0.165 NA
HETATM    6  C   UNL     1       4.644  27.612  54.062  1.00  0.00     0.148 A 
HETATM    7  C   UNL     1       4.014  28.663  53.341  1.00  0.00     0.089 A 
HETATM    8  C   UNL     1       4.121  29.861  56.718  1.00  0.00     0.221 C 
HETATM    9  C   UNL     1       3.018  30.934  56.658  1.00  0.00     0.066 C 
HETATM   10  H   UNL     1       2.825  31.194  53.285  1.00  0.00     0.161 HD
ENDROOT
BRANCH   6  11
HETATM   11  C   UNL     1       5.143  26.346  53.492  1.00  0.00     0.276 C 
HETATM   12  N   UNL     1       6.126  25.773  54.277  1.00  0.00    -0.322 N 
HETATM   13  H   UNL     1       6.340  26.309  55.114  1.00  0.00     0.169 HD
HETATM   14  O   UNL     1       4.687  25.902  52.444  1.00  0.00    -0.266 OA
BRANCH  12  15
HETATM   15  C   UNL     1       6.813  24.567  54.063  1.00  0.00     0.035 A 
HETATM   16  C   UNL     1       7.344  24.183  52.831  1.00  0.00     0.030 A 
HETATM   17  C   UNL     1       8.005  22.956  52.693  1.00  0.00     0.012 A 
HETATM   18  C   UNL     1       8.151  22.089  53.783  1.00  0.00    -0.030 A 
HETATM   19  C   UNL     1       7.619  22.479  55.018  1.00  0.00     0.012 A 
HETATM   20  C   UNL     1       6.962  23.708  55.157  1.00  0.00     0.030 A 
BRANCH  18  21
HETATM   21  C   UNL     1       8.823  20.744  53.628  1.00  0.00     0.147 C 
HETATM   22  C   UNL     1       8.800  19.956  54.933  1.00  0.00     0.044 C 
BRANCH  21  23
HETATM   23  O   UNL     1       8.165  19.988  52.612  1.00  0.00    -0.391 OA
HETATM   24  H   UNL     1       7.477  20.557  52.232  1.00  0.00     0.210 HD
ENDBRANCH  21  23
ENDBRANCH  18  21
ENDBRANCH  12  15
ENDBRANCH   6  11
BRANCH   8  25
HETATM   25  C   UNL     1       5.482  30.400  57.097  1.00  0.00     0.409 C 
HETATM   26  F   UNL     1       6.218  30.817  56.053  1.00  0.00    -0.169 F 
HETATM   27  F   UNL     1       5.347  31.454  57.942  1.00  0.00    -0.169 F 
HETATM   28  F   UNL     1       6.216  29.477  57.765  1.00  0.00    -0.169 F 
ENDBRANCH   8  25
BRANCH   1  29
HETATM   29  C   UNL     1       3.809  32.929  55.220  1.00  0.00    -0.035 A 
HETATM   30  C   UNL     1       3.826  33.851  56.280  1.00  0.00     0.010 A 
HETATM   31  C   UNL     1       4.591  35.020  56.209  1.00  0.00     0.007 A 
HETATM   32  C   UNL     1       5.356  35.298  55.074  1.00  0.00    -0.062 A 
HETATM   33  C   UNL     1       6.196  36.537  54.991  1.00  0.00     0.048 C 
HETATM   34  C   UNL     1       5.360  34.379  54.021  1.00  0.00     0.007 A 
HETATM   35  C   UNL     1       4.590  33.214  54.090  1.00  0.00     0.010 A 
ENDBRANCH   1  29
TORSDOF 6
ENDMDL
MODEL 8
REMARK VINA RESULT:      -9.1      3.543      9.705
REMARK  6 active torsions:
REMARK  status: ('A' for Active; 'I' for Inactive)
REMARK    1  A    between atoms: C_5  and  C_6 
REMARK    2  A    between atoms: C_11  and  C_12 
REMARK       I    between atoms: C_12  and  N_13 
REMARK    3  A    between atoms: N_13  and  C_14 
REMARK    4  A    between atoms: C_17  and  C_18 
REMARK    5  A    between atoms: C_18  and  O_19 
REMARK    6  A    between atoms: C_25  and  C_26 
ROOT
HETATM    1  C   UNL     1       8.066  25.955  53.144  1.00  0.00     0.118 C 
HETATM    2  N   UNL     1       7.275  26.057  51.925  1.00  0.00    -0.366 N 
HETATM    3  C   UNL     1       6.127  26.759  51.856  1.00  0.00     0.123 A 
HETATM    4  N   UNL     1       5.659  27.488  52.913  1.00  0.00    -0.240 N 
HETATM    5  N   UNL     1       4.547  28.200  52.639  1.00  0.00    -0.165 NA
HETATM    6  C   UNL     1       4.247  27.833  51.371  1.00  0.00     0.148 A 
HETATM    7  C   UNL     1       5.216  26.933  50.850  1.00  0.00     0.089 A 
HETATM    8  C   UNL     1       6.313  27.553  54.205  1.00  0.00     0.221 C 
HETATM    9  C   UNL     1       7.793  27.143  54.085  1.00  0.00     0.066 C 
HETATM   10  H   UNL     1       7.549  25.424  51.174  1.00  0.00     0.161 HD
ENDROOT
BRANCH   6  11
HETATM   11  C   UNL     1       3.064  28.345  50.654  1.00  0.00     0.276 C 
HETATM   12  N   UNL     1       3.022  27.911  49.343  1.00  0.00    -0.322 N 
HETATM   13  H   UNL     1       3.802  27.311  49.089  1.00  0.00     0.169 HD
HETATM   14  O   UNL     1       2.244  29.060  51.218  1.00  0.00    -0.266 OA
BRANCH  12  15
HETATM   15  C   UNL     1       2.042  28.178  48.371  1.00  0.00     0.035 A 
HETATM   16  C   UNL     1       1.607  29.462  48.040  1.00  0.00     0.030 A 
HETATM   17  C   UNL     1       0.615  29.647  47.069  1.00  0.00     0.012 A 
HETATM   18  C   UNL     1       0.039  28.556  46.407  1.00  0.00    -0.030 A 
HETATM   19  C   UNL     1       0.481  27.269  46.741  1.00  0.00     0.012 A 
HETATM   20  C   UNL     1       1.477  27.084  47.709  1.00  0.00     0.030 A 
BRANCH  18  21
HETATM   21  C   UNL     1      -1.064  28.748  45.393  1.00  0.00     0.147 C 
HETATM   22  C   UNL     1      -2.250  29.493  45.994  1.00  0.00     0.044 C 
BRANCH  21  23
HETATM   23  O   UNL     1      -0.569  29.481  44.273  1.00  0.00    -0.391 OA
HETATM   24  H   UNL     1      -0.195  30.308  44.614  1.00  0.00     0.210 HD
ENDBRANCH  21  23
ENDBRANCH  18  21
ENDBRANCH  12  15
ENDBRANCH   6  11
BRANCH   8  25
HETATM   25  C   UNL     1       5.536  26.752  55.225  1.00  0.00     0.409 C 
HETATM   26  F   UNL     1       5.080  25.573  54.766  1.00  0.00    -0.169 F 
HETATM   27  F   UNL     1       6.316  26.490  56.306  1.00  0.00    -0.169 F 
HETATM   28  F   UNL     1       4.467  27.442  55.693  1.00  0.00    -0.169 F 
ENDBRANCH   8  25
BRANCH   1  29
HETATM   29  C   UNL     1       7.975  24.583  53.788  1.00  0.00    -0.035 A 
HETATM   30  C   UNL     1       7.679  23.469  52.984  1.00  0.00     0.010 A 
HETATM   31  C   UNL     1       7.542  22.193  53.540  1.00  0.00     0.007 A 
HETATM   32  C   UNL     1       7.693  21.999  54.915  1.00  0.00    -0.062 A 
HETATM   33  C   UNL     1       7.567  20.634  55.522  1.00  0.00     0.048 C 
HETATM   34  C   UNL     1       8.004  23.097  55.721  1.00  0.00     0.007 A 
HETATM   35  C   UNL     1       8.135  24.374  55.165  1.00  0.00     0.010 A 
ENDBRANCH   1  29
TORSDOF 6
ENDMDL
MODEL 9
REMARK VINA RESULT:      -9.0      7.272      9.524
REMARK  6 active torsions:
REMARK  status: ('A' for Active; 'I' for Inactive)
REMARK    1  A    between atoms: C_5  and  C_6 
REMARK    2  A    between atoms: C_11  and  C_12 
REMARK       I    between atoms: C_12  and  N_13 
REMARK    3  A    between atoms: N_13  and  C_14 
REMARK    4  A    between atoms: C_17  and  C_18 
REMARK    5  A    between atoms: C_18  and  O_19 
REMARK    6  A    between atoms: C_25  and  C_26 
ROOT
HETATM    1  C   UNL     1       7.619  27.533  53.956  1.00  0.00     0.118 C 
HETATM    2  N   UNL     1       8.182  28.692  54.635  1.00  0.00    -0.366 N 
HETATM    3  C   UNL     1       8.102  28.866  55.969  1.00  0.00     0.123 A 
HETATM    4  N   UNL     1       7.546  27.927  56.790  1.00  0.00    -0.240 N 
HETATM    5  N   UNL     1       7.633  28.226  58.102  1.00  0.00    -0.165 NA
HETATM    6  C   UNL     1       8.193  29.458  58.105  1.00  0.00     0.148 A 
HETATM    7  C   UNL     1       8.501  29.889  56.785  1.00  0.00     0.089 A 
HETATM    8  C   UNL     1       6.961  26.686  56.322  1.00  0.00     0.221 C 
HETATM    9  C   UNL     1       7.483  26.337  54.916  1.00  0.00     0.066 C 
HETATM   10  H   UNL     1       8.488  29.448  54.024  1.00  0.00     0.161 HD
ENDROOT
BRANCH   6  11
HETATM   11  C   UNL     1       8.451  30.211  59.347  1.00  0.00     0.276 C 
HETATM   12  N   UNL     1       7.327  30.879  59.794  1.00  0.00    -0.322 N 
HETATM   13  H   UNL     1       6.511  30.739  59.204  1.00  0.00     0.169 HD
HETATM   14  O   UNL     1       9.557  30.197  59.876  1.00  0.00    -0.266 OA
BRANCH  12  15
HETATM   15  C   UNL     1       7.190  31.675  60.943  1.00  0.00     0.035 A 
HETATM   16  C   UNL     1       7.943  31.499  62.104  1.00  0.00     0.030 A 
HETATM   17  C   UNL     1       7.740  32.325  63.216  1.00  0.00     0.012 A 
HETATM   18  C   UNL     1       6.782  33.347  63.191  1.00  0.00    -0.030 A 
HETATM   19  C   UNL     1       6.030  33.522  62.022  1.00  0.00     0.012 A 
HETATM   20  C   UNL     1       6.237  32.698  60.909  1.00  0.00     0.030 A 
BRANCH  18  21
HETATM   21  C   UNL     1       6.526  34.211  64.404  1.00  0.00     0.147 C 
HETATM   22  C   UNL     1       5.337  33.701  65.210  1.00  0.00     0.044 C 
BRANCH  21  23
HETATM   23  O   UNL     1       7.685  34.231  65.237  1.00  0.00    -0.391 OA
HETATM   24  H   UNL     1       7.380  34.364  66.149  1.00  0.00     0.210 HD
ENDBRANCH  21  23
ENDBRANCH  18  21
ENDBRANCH  12  15
ENDBRANCH   6  11
BRANCH   8  25
HETATM   25  C   UNL     1       5.453  26.750  56.419  1.00  0.00     0.409 C 
HETATM   26  F   UNL     1       4.944  26.113  57.487  1.00  0.00    -0.169 F 
HETATM   27  F   UNL     1       5.044  28.043  56.487  1.00  0.00    -0.169 F 
HETATM   28  F   UNL     1       4.860  26.227  55.318  1.00  0.00    -0.169 F 
ENDBRANCH   8  25
BRANCH   1  29
HETATM   29  C   UNL     1       6.370  27.870  53.160  1.00  0.00    -0.035 A 
HETATM   30  C   UNL     1       5.993  27.036  52.093  1.00  0.00     0.010 A 
HETATM   31  C   UNL     1       4.877  27.331  51.304  1.00  0.00     0.007 A 
HETATM   32  C   UNL     1       4.110  28.471  51.560  1.00  0.00    -0.062 A 
HETATM   33  C   UNL     1       2.900  28.790  50.734  1.00  0.00     0.048 C 
HETATM   34  C   UNL     1       4.466  29.298  52.629  1.00  0.00     0.007 A 
HETATM   35  C   UNL     1       5.586  29.005  53.412  1.00  0.00     0.010 A 
ENDBRANCH   1  29
TORSDOF 6
ENDMDL
MODEL 10
REMARK VINA RESULT:      -8.7      9.963     12.249
REMARK  6 active torsions:
REMARK  status: ('A' for Active; 'I' for Inactive)
REMARK    1  A    between atoms: C_5  and  C_6 
REMARK    2  A    between atoms: C_11  and  C_12 
REMARK       I    between atoms: C_12  and  N_13 
REMARK    3  A    between atoms: N_13  and  C_14 
REMARK    4  A    between atoms: C_17  and  C_18 
REMARK    5  A    between atoms: C_18  and  O_19 
REMARK    6  A    between atoms: C_25  and  C_26 
ROOT
HETATM    1  C   UNL     1       6.080  34.763  62.294  1.00  0.00     0.118 C 
HETATM    2  N   UNL     1       7.235  34.016  61.813  1.00  0.00    -0.366 N 
HETATM    3  C   UNL     1       7.126  32.953  60.993  1.00  0.00     0.123 A 
HETATM    4  N   UNL     1       5.922  32.542  60.494  1.00  0.00    -0.240 N 
HETATM    5  N   UNL     1       6.011  31.521  59.618  1.00  0.00    -0.165 NA
HETATM    6  C   UNL     1       7.329  31.212  59.632  1.00  0.00     0.148 A 
HETATM    7  C   UNL     1       8.057  32.090  60.481  1.00  0.00     0.089 A 
HETATM    8  C   UNL     1       4.656  33.169  60.817  1.00  0.00     0.221 C 
HETATM    9  C   UNL     1       4.878  34.599  61.346  1.00  0.00     0.066 C 
HETATM   10  H   UNL     1       8.118  34.238  62.272  1.00  0.00     0.161 HD
ENDROOT
BRANCH   6  11
HETATM   11  C   UNL     1       7.896  30.108  58.834  1.00  0.00     0.276 C 
HETATM   12  N   UNL     1       6.934  29.466  58.078  1.00  0.00    -0.322 N 
HETATM   13  H   UNL     1       6.003  29.858  58.188  1.00  0.00     0.169 HD
HETATM   14  O   UNL     1       9.093  29.849  58.875  1.00  0.00    -0.266 OA
BRANCH  12  15
HETATM   15  C   UNL     1       7.104  28.390  57.190  1.00  0.00     0.035 A 
HETATM   16  C   UNL     1       7.011  28.507  55.803  1.00  0.00     0.030 A 
HETATM   17  C   UNL     1       7.179  27.384  54.982  1.00  0.00     0.012 A 
HETATM   18  C   UNL     1       7.447  26.123  55.530  1.00  0.00    -0.030 A 
HETATM   19  C   UNL     1       7.543  26.012  56.923  1.00  0.00     0.012 A 
HETATM   20  C   UNL     1       7.379  27.136  57.743  1.00  0.00     0.030 A 
BRANCH  18  21
HETATM   21  C   UNL     1       7.584  24.901  54.652  1.00  0.00     0.147 C 
HETATM   22  C   UNL     1       8.311  23.774  55.376  1.00  0.00     0.044 C 
BRANCH  21  23
HETATM   23  O   UNL     1       6.292  24.445  54.252  1.00  0.00    -0.391 OA
HETATM   24  H   UNL     1       6.363  23.492  54.086  1.00  0.00     0.210 HD
ENDBRANCH  21  23
ENDBRANCH  18  21
ENDBRANCH  12  15
ENDBRANCH   6  11
BRANCH   8  25
HETATM   25  C   UNL     1       3.858  32.286  61.749  1.00  0.00     0.409 C 
HETATM   26  F   UNL     1       4.597  31.672  62.689  1.00  0.00    -0.169 F 
HETATM   27  F   UNL     1       2.915  33.020  62.394  1.00  0.00    -0.169 F 
HETATM   28  F   UNL     1       3.186  31.324  61.073  1.00  0.00    -0.169 F 
ENDBRANCH   8  25
BRANCH   1  29
HETATM   29  C   UNL     1       5.788  34.509  63.762  1.00  0.00    -0.035 A 
HETATM   30  C   UNL     1       4.525  34.848  64.277  1.00  0.00     0.010 A 
HETATM   31  C   UNL     1       4.226  34.674  65.632  1.00  0.00     0.007 A 
HETATM   32  C   UNL     1       5.184  34.158  66.508  1.00  0.00    -0.062 A 
HETATM   33  C   UNL     1       4.872  33.948  67.959  1.00  0.00     0.048 C 
HETATM   34  C   UNL     1       6.438  33.801  66.003  1.00  0.00     0.007 A 
HETATM   35  C   UNL     1       6.738  33.983  64.650  1.00  0.00     0.010 A 
ENDBRANCH   1  29
TORSDOF 6
ENDMDL
