MODEL 1
REMARK VINA RESULT:      -9.1      0.000      0.000
REMARK  2 active torsions:
REMARK  status: ('A' for Active; 'I' for Inactive)
REMARK    1  A    between atoms: C_4  and  C_5 
REMARK    2  A    between atoms: C_10  and  C_11 
ROOT
HETATM    1  C   UNL     1       7.498  28.277  57.786  1.00  0.00     0.202 C 
HETATM    2  N   UNL     1       6.258  28.245  57.030  1.00  0.00    -0.331 N 
HETATM    3  C   UNL     1       5.433  29.437  57.031  1.00  0.00     0.155 C 
HETATM    4  C   UNL     1       6.038  27.269  56.070  1.00  0.00     0.256 C 
HETATM    5  O   UNL     1       5.173  27.350  55.200  1.00  0.00    -0.267 OA
HETATM    6  C   UNL     1       6.909  26.075  56.133  1.00  0.00     0.053 A 
HETATM    7  C   UNL     1       7.794  25.959  57.210  1.00  0.00     0.026 A 
HETATM    8  N   UNL     1       7.820  26.926  58.225  1.00  0.00    -0.266 NA
HETATM    9  C   UNL     1       6.823  25.078  55.154  1.00  0.00     0.019 A 
HETATM   10  C   UNL     1       7.612  23.935  55.262  1.00  0.00     0.001 A 
HETATM   11  C   UNL     1       8.466  23.786  56.353  1.00  0.00     0.002 A 
HETATM   12  C   UNL     1       8.543  24.784  57.331  1.00  0.00     0.024 A 
HETATM   13  H   UNL     1       8.688  26.915  58.756  1.00  0.00     0.130 HD
ENDROOT
BRANCH   1  14
HETATM   14  C   UNL     1       8.584  28.998  57.029  1.00  0.00     0.029 A 
HETATM   15  C   UNL     1       9.420  30.042  57.521  1.00  0.00     0.121 A 
HETATM   16  N   UNL     1      10.292  30.470  56.597  1.00  0.00    -0.172 NA
HETATM   17  N   UNL     1      10.039  29.700  55.530  1.00  0.00    -0.288 N 
HETATM   18  H   UNL     1      10.595  29.839  54.691  1.00  0.00     0.188 HD
HETATM   19  C   UNL     1       9.033  28.807  55.733  1.00  0.00     0.122 A 
BRANCH  15  20
HETATM   20  C   UNL     1       9.385  30.633  58.894  1.00  0.00     0.106 A 
HETATM   21  O   UNL     1       9.027  29.956  60.028  1.00  0.00    -0.313 OA
HETATM   22  C   UNL     1       9.102  30.829  61.070  1.00  0.00     0.050 A 
HETATM   23  C   UNL     1       8.732  30.307  62.402  1.00  0.00     0.076 C 
HETATM   24  C   UNL     1       9.520  32.063  60.624  1.00  0.00     0.035 A 
HETATM   25  C   UNL     1       9.705  31.937  59.226  1.00  0.00     0.042 A 
ENDBRANCH  15  20
ENDBRANCH   1  14
TORSDOF 2
ENDMDL
MODEL 2
REMARK VINA RESULT:      -8.8      3.347      7.120
REMARK  2 active torsions:
REMARK  status: ('A' for Active; 'I' for Inactive)
REMARK    1  A    between atoms: C_4  and  C_5 
REMARK    2  A    between atoms: C_10  and  C_11 
ROOT
HETATM    1  C   UNL     1       6.452  25.230  55.881  1.00  0.00     0.202 C 
HETATM    2  N   UNL     1       7.352  25.630  56.949  1.00  0.00    -0.331 N 
HETATM    3  C   UNL     1       8.424  24.721  57.307  1.00  0.00     0.155 C 
HETATM    4  C   UNL     1       7.415  26.950  57.367  1.00  0.00     0.256 C 
HETATM    5  O   UNL     1       8.338  27.413  58.033  1.00  0.00    -0.267 OA
HETATM    6  C   UNL     1       6.283  27.819  56.976  1.00  0.00     0.053 A 
HETATM    7  C   UNL     1       5.190  27.231  56.330  1.00  0.00     0.026 A 
HETATM    8  N   UNL     1       5.151  25.848  56.102  1.00  0.00    -0.266 NA
HETATM    9  C   UNL     1       6.299  29.187  57.274  1.00  0.00     0.019 A 
HETATM   10  C   UNL     1       5.200  29.978  56.946  1.00  0.00     0.001 A 
HETATM   11  C   UNL     1       4.086  29.396  56.342  1.00  0.00     0.002 A 
HETATM   12  C   UNL     1       4.074  28.027  56.053  1.00  0.00     0.024 A 
HETATM   13  H   UNL     1       4.498  25.589  55.367  1.00  0.00     0.130 HD
ENDROOT
BRANCH   1  14
HETATM   14  C   UNL     1       7.068  25.466  54.526  1.00  0.00     0.029 A 
HETATM   15  C   UNL     1       7.636  24.485  53.663  1.00  0.00     0.121 A 
HETATM   16  N   UNL     1       8.097  25.019  52.524  1.00  0.00    -0.172 NA
HETATM   17  N   UNL     1       7.815  26.324  52.638  1.00  0.00    -0.288 N 
HETATM   18  H   UNL     1       8.069  26.942  51.874  1.00  0.00     0.188 HD
HETATM   19  C   UNL     1       7.202  26.644  53.810  1.00  0.00     0.122 A 
BRANCH  15  20
HETATM   20  C   UNL     1       7.732  23.017  53.932  1.00  0.00     0.106 A 
HETATM   21  O   UNL     1       7.703  22.446  55.175  1.00  0.00    -0.313 OA
HETATM   22  C   UNL     1       7.832  21.100  55.014  1.00  0.00     0.050 A 
HETATM   23  C   UNL     1       7.847  20.282  56.243  1.00  0.00     0.076 C 
HETATM   24  C   UNL     1       7.929  20.792  53.675  1.00  0.00     0.035 A 
HETATM   25  C   UNL     1       7.862  22.023  52.980  1.00  0.00     0.042 A 
ENDBRANCH  15  20
ENDBRANCH   1  14
TORSDOF 2
ENDMDL
MODEL 3
REMARK VINA RESULT:      -8.8      2.112      6.681
REMARK  2 active torsions:
REMARK  status: ('A' for Active; 'I' for Inactive)
REMARK    1  A    between atoms: C_4  and  C_5 
REMARK    2  A    between atoms: C_10  and  C_11 
ROOT
HETATM    1  C   UNL     1       6.988  28.335  55.494  1.00  0.00     0.202 C 
HETATM    2  N   UNL     1       6.198  29.262  56.287  1.00  0.00    -0.331 N 
HETATM    3  C   UNL     1       4.754  29.168  56.200  1.00  0.00     0.155 C 
HETATM    4  C   UNL     1       6.770  29.962  57.338  1.00  0.00     0.256 C 
HETATM    5  O   UNL     1       6.121  30.517  58.222  1.00  0.00    -0.267 OA
HETATM    6  C   UNL     1       8.248  30.027  57.360  1.00  0.00     0.053 A 
HETATM    7  C   UNL     1       8.949  29.495  56.272  1.00  0.00     0.026 A 
HETATM    8  N   UNL     1       8.266  28.957  55.172  1.00  0.00    -0.266 NA
HETATM    9  C   UNL     1       8.919  30.634  58.429  1.00  0.00     0.019 A 
HETATM   10  C   UNL     1      10.308  30.735  58.403  1.00  0.00     0.001 A 
HETATM   11  C   UNL     1      11.016  30.248  57.305  1.00  0.00     0.002 A 
HETATM   12  C   UNL     1      10.339  29.649  56.238  1.00  0.00     0.024 A 
HETATM   13  H   UNL     1       8.845  28.330  54.619  1.00  0.00     0.130 HD
ENDROOT
BRANCH   1  14
HETATM   14  C   UNL     1       7.064  26.980  56.149  1.00  0.00     0.029 A 
HETATM   15  C   UNL     1       7.077  25.714  55.495  1.00  0.00     0.121 A 
HETATM   16  N   UNL     1       7.156  24.696  56.363  1.00  0.00    -0.172 NA
HETATM   17  N   UNL     1       7.214  25.294  57.561  1.00  0.00    -0.288 N 
HETATM   18  H   UNL     1       7.288  24.711  58.389  1.00  0.00     0.188 HD
HETATM   19  C   UNL     1       7.163  26.652  57.491  1.00  0.00     0.122 A 
BRANCH  15  20
HETATM   20  C   UNL     1       7.018  25.479  54.019  1.00  0.00     0.106 A 
HETATM   21  O   UNL     1       6.052  25.974  53.186  1.00  0.00    -0.313 OA
HETATM   22  C   UNL     1       6.328  25.532  51.927  1.00  0.00     0.050 A 
HETATM   23  C   UNL     1       5.389  25.935  50.861  1.00  0.00     0.076 C 
HETATM   24  C   UNL     1       7.475  24.769  51.935  1.00  0.00     0.035 A 
HETATM   25  C   UNL     1       7.920  24.737  53.278  1.00  0.00     0.042 A 
ENDBRANCH  15  20
ENDBRANCH   1  14
TORSDOF 2
ENDMDL
MODEL 4
REMARK VINA RESULT:      -8.2      2.907      6.238
REMARK  2 active torsions:
REMARK  status: ('A' for Active; 'I' for Inactive)
REMARK    1  A    between atoms: C_4  and  C_5 
REMARK    2  A    between atoms: C_10  and  C_11 
ROOT
HETATM    1  C   UNL     1       7.363  28.091  55.264  1.00  0.00     0.202 C 
HETATM    2  N   UNL     1       8.064  27.635  56.452  1.00  0.00    -0.331 N 
HETATM    3  C   UNL     1       8.446  28.629  57.436  1.00  0.00     0.155 C 
HETATM    4  C   UNL     1       8.059  26.295  56.809  1.00  0.00     0.256 C 
HETATM    5  O   UNL     1       8.361  25.885  57.927  1.00  0.00    -0.267 OA
HETATM    6  C   UNL     1       7.669  25.334  55.753  1.00  0.00     0.053 A 
HETATM    7  C   UNL     1       7.456  25.823  54.460  1.00  0.00     0.026 A 
HETATM    8  N   UNL     1       7.653  27.179  54.164  1.00  0.00    -0.266 NA
HETATM    9  C   UNL     1       7.548  23.970  56.043  1.00  0.00     0.019 A 
HETATM   10  C   UNL     1       7.234  23.074  55.023  1.00  0.00     0.001 A 
HETATM   11  C   UNL     1       7.063  23.542  53.721  1.00  0.00     0.002 A 
HETATM   12  C   UNL     1       7.192  24.906  53.438  1.00  0.00     0.024 A 
HETATM   13  H   UNL     1       7.172  27.470  53.317  1.00  0.00     0.130 HD
ENDROOT
BRANCH   1  14
HETATM   14  C   UNL     1       5.902  28.333  55.547  1.00  0.00     0.029 A 
HETATM   15  C   UNL     1       4.849  28.419  54.591  1.00  0.00     0.121 A 
HETATM   16  N   UNL     1       3.659  28.638  55.168  1.00  0.00    -0.172 NA
HETATM   17  N   UNL     1       3.934  28.672  56.479  1.00  0.00    -0.288 N 
HETATM   18  H   UNL     1       3.169  28.821  57.130  1.00  0.00     0.188 HD
HETATM   19  C   UNL     1       5.253  28.496  56.760  1.00  0.00     0.122 A 
BRANCH  15  20
HETATM   20  C   UNL     1       4.985  28.285  53.108  1.00  0.00     0.106 A 
HETATM   21  O   UNL     1       4.841  27.116  52.412  1.00  0.00    -0.313 OA
HETATM   22  C   UNL     1       5.054  27.391  51.096  1.00  0.00     0.050 A 
HETATM   23  C   UNL     1       4.968  26.254  50.157  1.00  0.00     0.076 C 
HETATM   24  C   UNL     1       5.319  28.732  50.930  1.00  0.00     0.035 A 
HETATM   25  C   UNL     1       5.272  29.307  52.223  1.00  0.00     0.042 A 
ENDBRANCH  15  20
ENDBRANCH   1  14
TORSDOF 2
ENDMDL
MODEL 5
REMARK VINA RESULT:      -8.1      5.733      7.914
REMARK  2 active torsions:
REMARK  status: ('A' for Active; 'I' for Inactive)
REMARK    1  A    between atoms: C_4  and  C_5 
REMARK    2  A    between atoms: C_10  and  C_11 
ROOT
HETATM    1  C   UNL     1       4.906  32.829  61.987  1.00  0.00     0.202 C 
HETATM    2  N   UNL     1       4.695  32.336  60.636  1.00  0.00    -0.331 N 
HETATM    3  C   UNL     1       3.348  32.378  60.102  1.00  0.00     0.155 C 
HETATM    4  C   UNL     1       5.763  32.165  59.768  1.00  0.00     0.256 C 
HETATM    5  O   UNL     1       5.642  32.047  58.551  1.00  0.00    -0.267 OA
HETATM    6  C   UNL     1       7.109  32.121  60.381  1.00  0.00     0.053 A 
HETATM    7  C   UNL     1       7.200  32.130  61.777  1.00  0.00     0.026 A 
HETATM    8  N   UNL     1       6.045  32.134  62.572  1.00  0.00    -0.266 NA
HETATM    9  C   UNL     1       8.254  32.041  59.580  1.00  0.00     0.019 A 
HETATM   10  C   UNL     1       9.509  31.944  60.177  1.00  0.00     0.001 A 
HETATM   11  C   UNL     1       9.611  31.908  61.567  1.00  0.00     0.002 A 
HETATM   12  C   UNL     1       8.462  31.981  62.362  1.00  0.00     0.024 A 
HETATM   13  H   UNL     1       6.221  32.461  63.519  1.00  0.00     0.130 HD
ENDROOT
BRANCH   1  14
HETATM   14  C   UNL     1       4.970  34.335  62.017  1.00  0.00     0.029 A 
HETATM   15  C   UNL     1       5.299  35.154  63.136  1.00  0.00     0.121 A 
HETATM   16  N   UNL     1       5.271  36.459  62.833  1.00  0.00    -0.172 NA
HETATM   17  N   UNL     1       4.948  36.485  61.533  1.00  0.00    -0.288 N 
HETATM   18  H   UNL     1       4.875  37.386  61.070  1.00  0.00     0.188 HD
HETATM   19  C   UNL     1       4.759  35.249  60.998  1.00  0.00     0.122 A 
BRANCH  15  20
HETATM   20  C   UNL     1       5.650  34.678  64.509  1.00  0.00     0.106 A 
HETATM   21  O   UNL     1       4.777  34.612  65.561  1.00  0.00    -0.313 OA
HETATM   22  C   UNL     1       5.467  34.149  66.640  1.00  0.00     0.050 A 
HETATM   23  C   UNL     1       4.713  34.019  67.904  1.00  0.00     0.076 C 
HETATM   24  C   UNL     1       6.776  33.899  66.293  1.00  0.00     0.035 A 
HETATM   25  C   UNL     1       6.893  34.237  64.923  1.00  0.00     0.042 A 
ENDBRANCH  15  20
ENDBRANCH   1  14
TORSDOF 2
ENDMDL
MODEL 6
REMARK VINA RESULT:      -8.0      2.118      3.714
REMARK  2 active torsions:
REMARK  status: ('A' for Active; 'I' for Inactive)
REMARK    1  A    between atoms: C_4  and  C_5 
REMARK    2  A    between atoms: C_10  and  C_11 
ROOT
HETATM    1  C   UNL     1       7.561  27.414  55.638  1.00  0.00     0.202 C 
HETATM    2  N   UNL     1       7.651  26.017  56.026  1.00  0.00    -0.331 N 
HETATM    3  C   UNL     1       8.249  25.708  57.310  1.00  0.00     0.155 C 
HETATM    4  C   UNL     1       6.893  25.052  55.381  1.00  0.00     0.256 C 
HETATM    5  O   UNL     1       6.687  23.929  55.836  1.00  0.00    -0.267 OA
HETATM    6  C   UNL     1       6.320  25.431  54.071  1.00  0.00     0.053 A 
HETATM    7  C   UNL     1       6.679  26.668  53.526  1.00  0.00     0.026 A 
HETATM    8  N   UNL     1       7.592  27.504  54.183  1.00  0.00    -0.266 NA
HETATM    9  C   UNL     1       5.467  24.556  53.386  1.00  0.00     0.019 A 
HETATM   10  C   UNL     1       4.984  24.908  52.128  1.00  0.00     0.001 A 
HETATM   11  C   UNL     1       5.368  26.119  51.554  1.00  0.00     0.002 A 
HETATM   12  C   UNL     1       6.226  26.986  52.241  1.00  0.00     0.024 A 
HETATM   13  H   UNL     1       7.527  28.473  53.880  1.00  0.00     0.130 HD
ENDROOT
BRANCH   1  14
HETATM   14  C   UNL     1       6.401  28.098  56.313  1.00  0.00     0.029 A 
HETATM   15  C   UNL     1       6.470  29.098  57.326  1.00  0.00     0.121 A 
HETATM   16  N   UNL     1       5.255  29.508  57.716  1.00  0.00    -0.172 NA
HETATM   17  N   UNL     1       4.411  28.799  56.954  1.00  0.00    -0.288 N 
HETATM   18  H   UNL     1       3.414  28.949  57.069  1.00  0.00     0.188 HD
HETATM   19  C   UNL     1       5.040  27.946  56.102  1.00  0.00     0.122 A 
BRANCH  15  20
HETATM   20  C   UNL     1       7.716  29.671  57.922  1.00  0.00     0.106 A 
HETATM   21  O   UNL     1       7.796  30.255  59.157  1.00  0.00    -0.313 OA
HETATM   22  C   UNL     1       9.082  30.667  59.335  1.00  0.00     0.050 A 
HETATM   23  C   UNL     1       9.389  31.351  60.608  1.00  0.00     0.076 C 
HETATM   24  C   UNL     1       9.840  30.341  58.233  1.00  0.00     0.035 A 
HETATM   25  C   UNL     1       8.964  29.699  57.326  1.00  0.00     0.042 A 
ENDBRANCH  15  20
ENDBRANCH   1  14
TORSDOF 2
ENDMDL
MODEL 7
REMARK VINA RESULT:      -8.0      2.884      4.217
REMARK  2 active torsions:
REMARK  status: ('A' for Active; 'I' for Inactive)
REMARK    1  A    between atoms: C_4  and  C_5 
REMARK    2  A    between atoms: C_10  and  C_11 
ROOT
HETATM    1  C   UNL     1       5.720  29.943  57.680  1.00  0.00     0.202 C 
HETATM    2  N   UNL     1       5.722  29.044  56.538  1.00  0.00    -0.331 N 
HETATM    3  C   UNL     1       4.441  28.605  56.020  1.00  0.00     0.155 C 
HETATM    4  C   UNL     1       6.857  28.892  55.757  1.00  0.00     0.256 C 
HETATM    5  O   UNL     1       6.850  28.401  54.631  1.00  0.00    -0.267 OA
HETATM    6  C   UNL     1       8.131  29.352  56.351  1.00  0.00     0.053 A 
HETATM    7  C   UNL     1       8.122  29.786  57.681  1.00  0.00     0.026 A 
HETATM    8  N   UNL     1       6.946  29.742  58.442  1.00  0.00    -0.266 NA
HETATM    9  C   UNL     1       9.316  29.322  55.606  1.00  0.00     0.019 A 
HETATM   10  C   UNL     1      10.516  29.707  56.201  1.00  0.00     0.001 A 
HETATM   11  C   UNL     1      10.528  30.100  57.539  1.00  0.00     0.002 A 
HETATM   12  C   UNL     1       9.341  30.121  58.280  1.00  0.00     0.024 A 
HETATM   13  H   UNL     1       6.976  30.361  59.248  1.00  0.00     0.130 HD
ENDROOT
BRANCH   1  14
HETATM   14  C   UNL     1       5.433  31.362  57.262  1.00  0.00     0.029 A 
HETATM   15  C   UNL     1       5.514  32.527  58.078  1.00  0.00     0.121 A 
HETATM   16  N   UNL     1       5.199  33.641  57.402  1.00  0.00    -0.172 NA
HETATM   17  N   UNL     1       4.936  33.207  56.162  1.00  0.00    -0.288 N 
HETATM   18  H   UNL     1       4.677  33.889  55.456  1.00  0.00     0.188 HD
HETATM   19  C   UNL     1       5.060  31.859  56.023  1.00  0.00     0.122 A 
BRANCH  15  20
HETATM   20  C   UNL     1       5.905  32.573  59.520  1.00  0.00     0.106 A 
HETATM   21  O   UNL     1       7.158  32.306  60.000  1.00  0.00    -0.313 OA
HETATM   22  C   UNL     1       7.116  32.433  61.355  1.00  0.00     0.050 A 
HETATM   23  C   UNL     1       8.372  32.166  62.086  1.00  0.00     0.076 C 
HETATM   24  C   UNL     1       5.850  32.796  61.757  1.00  0.00     0.035 A 
HETATM   25  C   UNL     1       5.072  32.888  60.578  1.00  0.00     0.042 A 
ENDBRANCH  15  20
ENDBRANCH   1  14
TORSDOF 2
ENDMDL
MODEL 8
REMARK VINA RESULT:      -8.0      3.744      4.778
REMARK  2 active torsions:
REMARK  status: ('A' for Active; 'I' for Inactive)
REMARK    1  A    between atoms: C_4  and  C_5 
REMARK    2  A    between atoms: C_10  and  C_11 
ROOT
HETATM    1  C   UNL     1       5.307  26.760  54.893  1.00  0.00     0.202 C 
HETATM    2  N   UNL     1       5.129  26.762  53.451  1.00  0.00    -0.331 N 
HETATM    3  C   UNL     1       4.387  27.859  52.861  1.00  0.00     0.155 C 
HETATM    4  C   UNL     1       5.918  25.963  52.638  1.00  0.00     0.256 C 
HETATM    5  O   UNL     1       6.036  26.128  51.425  1.00  0.00    -0.267 OA
HETATM    6  C   UNL     1       6.640  24.856  53.303  1.00  0.00     0.053 A 
HETATM    7  C   UNL     1       6.384  24.620  54.658  1.00  0.00     0.026 A 
HETATM    8  N   UNL     1       5.435  25.383  55.352  1.00  0.00    -0.266 NA
HETATM    9  C   UNL     1       7.531  24.052  52.582  1.00  0.00     0.019 A 
HETATM   10  C   UNL     1       8.158  22.979  53.214  1.00  0.00     0.001 A 
HETATM   11  C   UNL     1       7.878  22.706  54.552  1.00  0.00     0.002 A 
HETATM   12  C   UNL     1       6.982  23.511  55.265  1.00  0.00     0.024 A 
HETATM   13  H   UNL     1       5.564  25.349  56.360  1.00  0.00     0.130 HD
ENDROOT
BRANCH   1  14
HETATM   14  C   UNL     1       6.411  27.697  55.311  1.00  0.00     0.029 A 
HETATM   15  C   UNL     1       6.265  29.033  55.783  1.00  0.00     0.121 A 
HETATM   16  N   UNL     1       7.445  29.598  56.077  1.00  0.00    -0.172 NA
HETATM   17  N   UNL     1       8.340  28.635  55.818  1.00  0.00    -0.288 N 
HETATM   18  H   UNL     1       9.323  28.833  55.978  1.00  0.00     0.188 HD
HETATM   19  C   UNL     1       7.779  27.484  55.360  1.00  0.00     0.122 A 
BRANCH  15  20
HETATM   20  C   UNL     1       4.979  29.775  55.960  1.00  0.00     0.106 A 
HETATM   21  O   UNL     1       4.409  30.589  55.019  1.00  0.00    -0.313 OA
HETATM   22  C   UNL     1       3.263  31.094  55.551  1.00  0.00     0.050 A 
HETATM   23  C   UNL     1       2.491  32.025  54.703  1.00  0.00     0.076 C 
HETATM   24  C   UNL     1       3.075  30.603  56.824  1.00  0.00     0.035 A 
HETATM   25  C   UNL     1       4.177  29.753  57.086  1.00  0.00     0.042 A 
ENDBRANCH  15  20
ENDBRANCH   1  14
TORSDOF 2
ENDMDL
MODEL 9
REMARK VINA RESULT:      -7.8      3.428      5.433
REMARK  2 active torsions:
REMARK  status: ('A' for Active; 'I' for Inactive)
REMARK    1  A    between atoms: C_4  and  C_5 
REMARK    2  A    between atoms: C_10  and  C_11 
ROOT
HETATM    1  C   UNL     1       8.252  31.955  59.205  1.00  0.00     0.202 C 
HETATM    2  N   UNL     1       9.143  31.169  58.368  1.00  0.00    -0.331 N 
HETATM    3  C   UNL     1      10.566  31.422  58.470  1.00  0.00     0.155 C 
HETATM    4  C   UNL     1       8.703  29.999  57.768  1.00  0.00     0.256 C 
HETATM    5  O   UNL     1       9.456  29.142  57.309  1.00  0.00    -0.267 OA
HETATM    6  C   UNL     1       7.238  29.810  57.688  1.00  0.00     0.053 A 
HETATM    7  C   UNL     1       6.412  30.859  58.104  1.00  0.00     0.026 A 
HETATM    8  N   UNL     1       6.960  32.074  58.540  1.00  0.00    -0.266 NA
HETATM    9  C   UNL     1       6.700  28.620  57.181  1.00  0.00     0.019 A 
HETATM   10  C   UNL     1       5.318  28.484  57.062  1.00  0.00     0.001 A 
HETATM   11  C   UNL     1       4.486  29.539  57.432  1.00  0.00     0.002 A 
HETATM   12  C   UNL     1       5.030  30.727  57.932  1.00  0.00     0.024 A 
HETATM   13  H   UNL     1       6.312  32.617  59.105  1.00  0.00     0.130 HD
ENDROOT
BRANCH   1  14
HETATM   14  C   UNL     1       8.217  31.428  60.616  1.00  0.00     0.029 A 
HETATM   15  C   UNL     1       7.358  31.859  61.669  1.00  0.00     0.121 A 
HETATM   16  N   UNL     1       7.576  31.184  62.807  1.00  0.00    -0.172 NA
HETATM   17  N   UNL     1       8.547  30.317  62.492  1.00  0.00    -0.288 N 
HETATM   18  H   UNL     1       8.878  29.681  63.210  1.00  0.00     0.188 HD
HETATM   19  C   UNL     1       8.965  30.419  61.201  1.00  0.00     0.122 A 
BRANCH  15  20
HETATM   20  C   UNL     1       6.313  32.924  61.579  1.00  0.00     0.106 A 
HETATM   21  O   UNL     1       5.167  32.835  60.838  1.00  0.00    -0.313 OA
HETATM   22  C   UNL     1       4.482  34.002  60.997  1.00  0.00     0.050 A 
HETATM   23  C   UNL     1       3.209  34.130  60.258  1.00  0.00     0.076 C 
HETATM   24  C   UNL     1       5.167  34.840  61.847  1.00  0.00     0.035 A 
HETATM   25  C   UNL     1       6.343  34.147  62.224  1.00  0.00     0.042 A 
ENDBRANCH  15  20
ENDBRANCH   1  14
TORSDOF 2
ENDMDL
MODEL 10
REMARK VINA RESULT:      -7.6      4.175      7.903
REMARK  2 active torsions:
REMARK  status: ('A' for Active; 'I' for Inactive)
REMARK    1  A    between atoms: C_4  and  C_5 
REMARK    2  A    between atoms: C_10  and  C_11 
ROOT
HETATM    1  C   UNL     1       6.005  28.089  53.226  1.00  0.00     0.202 C 
HETATM    2  N   UNL     1       4.859  28.606  53.954  1.00  0.00    -0.331 N 
HETATM    3  C   UNL     1       3.587  28.664  53.262  1.00  0.00     0.155 C 
HETATM    4  C   UNL     1       4.884  28.707  55.337  1.00  0.00     0.256 C 
HETATM    5  O   UNL     1       3.878  28.842  56.030  1.00  0.00    -0.267 OA
HETATM    6  C   UNL     1       6.217  28.650  55.977  1.00  0.00     0.053 A 
HETATM    7  C   UNL     1       7.346  28.624  55.152  1.00  0.00     0.026 A 
HETATM    8  N   UNL     1       7.218  28.697  53.758  1.00  0.00    -0.266 NA
HETATM    9  C   UNL     1       6.337  28.653  57.372  1.00  0.00     0.019 A 
HETATM   10  C   UNL     1       7.602  28.656  57.955  1.00  0.00     0.001 A 
HETATM   11  C   UNL     1       8.736  28.675  57.145  1.00  0.00     0.002 A 
HETATM   12  C   UNL     1       8.609  28.678  55.751  1.00  0.00     0.024 A 
HETATM   13  H   UNL     1       8.040  28.352  53.269  1.00  0.00     0.130 HD
ENDROOT
BRANCH   1  14
HETATM   14  C   UNL     1       5.992  26.583  53.179  1.00  0.00     0.029 A 
HETATM   15  C   UNL     1       5.589  25.765  52.084  1.00  0.00     0.121 A 
HETATM   16  N   UNL     1       5.701  24.458  52.360  1.00  0.00    -0.172 NA
HETATM   17  N   UNL     1       6.187  24.430  53.609  1.00  0.00    -0.288 N 
HETATM   18  H   UNL     1       6.365  23.527  54.037  1.00  0.00     0.188 HD
HETATM   19  C   UNL     1       6.379  25.666  54.142  1.00  0.00     0.122 A 
BRANCH  15  20
HETATM   20  C   UNL     1       5.098  26.243  50.755  1.00  0.00     0.106 A 
HETATM   21  O   UNL     1       4.303  25.519  49.908  1.00  0.00    -0.313 OA
HETATM   22  C   UNL     1       4.084  26.279  48.800  1.00  0.00     0.050 A 
HETATM   23  C   UNL     1       3.258  25.675  47.734  1.00  0.00     0.076 C 
HETATM   24  C   UNL     1       4.716  27.495  48.927  1.00  0.00     0.035 A 
HETATM   25  C   UNL     1       5.366  27.474  50.184  1.00  0.00     0.042 A 
ENDBRANCH  15  20
ENDBRANCH   1  14
TORSDOF 2
ENDMDL
