MODEL 1
REMARK VINA RESULT:      -9.4      0.000      0.000
REMARK  5 active torsions:
REMARK  status: ('A' for Active; 'I' for Inactive)
REMARK    1  A    between atoms: N_3  and  C_4 
REMARK    2  A    between atoms: C_5  and  C_6 
REMARK    3  A    between atoms: C_15  and  C_16 
REMARK       I    between atoms: C_16  and  N_17 
REMARK    4  A    between atoms: N_17  and  N_18 
REMARK       I    between atoms: N_18  and  C_19 
REMARK    5  A    between atoms: C_19  and  C_20 
ROOT
HETATM    1  C   UNL     1       8.785  28.645  54.881  1.00  0.00     0.070 C 
HETATM    2  C   UNL     1       8.969  29.166  56.287  1.00  0.00     0.036 A 
HETATM    3  N   UNL     1       8.196  28.652  57.335  1.00  0.00    -0.237 N 
HETATM    4  N   UNL     1       8.179  29.183  58.599  1.00  0.00    -0.158 NA
HETATM    5  C   UNL     1       8.983  30.173  58.877  1.00  0.00     0.196 A 
HETATM    6  C   UNL     1       9.941  30.701  57.842  1.00  0.00     0.209 A 
HETATM    7  O   UNL     1      10.770  31.549  58.140  1.00  0.00    -0.286 OA
HETATM    8  C   UNL     1       9.838  30.168  56.481  1.00  0.00     0.084 A 
ENDROOT
BRANCH   5   9
HETATM    9  C   UNL     1       8.895  30.763  60.281  1.00  0.00     0.294 C 
HETATM   10  N   UNL     1       8.440  32.065  60.365  1.00  0.00    -0.261 N 
HETATM   11  H   UNL     1       8.024  32.557  59.564  1.00  0.00     0.190 HD
HETATM   12  O   UNL     1       9.202  30.101  61.266  1.00  0.00    -0.264 OA
BRANCH  10  13
HETATM   13  N   UNL     1       8.168  32.582  61.640  1.00  0.00    -0.262 N 
HETATM   14  C   UNL     1       6.859  32.677  62.063  1.00  0.00     0.286 C 
HETATM   15  O   UNL     1       5.913  32.426  61.317  1.00  0.00    -0.264 OA
HETATM   16  H   UNL     1       8.961  32.692  62.265  1.00  0.00     0.190 HD
BRANCH  14  17
HETATM   17  C   UNL     1       6.676  33.083  63.440  1.00  0.00     0.102 A 
HETATM   18  N   UNL     1       5.415  33.208  63.987  1.00  0.00    -0.361 N 
HETATM   19  H   UNL     1       4.562  33.028  63.472  1.00  0.00     0.165 HD
HETATM   20  C   UNL     1       5.500  33.601  65.294  1.00  0.00     0.088 A 
HETATM   21  C   UNL     1       6.832  33.731  65.609  1.00  0.00     0.019 A 
HETATM   22  C   UNL     1       7.574  33.407  64.446  1.00  0.00     0.036 A 
ENDBRANCH  14  17
ENDBRANCH  10  13
ENDBRANCH   5   9
BRANCH   3  23
HETATM   23  C   UNL     1       7.297  27.551  57.192  1.00  0.00     0.073 A 
HETATM   24  C   UNL     1       5.923  27.740  56.931  1.00  0.00     0.076 A 
HETATM   25  C   UNL     1       5.078  26.613  56.841  1.00  0.00     0.018 A 
HETATM   26  C   UNL     1       5.581  25.322  56.991  1.00  0.00     0.001 A 
HETATM   27  C   UNL     1       6.933  25.133  57.248  1.00  0.00     0.002 A 
HETATM   28  C   UNL     1       7.779  26.238  57.355  1.00  0.00     0.032 A 
BRANCH  24  29
HETATM   29  C   UNL     1       5.324  29.113  56.738  1.00  0.00     0.419 C 
HETATM   30  F   UNL     1       5.877  29.837  55.721  1.00  0.00    -0.166 F 
HETATM   31  F   UNL     1       3.992  29.049  56.422  1.00  0.00    -0.166 F 
HETATM   32  F   UNL     1       5.379  29.893  57.852  1.00  0.00    -0.166 F 
ENDBRANCH  24  29
ENDBRANCH   3  23
TORSDOF 5
ENDMDL
MODEL 2
REMARK VINA RESULT:      -9.2      3.684      5.112
REMARK  5 active torsions:
REMARK  status: ('A' for Active; 'I' for Inactive)
REMARK    1  A    between atoms: N_3  and  C_4 
REMARK    2  A    between atoms: C_5  and  C_6 
REMARK    3  A    between atoms: C_15  and  C_16 
REMARK       I    between atoms: C_16  and  N_17 
REMARK    4  A    between atoms: N_17  and  N_18 
REMARK       I    between atoms: N_18  and  C_19 
REMARK    5  A    between atoms: C_19  and  C_20 
ROOT
HETATM    1  C   UNL     1       4.561  24.999  53.252  1.00  0.00     0.070 C 
HETATM    2  C   UNL     1       5.311  25.844  54.256  1.00  0.00     0.036 A 
HETATM    3  N   UNL     1       6.479  25.355  54.854  1.00  0.00    -0.237 N 
HETATM    4  N   UNL     1       7.120  25.980  55.892  1.00  0.00    -0.158 NA
HETATM    5  C   UNL     1       6.676  27.136  56.302  1.00  0.00     0.196 A 
HETATM    6  C   UNL     1       5.502  27.793  55.626  1.00  0.00     0.209 A 
HETATM    7  O   UNL     1       5.162  28.927  55.937  1.00  0.00    -0.286 OA
HETATM    8  C   UNL     1       4.791  27.031  54.596  1.00  0.00     0.084 A 
ENDROOT
BRANCH   5   9
HETATM    9  C   UNL     1       7.391  27.772  57.490  1.00  0.00     0.294 C 
HETATM   10  N   UNL     1       7.073  29.090  57.756  1.00  0.00    -0.261 N 
HETATM   11  H   UNL     1       6.287  29.570  57.302  1.00  0.00     0.190 HD
HETATM   12  O   UNL     1       8.188  27.130  58.165  1.00  0.00    -0.264 OA
BRANCH  10  13
HETATM   13  N   UNL     1       7.563  29.654  58.943  1.00  0.00    -0.262 N 
HETATM   14  C   UNL     1       7.400  31.005  59.163  1.00  0.00     0.286 C 
HETATM   15  O   UNL     1       6.936  31.755  58.304  1.00  0.00    -0.264 OA
HETATM   16  H   UNL     1       7.853  29.006  59.670  1.00  0.00     0.190 HD
BRANCH  14  17
HETATM   17  C   UNL     1       7.802  31.478  60.470  1.00  0.00     0.102 A 
HETATM   18  N   UNL     1       7.066  31.176  61.597  1.00  0.00    -0.361 N 
HETATM   19  H   UNL     1       6.219  30.619  61.580  1.00  0.00     0.165 HD
HETATM   20  C   UNL     1       7.642  31.732  62.706  1.00  0.00     0.088 A 
HETATM   21  C   UNL     1       8.772  32.402  62.302  1.00  0.00     0.019 A 
HETATM   22  C   UNL     1       8.875  32.245  60.897  1.00  0.00     0.036 A 
ENDBRANCH  14  17
ENDBRANCH  10  13
ENDBRANCH   5   9
BRANCH   3  23
HETATM   23  C   UNL     1       7.101  24.122  54.489  1.00  0.00     0.073 A 
HETATM   24  C   UNL     1       7.798  23.971  53.271  1.00  0.00     0.076 A 
HETATM   25  C   UNL     1       8.355  22.714  52.949  1.00  0.00     0.018 A 
HETATM   26  C   UNL     1       8.239  21.631  53.817  1.00  0.00     0.001 A 
HETATM   27  C   UNL     1       7.554  21.776  55.016  1.00  0.00     0.002 A 
HETATM   28  C   UNL     1       6.984  23.008  55.344  1.00  0.00     0.032 A 
BRANCH  24  29
HETATM   29  C   UNL     1       7.973  25.113  52.300  1.00  0.00     0.419 C 
HETATM   30  F   UNL     1       8.152  26.334  52.884  1.00  0.00    -0.166 F 
HETATM   31  F   UNL     1       9.084  24.949  51.514  1.00  0.00    -0.166 F 
HETATM   32  F   UNL     1       6.943  25.245  51.421  1.00  0.00    -0.166 F 
ENDBRANCH  24  29
ENDBRANCH   3  23
TORSDOF 5
ENDMDL
MODEL 3
REMARK VINA RESULT:      -8.7      3.172      8.688
REMARK  5 active torsions:
REMARK  status: ('A' for Active; 'I' for Inactive)
REMARK    1  A    between atoms: N_3  and  C_4 
REMARK    2  A    between atoms: C_5  and  C_6 
REMARK    3  A    between atoms: C_15  and  C_16 
REMARK       I    between atoms: C_16  and  N_17 
REMARK    4  A    between atoms: N_17  and  N_18 
REMARK       I    between atoms: N_18  and  C_19 
REMARK    5  A    between atoms: C_19  and  C_20 
ROOT
HETATM    1  C   UNL     1       6.956  34.073  65.076  1.00  0.00     0.070 C 
HETATM    2  C   UNL     1       7.161  33.503  63.692  1.00  0.00     0.036 A 
HETATM    3  N   UNL     1       6.435  34.009  62.607  1.00  0.00    -0.237 N 
HETATM    4  N   UNL     1       6.435  33.439  61.360  1.00  0.00    -0.158 NA
HETATM    5  C   UNL     1       7.214  32.417  61.135  1.00  0.00     0.196 A 
HETATM    6  C   UNL     1       8.125  31.891  62.213  1.00  0.00     0.209 A 
HETATM    7  O   UNL     1       8.934  31.008  61.964  1.00  0.00    -0.286 OA
HETATM    8  C   UNL     1       8.002  32.468  63.554  1.00  0.00     0.084 A 
ENDROOT
BRANCH   5   9
HETATM    9  C   UNL     1       7.146  31.786  59.747  1.00  0.00     0.294 C 
HETATM   10  N   UNL     1       7.478  30.447  59.673  1.00  0.00    -0.261 N 
HETATM   11  H   UNL     1       7.600  29.861  60.507  1.00  0.00     0.190 HD
HETATM   12  O   UNL     1       6.801  32.442  58.771  1.00  0.00    -0.264 OA
BRANCH  10  13
HETATM   13  N   UNL     1       7.252  29.784  58.458  1.00  0.00    -0.262 N 
HETATM   14  C   UNL     1       8.329  29.430  57.673  1.00  0.00     0.286 C 
HETATM   15  O   UNL     1       9.477  29.774  57.948  1.00  0.00    -0.264 OA
HETATM   16  H   UNL     1       6.312  29.430  58.301  1.00  0.00     0.190 HD
BRANCH  14  17
HETATM   17  C   UNL     1       8.017  28.623  56.513  1.00  0.00     0.102 A 
HETATM   18  N   UNL     1       8.237  29.094  55.235  1.00  0.00    -0.361 N 
HETATM   19  H   UNL     1       8.619  30.010  55.034  1.00  0.00     0.165 HD
HETATM   20  C   UNL     1       7.866  28.155  54.311  1.00  0.00     0.088 A 
HETATM   21  C   UNL     1       7.402  27.054  54.992  1.00  0.00     0.019 A 
HETATM   22  C   UNL     1       7.495  27.345  56.376  1.00  0.00     0.036 A 
ENDBRANCH  14  17
ENDBRANCH  10  13
ENDBRANCH   5   9
BRANCH   3  23
HETATM   23  C   UNL     1       5.568  35.142  62.691  1.00  0.00     0.073 A 
HETATM   24  C   UNL     1       4.197  35.010  62.997  1.00  0.00     0.076 A 
HETATM   25  C   UNL     1       3.384  36.164  63.024  1.00  0.00     0.018 A 
HETATM   26  C   UNL     1       3.917  37.426  62.769  1.00  0.00     0.001 A 
HETATM   27  C   UNL     1       5.266  37.559  62.468  1.00  0.00     0.002 A 
HETATM   28  C   UNL     1       6.081  36.426  62.423  1.00  0.00     0.032 A 
BRANCH  24  29
HETATM   29  C   UNL     1       3.568  33.672  63.302  1.00  0.00     0.419 C 
HETATM   30  F   UNL     1       4.059  33.053  64.415  1.00  0.00    -0.166 F 
HETATM   31  F   UNL     1       2.223  33.783  63.542  1.00  0.00    -0.166 F 
HETATM   32  F   UNL     1       3.664  32.778  62.280  1.00  0.00    -0.166 F 
ENDBRANCH  24  29
ENDBRANCH   3  23
TORSDOF 5
ENDMDL
MODEL 4
REMARK VINA RESULT:      -8.5      1.713      2.305
REMARK  5 active torsions:
REMARK  status: ('A' for Active; 'I' for Inactive)
REMARK    1  A    between atoms: N_3  and  C_4 
REMARK    2  A    between atoms: C_5  and  C_6 
REMARK    3  A    between atoms: C_15  and  C_16 
REMARK       I    between atoms: C_16  and  N_17 
REMARK    4  A    between atoms: N_17  and  N_18 
REMARK       I    between atoms: N_18  and  C_19 
REMARK    5  A    between atoms: C_19  and  C_20 
ROOT
HETATM    1  C   UNL     1       9.105  28.663  54.476  1.00  0.00     0.070 C 
HETATM    2  C   UNL     1       9.078  29.326  55.833  1.00  0.00     0.036 A 
HETATM    3  N   UNL     1       7.874  29.434  56.540  1.00  0.00    -0.237 N 
HETATM    4  N   UNL     1       7.731  30.166  57.691  1.00  0.00    -0.158 NA
HETATM    5  C   UNL     1       8.785  30.731  58.213  1.00  0.00     0.196 A 
HETATM    6  C   UNL     1      10.143  30.556  57.585  1.00  0.00     0.209 A 
HETATM    7  O   UNL     1      11.143  30.991  58.140  1.00  0.00    -0.286 OA
HETATM    8  C   UNL     1      10.218  29.856  56.300  1.00  0.00     0.084 A 
ENDROOT
BRANCH   5   9
HETATM    9  C   UNL     1       8.570  31.574  59.466  1.00  0.00     0.294 C 
HETATM   10  N   UNL     1       7.853  30.976  60.484  1.00  0.00    -0.261 N 
HETATM   11  H   UNL     1       7.621  29.975  60.482  1.00  0.00     0.190 HD
HETATM   12  O   UNL     1       9.027  32.709  59.550  1.00  0.00    -0.264 OA
BRANCH  10  13
HETATM   13  N   UNL     1       7.792  31.639  61.718  1.00  0.00    -0.262 N 
HETATM   14  C   UNL     1       6.632  32.294  62.073  1.00  0.00     0.286 C 
HETATM   15  O   UNL     1       5.685  32.411  61.297  1.00  0.00    -0.264 OA
HETATM   16  H   UNL     1       8.544  31.450  62.375  1.00  0.00     0.190 HD
BRANCH  14  17
HETATM   17  C   UNL     1       6.602  32.826  63.419  1.00  0.00     0.102 A 
HETATM   18  N   UNL     1       5.408  33.092  64.057  1.00  0.00    -0.361 N 
HETATM   19  H   UNL     1       4.500  32.936  63.633  1.00  0.00     0.165 HD
HETATM   20  C   UNL     1       5.637  33.586  65.312  1.00  0.00     0.088 A 
HETATM   21  C   UNL     1       6.998  33.640  65.500  1.00  0.00     0.019 A 
HETATM   22  C   UNL     1       7.607  33.164  64.313  1.00  0.00     0.036 A 
ENDBRANCH  14  17
ENDBRANCH  10  13
ENDBRANCH   5   9
BRANCH   3  23
HETATM   23  C   UNL     1       6.647  28.842  56.112  1.00  0.00     0.073 A 
HETATM   24  C   UNL     1       6.311  27.508  56.431  1.00  0.00     0.076 A 
HETATM   25  C   UNL     1       5.102  26.968  55.942  1.00  0.00     0.018 A 
HETATM   26  C   UNL     1       4.233  27.731  55.165  1.00  0.00     0.001 A 
HETATM   27  C   UNL     1       4.561  29.044  54.850  1.00  0.00     0.002 A 
HETATM   28  C   UNL     1       5.760  29.589  55.313  1.00  0.00     0.032 A 
BRANCH  24  29
HETATM   29  C   UNL     1       7.203  26.639  57.285  1.00  0.00     0.419 C 
HETATM   30  F   UNL     1       6.632  25.469  57.694  1.00  0.00    -0.166 F 
HETATM   31  F   UNL     1       8.331  26.248  56.611  1.00  0.00    -0.166 F 
HETATM   32  F   UNL     1       7.665  27.264  58.402  1.00  0.00    -0.166 F 
ENDBRANCH  24  29
ENDBRANCH   3  23
TORSDOF 5
ENDMDL
MODEL 5
REMARK VINA RESULT:      -8.3      2.732      3.701
REMARK  5 active torsions:
REMARK  status: ('A' for Active; 'I' for Inactive)
REMARK    1  A    between atoms: N_3  and  C_4 
REMARK    2  A    between atoms: C_5  and  C_6 
REMARK    3  A    between atoms: C_15  and  C_16 
REMARK       I    between atoms: C_16  and  N_17 
REMARK    4  A    between atoms: N_17  and  N_18 
REMARK       I    between atoms: N_18  and  C_19 
REMARK    5  A    between atoms: C_19  and  C_20 
ROOT
HETATM    1  C   UNL     1       4.208  27.718  53.265  1.00  0.00     0.070 C 
HETATM    2  C   UNL     1       4.958  28.479  54.334  1.00  0.00     0.036 A 
HETATM    3  N   UNL     1       6.091  27.916  54.935  1.00  0.00    -0.237 N 
HETATM    4  N   UNL     1       6.724  28.460  56.022  1.00  0.00    -0.158 NA
HETATM    5  C   UNL     1       6.309  29.608  56.483  1.00  0.00     0.196 A 
HETATM    6  C   UNL     1       5.178  30.343  55.813  1.00  0.00     0.209 A 
HETATM    7  O   UNL     1       4.869  31.470  56.178  1.00  0.00    -0.286 OA
HETATM    8  C   UNL     1       4.471  29.664  54.725  1.00  0.00     0.084 A 
ENDROOT
BRANCH   5   9
HETATM    9  C   UNL     1       7.013  30.152  57.723  1.00  0.00     0.294 C 
HETATM   10  N   UNL     1       6.234  30.904  58.582  1.00  0.00    -0.261 N 
HETATM   11  H   UNL     1       5.212  30.959  58.495  1.00  0.00     0.190 HD
HETATM   12  O   UNL     1       8.197  29.915  57.933  1.00  0.00    -0.264 OA
BRANCH  10  13
HETATM   13  N   UNL     1       6.787  31.265  59.819  1.00  0.00    -0.262 N 
HETATM   14  C   UNL     1       6.278  32.356  60.491  1.00  0.00     0.286 C 
HETATM   15  O   UNL     1       5.427  33.091  59.992  1.00  0.00    -0.264 OA
HETATM   16  H   UNL     1       7.417  30.594  60.250  1.00  0.00     0.190 HD
BRANCH  14  17
HETATM   17  C   UNL     1       6.805  32.571  61.822  1.00  0.00     0.102 A 
HETATM   18  N   UNL     1       6.010  33.072  62.833  1.00  0.00    -0.361 N 
HETATM   19  H   UNL     1       5.035  33.315  62.710  1.00  0.00     0.165 HD
HETATM   20  C   UNL     1       6.730  33.186  63.991  1.00  0.00     0.088 A 
HETATM   21  C   UNL     1       8.009  32.751  63.737  1.00  0.00     0.019 A 
HETATM   22  C   UNL     1       8.059  32.364  62.375  1.00  0.00     0.036 A 
ENDBRANCH  14  17
ENDBRANCH  10  13
ENDBRANCH   5   9
BRANCH   3  23
HETATM   23  C   UNL     1       6.680  26.683  54.518  1.00  0.00     0.073 A 
HETATM   24  C   UNL     1       6.653  25.531  55.333  1.00  0.00     0.076 A 
HETATM   25  C   UNL     1       7.290  24.355  54.882  1.00  0.00     0.018 A 
HETATM   26  C   UNL     1       7.929  24.310  53.645  1.00  0.00     0.001 A 
HETATM   27  C   UNL     1       7.958  25.443  52.841  1.00  0.00     0.002 A 
HETATM   28  C   UNL     1       7.346  26.618  53.278  1.00  0.00     0.032 A 
BRANCH  24  29
HETATM   29  C   UNL     1       5.958  25.513  56.673  1.00  0.00     0.419 C 
HETATM   30  F   UNL     1       4.727  26.102  56.684  1.00  0.00    -0.166 F 
HETATM   31  F   UNL     1       5.725  24.234  57.109  1.00  0.00    -0.166 F 
HETATM   32  F   UNL     1       6.681  26.092  57.670  1.00  0.00    -0.166 F 
ENDBRANCH  24  29
ENDBRANCH   3  23
TORSDOF 5
ENDMDL
MODEL 6
REMARK VINA RESULT:      -8.2      6.493     10.259
REMARK  5 active torsions:
REMARK  status: ('A' for Active; 'I' for Inactive)
REMARK    1  A    between atoms: N_3  and  C_4 
REMARK    2  A    between atoms: C_5  and  C_6 
REMARK    3  A    between atoms: C_15  and  C_16 
REMARK       I    between atoms: C_16  and  N_17 
REMARK    4  A    between atoms: N_17  and  N_18 
REMARK       I    between atoms: N_18  and  C_19 
REMARK    5  A    between atoms: C_19  and  C_20 
ROOT
HETATM    1  C   UNL     1       8.207  26.558  56.897  1.00  0.00     0.070 C 
HETATM    2  C   UNL     1       7.047  26.927  56.001  1.00  0.00     0.036 A 
HETATM    3  N   UNL     1       6.609  26.035  55.014  1.00  0.00    -0.237 N 
HETATM    4  N   UNL     1       5.684  26.357  54.055  1.00  0.00    -0.158 NA
HETATM    5  C   UNL     1       5.111  27.529  54.100  1.00  0.00     0.196 A 
HETATM    6  C   UNL     1       5.431  28.499  55.207  1.00  0.00     0.209 A 
HETATM    7  O   UNL     1       4.809  29.548  55.311  1.00  0.00    -0.286 OA
HETATM    8  C   UNL     1       6.505  28.145  56.139  1.00  0.00     0.084 A 
ENDROOT
BRANCH   5   9
HETATM    9  C   UNL     1       4.124  27.862  52.986  1.00  0.00     0.294 C 
HETATM   10  N   UNL     1       4.593  27.711  51.695  1.00  0.00    -0.261 N 
HETATM   11  H   UNL     1       5.484  27.246  51.482  1.00  0.00     0.190 HD
HETATM   12  O   UNL     1       2.983  28.228  53.241  1.00  0.00    -0.264 OA
BRANCH  10  13
HETATM   13  N   UNL     1       3.669  27.826  50.646  1.00  0.00    -0.262 N 
HETATM   14  C   UNL     1       3.861  27.090  49.496  1.00  0.00     0.286 C 
HETATM   15  O   UNL     1       4.875  26.419  49.313  1.00  0.00    -0.264 OA
HETATM   16  H   UNL     1       2.799  28.308  50.856  1.00  0.00     0.190 HD
BRANCH  14  17
HETATM   17  C   UNL     1       2.788  27.155  48.527  1.00  0.00     0.102 A 
HETATM   18  N   UNL     1       1.492  27.430  48.912  1.00  0.00    -0.361 N 
HETATM   19  H   UNL     1       1.217  27.597  49.872  1.00  0.00     0.165 HD
HETATM   20  C   UNL     1       0.663  27.437  47.823  1.00  0.00     0.088 A 
HETATM   21  C   UNL     1       1.426  27.170  46.711  1.00  0.00     0.019 A 
HETATM   22  C   UNL     1       2.762  26.991  47.150  1.00  0.00     0.036 A 
ENDBRANCH  14  17
ENDBRANCH  10  13
ENDBRANCH   5   9
BRANCH   3  23
HETATM   23  C   UNL     1       7.118  24.709  54.860  1.00  0.00     0.073 A 
HETATM   24  C   UNL     1       7.753  24.286  53.673  1.00  0.00     0.076 A 
HETATM   25  C   UNL     1       8.196  22.950  53.568  1.00  0.00     0.018 A 
HETATM   26  C   UNL     1       8.030  22.052  54.619  1.00  0.00     0.001 A 
HETATM   27  C   UNL     1       7.406  22.465  55.789  1.00  0.00     0.002 A 
HETATM   28  C   UNL     1       6.948  23.778  55.904  1.00  0.00     0.032 A 
BRANCH  24  29
HETATM   29  C   UNL     1       7.978  25.220  52.508  1.00  0.00     0.419 C 
HETATM   30  F   UNL     1       8.934  24.807  51.625  1.00  0.00    -0.166 F 
HETATM   31  F   UNL     1       6.850  25.363  51.743  1.00  0.00    -0.166 F 
HETATM   32  F   UNL     1       8.307  26.487  52.880  1.00  0.00    -0.166 F 
ENDBRANCH  24  29
ENDBRANCH   3  23
TORSDOF 5
ENDMDL
MODEL 7
REMARK VINA RESULT:      -8.1      6.007      9.991
REMARK  5 active torsions:
REMARK  status: ('A' for Active; 'I' for Inactive)
REMARK    1  A    between atoms: N_3  and  C_4 
REMARK    2  A    between atoms: C_5  and  C_6 
REMARK    3  A    between atoms: C_15  and  C_16 
REMARK       I    between atoms: C_16  and  N_17 
REMARK    4  A    between atoms: N_17  and  N_18 
REMARK       I    between atoms: N_18  and  C_19 
REMARK    5  A    between atoms: C_19  and  C_20 
ROOT
HETATM    1  C   UNL     1       7.878  25.581  57.295  1.00  0.00     0.070 C 
HETATM    2  C   UNL     1       7.409  26.044  55.936  1.00  0.00     0.036 A 
HETATM    3  N   UNL     1       7.298  27.412  55.657  1.00  0.00    -0.237 N 
HETATM    4  N   UNL     1       6.723  27.912  54.518  1.00  0.00    -0.158 NA
HETATM    5  C   UNL     1       6.326  27.079  53.595  1.00  0.00     0.196 A 
HETATM    6  C   UNL     1       6.527  25.595  53.760  1.00  0.00     0.209 A 
HETATM    7  O   UNL     1       6.258  24.828  52.845  1.00  0.00    -0.286 OA
HETATM    8  C   UNL     1       7.046  25.113  55.042  1.00  0.00     0.084 A 
ENDROOT
BRANCH   5   9
HETATM    9  C   UNL     1       5.648  27.678  52.366  1.00  0.00     0.294 C 
HETATM   10  N   UNL     1       4.653  26.913  51.789  1.00  0.00    -0.261 N 
HETATM   11  H   UNL     1       4.266  26.076  52.243  1.00  0.00     0.190 HD
HETATM   12  O   UNL     1       5.974  28.779  51.939  1.00  0.00    -0.264 OA
BRANCH  10  13
HETATM   13  N   UNL     1       3.881  27.501  50.777  1.00  0.00    -0.262 N 
HETATM   14  C   UNL     1       3.890  26.946  49.515  1.00  0.00     0.286 C 
HETATM   15  O   UNL     1       4.640  26.017  49.216  1.00  0.00    -0.264 OA
HETATM   16  H   UNL     1       3.204  28.202  51.068  1.00  0.00     0.190 HD
BRANCH  14  17
HETATM   17  C   UNL     1       2.957  27.524  48.571  1.00  0.00     0.102 A 
HETATM   18  N   UNL     1       1.643  27.108  48.520  1.00  0.00    -0.361 N 
HETATM   19  H   UNL     1       1.259  26.390  49.123  1.00  0.00     0.165 HD
HETATM   20  C   UNL     1       0.963  27.797  47.553  1.00  0.00     0.088 A 
HETATM   21  C   UNL     1       1.841  28.678  46.967  1.00  0.00     0.019 A 
HETATM   22  C   UNL     1       3.096  28.508  47.605  1.00  0.00     0.036 A 
ENDBRANCH  14  17
ENDBRANCH  10  13
ENDBRANCH   5   9
BRANCH   3  23
HETATM   23  C   UNL     1       7.721  28.441  56.554  1.00  0.00     0.073 A 
HETATM   24  C   UNL     1       6.797  29.212  57.292  1.00  0.00     0.076 A 
HETATM   25  C   UNL     1       7.276  30.243  58.130  1.00  0.00     0.018 A 
HETATM   26  C   UNL     1       8.641  30.497  58.250  1.00  0.00     0.001 A 
HETATM   27  C   UNL     1       9.552  29.739  57.526  1.00  0.00     0.002 A 
HETATM   28  C   UNL     1       9.094  28.727  56.681  1.00  0.00     0.032 A 
BRANCH  24  29
HETATM   29  C   UNL     1       5.309  28.969  57.218  1.00  0.00     0.419 C 
HETATM   30  F   UNL     1       4.933  27.676  57.438  1.00  0.00    -0.166 F 
HETATM   31  F   UNL     1       4.627  29.685  58.167  1.00  0.00    -0.166 F 
HETATM   32  F   UNL     1       4.753  29.346  56.034  1.00  0.00    -0.166 F 
ENDBRANCH  24  29
ENDBRANCH   3  23
TORSDOF 5
ENDMDL
MODEL 8
REMARK VINA RESULT:      -8.0      3.942      9.288
REMARK  5 active torsions:
REMARK  status: ('A' for Active; 'I' for Inactive)
REMARK    1  A    between atoms: N_3  and  C_4 
REMARK    2  A    between atoms: C_5  and  C_6 
REMARK    3  A    between atoms: C_15  and  C_16 
REMARK       I    between atoms: C_16  and  N_17 
REMARK    4  A    between atoms: N_17  and  N_18 
REMARK       I    between atoms: N_18  and  C_19 
REMARK    5  A    between atoms: C_19  and  C_20 
ROOT
HETATM    1  C   UNL     1       3.681  35.652  65.208  1.00  0.00     0.070 C 
HETATM    2  C   UNL     1       4.423  34.811  64.195  1.00  0.00     0.036 A 
HETATM    3  N   UNL     1       5.054  35.419  63.103  1.00  0.00    -0.237 N 
HETATM    4  N   UNL     1       5.599  34.723  62.055  1.00  0.00    -0.158 NA
HETATM    5  C   UNL     1       5.609  33.419  62.103  1.00  0.00     0.196 A 
HETATM    6  C   UNL     1       5.067  32.688  63.304  1.00  0.00     0.209 A 
HETATM    7  O   UNL     1       5.183  31.474  63.395  1.00  0.00    -0.286 OA
HETATM    8  C   UNL     1       4.400  33.479  64.342  1.00  0.00     0.084 A 
ENDROOT
BRANCH   5   9
HETATM    9  C   UNL     1       6.182  32.685  60.894  1.00  0.00     0.294 C 
HETATM   10  N   UNL     1       7.299  31.907  61.130  1.00  0.00    -0.261 N 
HETATM   11  H   UNL     1       7.632  31.692  62.077  1.00  0.00     0.190 HD
HETATM   12  O   UNL     1       5.659  32.782  59.790  1.00  0.00    -0.264 OA
BRANCH  10  13
HETATM   13  N   UNL     1       7.746  31.073  60.094  1.00  0.00    -0.262 N 
HETATM   14  C   UNL     1       8.786  31.493  59.293  1.00  0.00     0.286 C 
HETATM   15  O   UNL     1       9.265  32.623  59.384  1.00  0.00    -0.264 OA
HETATM   16  H   UNL     1       7.402  30.117  60.100  1.00  0.00     0.190 HD
BRANCH  14  17
HETATM   17  C   UNL     1       9.279  30.515  58.346  1.00  0.00     0.102 A 
HETATM   18  N   UNL     1       8.516  29.426  57.981  1.00  0.00    -0.361 N 
HETATM   19  H   UNL     1       7.587  29.246  58.343  1.00  0.00     0.165 HD
HETATM   20  C   UNL     1       9.193  28.650  57.080  1.00  0.00     0.088 A 
HETATM   21  C   UNL     1      10.413  29.241  56.849  1.00  0.00     0.019 A 
HETATM   22  C   UNL     1      10.470  30.413  57.644  1.00  0.00     0.036 A 
ENDBRANCH  14  17
ENDBRANCH  10  13
ENDBRANCH   5   9
BRANCH   3  23
HETATM   23  C   UNL     1       5.152  36.834  62.929  1.00  0.00     0.073 A 
HETATM   24  C   UNL     1       4.318  37.535  62.032  1.00  0.00     0.076 A 
HETATM   25  C   UNL     1       4.493  38.927  61.875  1.00  0.00     0.018 A 
HETATM   26  C   UNL     1       5.461  39.618  62.600  1.00  0.00     0.001 A 
HETATM   27  C   UNL     1       6.283  38.930  63.485  1.00  0.00     0.002 A 
HETATM   28  C   UNL     1       6.134  37.552  63.640  1.00  0.00     0.032 A 
BRANCH  24  29
HETATM   29  C   UNL     1       3.239  36.844  61.234  1.00  0.00     0.419 C 
HETATM   30  F   UNL     1       3.699  35.963  60.299  1.00  0.00    -0.166 F 
HETATM   31  F   UNL     1       2.418  36.091  62.033  1.00  0.00    -0.166 F 
HETATM   32  F   UNL     1       2.403  37.702  60.589  1.00  0.00    -0.166 F 
ENDBRANCH  24  29
ENDBRANCH   3  23
TORSDOF 5
ENDMDL
MODEL 9
REMARK VINA RESULT:      -8.0      7.113     10.143
REMARK  5 active torsions:
REMARK  status: ('A' for Active; 'I' for Inactive)
REMARK    1  A    between atoms: N_3  and  C_4 
REMARK    2  A    between atoms: C_5  and  C_6 
REMARK    3  A    between atoms: C_15  and  C_16 
REMARK       I    between atoms: C_16  and  N_17 
REMARK    4  A    between atoms: N_17  and  N_18 
REMARK       I    between atoms: N_18  and  C_19 
REMARK    5  A    between atoms: C_19  and  C_20 
ROOT
HETATM    1  C   UNL     1       9.190  24.763  57.205  1.00  0.00     0.070 C 
HETATM    2  C   UNL     1       7.992  25.091  56.346  1.00  0.00     0.036 A 
HETATM    3  N   UNL     1       7.400  24.100  55.554  1.00  0.00    -0.237 N 
HETATM    4  N   UNL     1       6.425  24.351  54.623  1.00  0.00    -0.158 NA
HETATM    5  C   UNL     1       5.955  25.563  54.516  1.00  0.00     0.196 A 
HETATM    6  C   UNL     1       6.446  26.662  55.421  1.00  0.00     0.209 A 
HETATM    7  O   UNL     1       5.921  27.768  55.394  1.00  0.00    -0.286 OA
HETATM    8  C   UNL     1       7.563  26.361  56.319  1.00  0.00     0.084 A 
ENDROOT
BRANCH   5   9
HETATM    9  C   UNL     1       4.906  25.806  53.435  1.00  0.00     0.294 C 
HETATM   10  N   UNL     1       4.794  27.105  52.978  1.00  0.00    -0.261 N 
HETATM   11  H   UNL     1       5.478  27.835  53.216  1.00  0.00     0.190 HD
HETATM   12  O   UNL     1       4.221  24.887  53.001  1.00  0.00    -0.264 OA
BRANCH  10  13
HETATM   13  N   UNL     1       3.979  27.338  51.862  1.00  0.00    -0.262 N 
HETATM   14  C   UNL     1       4.566  27.573  50.636  1.00  0.00     0.286 C 
HETATM   15  O   UNL     1       5.783  27.695  50.509  1.00  0.00    -0.264 OA
HETATM   16  H   UNL     1       2.988  27.140  51.972  1.00  0.00     0.190 HD
BRANCH  14  17
HETATM   17  C   UNL     1       3.656  27.658  49.514  1.00  0.00     0.102 A 
HETATM   18  N   UNL     1       2.341  28.038  49.687  1.00  0.00    -0.361 N 
HETATM   19  H   UNL     1       1.940  28.274  50.587  1.00  0.00     0.165 HD
HETATM   20  C   UNL     1       1.685  28.044  48.487  1.00  0.00     0.088 A 
HETATM   21  C   UNL     1       2.582  27.667  47.515  1.00  0.00     0.019 A 
HETATM   22  C   UNL     1       3.821  27.424  48.158  1.00  0.00     0.036 A 
ENDBRANCH  14  17
ENDBRANCH  10  13
ENDBRANCH   5   9
BRANCH   3  23
HETATM   23  C   UNL     1       7.785  22.724  55.586  1.00  0.00     0.073 A 
HETATM   24  C   UNL     1       8.046  21.995  54.406  1.00  0.00     0.076 A 
HETATM   25  C   UNL     1       8.381  20.627  54.503  1.00  0.00     0.018 A 
HETATM   26  C   UNL     1       8.472  19.993  55.741  1.00  0.00     0.001 A 
HETATM   27  C   UNL     1       8.216  20.709  56.904  1.00  0.00     0.002 A 
HETATM   28  C   UNL     1       7.868  22.058  56.825  1.00  0.00     0.032 A 
BRANCH  24  29
HETATM   29  C   UNL     1       7.983  22.632  53.039  1.00  0.00     0.419 C 
HETATM   30  F   UNL     1       6.732  23.009  52.645  1.00  0.00    -0.166 F 
HETATM   31  F   UNL     1       8.718  23.787  52.981  1.00  0.00    -0.166 F 
HETATM   32  F   UNL     1       8.489  21.849  52.048  1.00  0.00    -0.166 F 
ENDBRANCH  24  29
ENDBRANCH   3  23
TORSDOF 5
ENDMDL
MODEL 10
REMARK VINA RESULT:      -8.0      6.145     10.132
REMARK  5 active torsions:
REMARK  status: ('A' for Active; 'I' for Inactive)
REMARK    1  A    between atoms: N_3  and  C_4 
REMARK    2  A    between atoms: C_5  and  C_6 
REMARK    3  A    between atoms: C_15  and  C_16 
REMARK       I    between atoms: C_16  and  N_17 
REMARK    4  A    between atoms: N_17  and  N_18 
REMARK       I    between atoms: N_18  and  C_19 
REMARK    5  A    between atoms: C_19  and  C_20 
ROOT
HETATM    1  C   UNL     1       7.752  26.404  57.448  1.00  0.00     0.070 C 
HETATM    2  C   UNL     1       7.339  26.780  56.044  1.00  0.00     0.036 A 
HETATM    3  N   UNL     1       6.945  28.092  55.754  1.00  0.00    -0.237 N 
HETATM    4  N   UNL     1       6.397  28.474  54.557  1.00  0.00    -0.158 NA
HETATM    5  C   UNL     1       6.305  27.595  53.597  1.00  0.00     0.196 A 
HETATM    6  C   UNL     1       6.825  26.194  53.784  1.00  0.00     0.209 A 
HETATM    7  O   UNL     1       6.841  25.408  52.846  1.00  0.00    -0.286 OA
HETATM    8  C   UNL     1       7.300  25.813  55.117  1.00  0.00     0.084 A 
ENDROOT
BRANCH   5   9
HETATM    9  C   UNL     1       5.645  28.052  52.300  1.00  0.00     0.294 C 
HETATM   10  N   UNL     1       4.613  27.260  51.832  1.00  0.00    -0.261 N 
HETATM   11  H   UNL     1       4.195  26.509  52.395  1.00  0.00     0.190 HD
HETATM   12  O   UNL     1       6.014  29.071  51.727  1.00  0.00    -0.264 OA
BRANCH  10  13
HETATM   13  N   UNL     1       3.859  27.739  50.751  1.00  0.00    -0.262 N 
HETATM   14  C   UNL     1       3.787  26.990  49.596  1.00  0.00     0.286 C 
HETATM   15  O   UNL     1       4.452  25.967  49.440  1.00  0.00    -0.264 OA
HETATM   16  H   UNL     1       3.249  28.531  50.937  1.00  0.00     0.190 HD
BRANCH  14  17
HETATM   17  C   UNL     1       2.874  27.484  48.587  1.00  0.00     0.102 A 
HETATM   18  N   UNL     1       1.611  26.949  48.443  1.00  0.00    -0.361 N 
HETATM   19  H   UNL     1       1.253  26.196  49.019  1.00  0.00     0.165 HD
HETATM   20  C   UNL     1       0.941  27.577  47.429  1.00  0.00     0.088 A 
HETATM   21  C   UNL     1       1.773  28.538  46.906  1.00  0.00     0.019 A 
HETATM   22  C   UNL     1       2.989  28.482  47.631  1.00  0.00     0.036 A 
ENDBRANCH  14  17
ENDBRANCH  10  13
ENDBRANCH   5   9
BRANCH   3  23
HETATM   23  C   UNL     1       7.019  29.168  56.691  1.00  0.00     0.073 A 
HETATM   24  C   UNL     1       8.235  29.823  56.981  1.00  0.00     0.076 A 
HETATM   25  C   UNL     1       8.249  30.851  57.948  1.00  0.00     0.018 A 
HETATM   26  C   UNL     1       7.084  31.237  58.606  1.00  0.00     0.001 A 
HETATM   27  C   UNL     1       5.885  30.594  58.323  1.00  0.00     0.002 A 
HETATM   28  C   UNL     1       5.856  29.565  57.381  1.00  0.00     0.032 A 
BRANCH  24  29
HETATM   29  C   UNL     1       9.526  29.462  56.285  1.00  0.00     0.419 C 
HETATM   30  F   UNL     1       9.403  29.227  54.946  1.00  0.00    -0.166 F 
HETATM   31  F   UNL     1      10.449  30.472  56.368  1.00  0.00    -0.166 F 
HETATM   32  F   UNL     1      10.149  28.377  56.820  1.00  0.00    -0.166 F 
ENDBRANCH  24  29
ENDBRANCH   3  23
TORSDOF 5
ENDMDL
