MODEL 1
REMARK VINA RESULT:      -9.4      0.000      0.000
REMARK  4 active torsions:
REMARK  status: ('A' for Active; 'I' for Inactive)
REMARK    1  A    between atoms: O_2  and  C_3 
REMARK    2  A    between atoms: C_6  and  C_7 
REMARK    3  A    between atoms: C_9  and  N_10 
REMARK       I    between atoms: N_10  and  C_11 
REMARK    4  A    between atoms: C_11  and  C_12 
ROOT
HETATM    1  C   UNL     1       8.436  30.027  58.694  1.00  0.00     0.173 A 
HETATM    2  N   UNL     1       8.057  28.781  58.471  1.00  0.00    -0.041 NA
HETATM    3  C   UNL     1       8.775  28.405  57.367  1.00  0.00     0.748 A 
HETATM    4  N   UNL     1       9.580  29.351  56.892  1.00  0.00     0.021 NA
HETATM    5  N   UNL     1       9.353  30.360  57.735  1.00  0.00    -0.244 N 
HETATM    6  H   UNL     1       9.868  31.223  57.617  1.00  0.00     0.191 HD
ENDROOT
BRANCH   3   7
HETATM    7  N   UNL     1       8.596  27.133  56.899  1.00  0.00    -0.150 N 
HETATM    8  C   UNL     1       7.574  26.735  56.072  1.00  0.00     0.270 C 
HETATM    9  O   UNL     1       6.655  27.433  55.658  1.00  0.00    -0.267 OA
HETATM   10  H   UNL     1       9.286  26.491  57.251  1.00  0.00     0.188 HD
BRANCH   8  11
HETATM   11  C   UNL     1       7.586  25.294  55.662  1.00  0.00     0.035 A 
HETATM   12  C   UNL     1       8.057  24.269  56.492  1.00  0.00     0.056 A 
HETATM   13  C   UNL     1       8.039  22.947  56.041  1.00  0.00     0.103 A 
HETATM   14  C   UNL     1       7.597  22.642  54.749  1.00  0.00     0.102 A 
HETATM   15  O   UNL     1       8.487  21.994  56.923  1.00  0.00    -0.346 OA
HETATM   16  O   UNL     1       7.594  21.372  54.234  1.00  0.00    -0.346 OA
HETATM   17  C   UNL     1       7.130  23.655  53.919  1.00  0.00     0.040 A 
HETATM   18  C   UNL     1       8.405  20.489  55.018  1.00  0.00     0.202 C 
HETATM   19  C   UNL     1       8.118  20.675  56.499  1.00  0.00     0.202 C 
HETATM   20  C   UNL     1       7.127  24.976  54.373  1.00  0.00     0.020 A 
ENDBRANCH   8  11
ENDBRANCH   3   7
BRANCH   1  21
HETATM   21  C   UNL     1       8.016  30.904  59.787  1.00  0.00     0.012 A 
HETATM   22  C   UNL     1       8.726  30.891  60.993  1.00  0.00     0.018 A 
HETATM   23  C   UNL     1       8.372  31.747  62.042  1.00  0.00     0.037 A 
HETATM   24  C   UNL     1       7.300  32.630  61.908  1.00  0.00     0.068 A 
HETATM   25  C   UNL     1       6.568  32.632  60.722  1.00  0.00     0.037 A 
HETATM   26  C   UNL     1       6.924  31.776  59.670  1.00  0.00     0.018 A 
BRANCH  24  27
HETATM   27  O   UNL     1       7.067  33.422  62.997  1.00  0.00    -0.356 OA
HETATM   28  C   UNL     1       7.702  33.046  64.213  1.00  0.00     0.210 C 
ENDBRANCH  24  27
ENDBRANCH   1  21
TORSDOF 4
ENDMDL
MODEL 2
REMARK VINA RESULT:      -9.4      1.693     10.241
REMARK  4 active torsions:
REMARK  status: ('A' for Active; 'I' for Inactive)
REMARK    1  A    between atoms: O_2  and  C_3 
REMARK    2  A    between atoms: C_6  and  C_7 
REMARK    3  A    between atoms: C_9  and  N_10 
REMARK       I    between atoms: N_10  and  C_11 
REMARK    4  A    between atoms: C_11  and  C_12 
ROOT
HETATM    1  C   UNL     1       8.338  28.254  57.392  1.00  0.00     0.173 A 
HETATM    2  N   UNL     1       7.831  28.638  58.551  1.00  0.00    -0.041 NA
HETATM    3  C   UNL     1       8.465  29.823  58.818  1.00  0.00     0.748 A 
HETATM    4  N   UNL     1       9.339  30.196  57.887  1.00  0.00     0.021 NA
HETATM    5  N   UNL     1       9.246  29.200  57.003  1.00  0.00    -0.244 N 
HETATM    6  H   UNL     1       9.802  29.242  56.158  1.00  0.00     0.191 HD
ENDROOT
BRANCH   3   7
HETATM    7  N   UNL     1       8.129  30.474  59.972  1.00  0.00    -0.150 N 
HETATM    8  C   UNL     1       7.477  31.682  60.033  1.00  0.00     0.270 C 
HETATM    9  O   UNL     1       7.133  32.375  59.081  1.00  0.00    -0.267 OA
HETATM   10  H   UNL     1       8.437  29.986  60.795  1.00  0.00     0.188 HD
BRANCH   8  11
HETATM   11  C   UNL     1       7.187  32.202  61.407  1.00  0.00     0.035 A 
HETATM   12  C   UNL     1       5.957  32.772  61.763  1.00  0.00     0.056 A 
HETATM   13  C   UNL     1       5.759  33.237  63.065  1.00  0.00     0.103 A 
HETATM   14  C   UNL     1       6.793  33.181  64.006  1.00  0.00     0.102 A 
HETATM   15  O   UNL     1       4.518  33.753  63.347  1.00  0.00    -0.346 OA
HETATM   16  O   UNL     1       6.674  33.658  65.285  1.00  0.00    -0.346 OA
HETATM   17  C   UNL     1       8.016  32.618  63.659  1.00  0.00     0.040 A 
HETATM   18  C   UNL     1       5.533  34.513  65.419  1.00  0.00     0.202 C 
HETATM   19  C   UNL     1       4.316  33.885  64.760  1.00  0.00     0.202 C 
HETATM   20  C   UNL     1       8.213  32.133  62.364  1.00  0.00     0.020 A 
ENDBRANCH   8  11
ENDBRANCH   3   7
BRANCH   1  21
HETATM   21  C   UNL     1       7.981  27.070  56.612  1.00  0.00     0.012 A 
HETATM   22  C   UNL     1       8.180  25.797  57.160  1.00  0.00     0.018 A 
HETATM   23  C   UNL     1       7.811  24.647  56.453  1.00  0.00     0.037 A 
HETATM   24  C   UNL     1       7.239  24.745  55.185  1.00  0.00     0.068 A 
HETATM   25  C   UNL     1       7.060  26.006  54.618  1.00  0.00     0.037 A 
HETATM   26  C   UNL     1       7.429  27.159  55.326  1.00  0.00     0.018 A 
BRANCH  24  27
HETATM   27  O   UNL     1       6.909  23.551  54.609  1.00  0.00    -0.356 OA
HETATM   28  C   UNL     1       7.621  22.404  55.055  1.00  0.00     0.210 C 
ENDBRANCH  24  27
ENDBRANCH   1  21
TORSDOF 4
ENDMDL
MODEL 3
REMARK VINA RESULT:      -9.3      1.679     10.090
REMARK  4 active torsions:
REMARK  status: ('A' for Active; 'I' for Inactive)
REMARK    1  A    between atoms: O_2  and  C_3 
REMARK    2  A    between atoms: C_6  and  C_7 
REMARK    3  A    between atoms: C_9  and  N_10 
REMARK       I    between atoms: N_10  and  C_11 
REMARK    4  A    between atoms: C_11  and  C_12 
ROOT
HETATM    1  C   UNL     1       7.893  27.178  56.913  1.00  0.00     0.173 A 
HETATM    2  N   UNL     1       7.612  27.705  58.093  1.00  0.00    -0.041 NA
HETATM    3  C   UNL     1       7.749  29.054  57.899  1.00  0.00     0.748 A 
HETATM    4  N   UNL     1       8.100  29.394  56.662  1.00  0.00     0.021 NA
HETATM    5  N   UNL     1       8.187  28.206  56.060  1.00  0.00    -0.244 N 
HETATM    6  H   UNL     1       8.420  28.172  55.076  1.00  0.00     0.191 HD
ENDROOT
BRANCH   3   7
HETATM    7  N   UNL     1       7.506  29.874  58.965  1.00  0.00    -0.150 N 
HETATM    8  C   UNL     1       8.457  30.620  59.619  1.00  0.00     0.270 C 
HETATM    9  O   UNL     1       9.660  30.641  59.379  1.00  0.00    -0.267 OA
HETATM   10  H   UNL     1       6.542  29.857  59.254  1.00  0.00     0.188 HD
BRANCH   8  11
HETATM   11  C   UNL     1       7.963  31.469  60.749  1.00  0.00     0.035 A 
HETATM   12  C   UNL     1       6.905  32.378  60.614  1.00  0.00     0.056 A 
HETATM   13  C   UNL     1       6.498  33.139  61.712  1.00  0.00     0.103 A 
HETATM   14  C   UNL     1       7.169  33.035  62.936  1.00  0.00     0.102 A 
HETATM   15  O   UNL     1       5.435  33.983  61.511  1.00  0.00    -0.346 OA
HETATM   16  O   UNL     1       6.845  33.783  64.038  1.00  0.00    -0.346 OA
HETATM   17  C   UNL     1       8.220  32.136  63.077  1.00  0.00     0.040 A 
HETATM   18  C   UNL     1       6.012  34.894  63.687  1.00  0.00     0.202 C 
HETATM   19  C   UNL     1       4.897  34.452  62.754  1.00  0.00     0.202 C 
HETATM   20  C   UNL     1       8.618  31.358  61.987  1.00  0.00     0.020 A 
ENDBRANCH   8  11
ENDBRANCH   3   7
BRANCH   1  21
HETATM   21  C   UNL     1       7.855  25.766  56.536  1.00  0.00     0.012 A 
HETATM   22  C   UNL     1       8.556  24.828  57.304  1.00  0.00     0.018 A 
HETATM   23  C   UNL     1       8.506  23.465  56.991  1.00  0.00     0.037 A 
HETATM   24  C   UNL     1       7.758  23.013  55.905  1.00  0.00     0.068 A 
HETATM   25  C   UNL     1       7.078  23.939  55.117  1.00  0.00     0.037 A 
HETATM   26  C   UNL     1       7.126  25.305  55.430  1.00  0.00     0.018 A 
BRANCH  24  27
HETATM   27  O   UNL     1       7.779  21.659  55.716  1.00  0.00    -0.356 OA
HETATM   28  C   UNL     1       8.433  20.881  56.711  1.00  0.00     0.210 C 
ENDBRANCH  24  27
ENDBRANCH   1  21
TORSDOF 4
ENDMDL
MODEL 4
REMARK VINA RESULT:      -9.0      1.657      9.787
REMARK  4 active torsions:
REMARK  status: ('A' for Active; 'I' for Inactive)
REMARK    1  A    between atoms: O_2  and  C_3 
REMARK    2  A    between atoms: C_6  and  C_7 
REMARK    3  A    between atoms: C_9  and  N_10 
REMARK       I    between atoms: N_10  and  C_11 
REMARK    4  A    between atoms: C_11  and  C_12 
ROOT
HETATM    1  C   UNL     1       7.496  26.186  54.755  1.00  0.00     0.173 A 
HETATM    2  N   UNL     1       7.400  26.743  55.950  1.00  0.00    -0.041 NA
HETATM    3  C   UNL     1       7.240  28.077  55.686  1.00  0.00     0.748 A 
HETATM    4  N   UNL     1       7.231  28.379  54.390  1.00  0.00     0.021 NA
HETATM    5  N   UNL     1       7.393  27.182  53.824  1.00  0.00    -0.244 N 
HETATM    6  H   UNL     1       7.399  27.114  52.814  1.00  0.00     0.191 HD
ENDROOT
BRANCH   3   7
HETATM    7  N   UNL     1       7.101  28.921  56.752  1.00  0.00    -0.150 N 
HETATM    8  C   UNL     1       8.141  29.478  57.457  1.00  0.00     0.270 C 
HETATM    9  O   UNL     1       9.337  29.282  57.270  1.00  0.00    -0.267 OA
HETATM   10  H   UNL     1       6.138  29.078  56.998  1.00  0.00     0.188 HD
BRANCH   8  11
HETATM   11  C   UNL     1       7.757  30.396  58.576  1.00  0.00     0.035 A 
HETATM   12  C   UNL     1       8.339  30.333  59.848  1.00  0.00     0.056 A 
HETATM   13  C   UNL     1       7.930  31.221  60.845  1.00  0.00     0.103 A 
HETATM   14  C   UNL     1       6.909  32.145  60.597  1.00  0.00     0.102 A 
HETATM   15  O   UNL     1       8.569  31.119  62.056  1.00  0.00    -0.346 OA
HETATM   16  O   UNL     1       6.434  33.015  61.545  1.00  0.00    -0.346 OA
HETATM   17  C   UNL     1       6.325  32.213  59.337  1.00  0.00     0.040 A 
HETATM   18  C   UNL     1       6.842  32.626  62.861  1.00  0.00     0.202 C 
HETATM   19  C   UNL     1       8.319  32.267  62.877  1.00  0.00     0.202 C 
HETATM   20  C   UNL     1       6.745  31.340  58.331  1.00  0.00     0.020 A 
ENDBRANCH   8  11
ENDBRANCH   3   7
BRANCH   1  21
HETATM   21  C   UNL     1       7.632  24.763  54.445  1.00  0.00     0.012 A 
HETATM   22  C   UNL     1       7.655  23.829  55.487  1.00  0.00     0.018 A 
HETATM   23  C   UNL     1       7.745  22.458  55.219  1.00  0.00     0.037 A 
HETATM   24  C   UNL     1       7.815  21.994  53.906  1.00  0.00     0.068 A 
HETATM   25  C   UNL     1       7.820  22.916  52.860  1.00  0.00     0.037 A 
HETATM   26  C   UNL     1       7.729  24.290  53.128  1.00  0.00     0.018 A 
BRANCH  24  27
HETATM   27  O   UNL     1       7.883  20.635  53.778  1.00  0.00    -0.356 OA
HETATM   28  C   UNL     1       8.695  19.941  54.717  1.00  0.00     0.210 C 
ENDBRANCH  24  27
ENDBRANCH   1  21
TORSDOF 4
ENDMDL
MODEL 5
REMARK VINA RESULT:      -8.8      6.796     10.686
REMARK  4 active torsions:
REMARK  status: ('A' for Active; 'I' for Inactive)
REMARK    1  A    between atoms: O_2  and  C_3 
REMARK    2  A    between atoms: C_6  and  C_7 
REMARK    3  A    between atoms: C_9  and  N_10 
REMARK       I    between atoms: N_10  and  C_11 
REMARK    4  A    between atoms: C_11  and  C_12 
ROOT
HETATM    1  C   UNL     1       6.524  25.209  53.036  1.00  0.00     0.173 A 
HETATM    2  N   UNL     1       5.683  25.083  52.023  1.00  0.00    -0.041 NA
HETATM    3  C   UNL     1       5.203  26.351  51.828  1.00  0.00     0.748 A 
HETATM    4  N   UNL     1       5.700  27.258  52.665  1.00  0.00     0.021 NA
HETATM    5  N   UNL     1       6.524  26.523  53.414  1.00  0.00    -0.244 N 
HETATM    6  H   UNL     1       7.068  26.979  54.136  1.00  0.00     0.191 HD
ENDROOT
BRANCH   3   7
HETATM    7  N   UNL     1       4.302  26.537  50.818  1.00  0.00    -0.150 N 
HETATM    8  C   UNL     1       4.534  27.273  49.680  1.00  0.00     0.270 C 
HETATM    9  O   UNL     1       5.554  27.899  49.411  1.00  0.00    -0.267 OA
HETATM   10  H   UNL     1       3.416  26.098  51.003  1.00  0.00     0.188 HD
BRANCH   8  11
HETATM   11  C   UNL     1       3.411  27.324  48.691  1.00  0.00     0.035 A 
HETATM   12  C   UNL     1       2.512  28.395  48.611  1.00  0.00     0.056 A 
HETATM   13  C   UNL     1       1.487  28.373  47.663  1.00  0.00     0.103 A 
HETATM   14  C   UNL     1       1.322  27.268  46.821  1.00  0.00     0.102 A 
HETATM   15  O   UNL     1       0.666  29.473  47.625  1.00  0.00    -0.346 OA
HETATM   16  O   UNL     1       0.312  27.167  45.900  1.00  0.00    -0.346 OA
HETATM   17  C   UNL     1       2.209  26.200  46.895  1.00  0.00     0.040 A 
HETATM   18  C   UNL     1      -0.720  28.129  46.150  1.00  0.00     0.202 C 
HETATM   19  C   UNL     1      -0.118  29.497  46.425  1.00  0.00     0.202 C 
HETATM   20  C   UNL     1       3.248  26.226  47.828  1.00  0.00     0.020 A 
ENDBRANCH   8  11
ENDBRANCH   3   7
BRANCH   1  21
HETATM   21  C   UNL     1       7.359  24.167  53.634  1.00  0.00     0.012 A 
HETATM   22  C   UNL     1       7.550  24.150  55.021  1.00  0.00     0.018 A 
HETATM   23  C   UNL     1       8.311  23.143  55.626  1.00  0.00     0.037 A 
HETATM   24  C   UNL     1       8.898  22.137  54.858  1.00  0.00     0.068 A 
HETATM   25  C   UNL     1       8.736  22.159  53.474  1.00  0.00     0.037 A 
HETATM   26  C   UNL     1       7.973  23.167  52.867  1.00  0.00     0.018 A 
BRANCH  24  27
HETATM   27  O   UNL     1       9.601  21.206  55.570  1.00  0.00    -0.356 OA
HETATM   28  C   UNL     1       8.866  20.417  56.498  1.00  0.00     0.210 C 
ENDBRANCH  24  27
ENDBRANCH   1  21
TORSDOF 4
ENDMDL
MODEL 6
REMARK VINA RESULT:      -8.8      1.202      2.149
REMARK  4 active torsions:
REMARK  status: ('A' for Active; 'I' for Inactive)
REMARK    1  A    between atoms: O_2  and  C_3 
REMARK    2  A    between atoms: C_6  and  C_7 
REMARK    3  A    between atoms: C_9  and  N_10 
REMARK       I    between atoms: N_10  and  C_11 
REMARK    4  A    between atoms: C_11  and  C_12 
ROOT
HETATM    1  C   UNL     1       8.344  30.880  59.492  1.00  0.00     0.173 A 
HETATM    2  N   UNL     1       8.163  29.594  59.240  1.00  0.00    -0.041 NA
HETATM    3  C   UNL     1       8.773  29.402  58.028  1.00  0.00     0.748 A 
HETATM    4  N   UNL     1       9.323  30.498  57.514  1.00  0.00     0.021 NA
HETATM    5  N   UNL     1       9.042  31.414  58.444  1.00  0.00    -0.244 N 
HETATM    6  H   UNL     1       9.374  32.361  58.315  1.00  0.00     0.191 HD
ENDROOT
BRANCH   3   7
HETATM    7  N   UNL     1       8.758  28.139  57.507  1.00  0.00    -0.150 N 
HETATM    8  C   UNL     1       7.694  27.571  56.849  1.00  0.00     0.270 C 
HETATM    9  O   UNL     1       6.595  28.082  56.660  1.00  0.00    -0.267 OA
HETATM   10  H   UNL     1       9.614  27.638  57.680  1.00  0.00     0.188 HD
BRANCH   8  11
HETATM   11  C   UNL     1       7.906  26.179  56.337  1.00  0.00     0.035 A 
HETATM   12  C   UNL     1       7.461  25.753  55.078  1.00  0.00     0.056 A 
HETATM   13  C   UNL     1       7.694  24.439  54.668  1.00  0.00     0.103 A 
HETATM   14  C   UNL     1       8.326  23.529  55.522  1.00  0.00     0.102 A 
HETATM   15  O   UNL     1       7.258  24.105  53.410  1.00  0.00    -0.346 OA
HETATM   16  O   UNL     1       8.546  22.216  55.195  1.00  0.00    -0.346 OA
HETATM   17  C   UNL     1       8.769  23.944  56.774  1.00  0.00     0.040 A 
HETATM   18  C   UNL     1       7.755  21.820  54.068  1.00  0.00     0.202 C 
HETATM   19  C   UNL     1       7.831  22.867  52.969  1.00  0.00     0.202 C 
HETATM   20  C   UNL     1       8.557  25.263  57.181  1.00  0.00     0.020 A 
ENDBRANCH   8  11
ENDBRANCH   3   7
BRANCH   1  21
HETATM   21  C   UNL     1       7.933  31.619  60.684  1.00  0.00     0.012 A 
HETATM   22  C   UNL     1       6.915  32.575  60.586  1.00  0.00     0.018 A 
HETATM   23  C   UNL     1       6.474  33.270  61.718  1.00  0.00     0.037 A 
HETATM   24  C   UNL     1       7.043  33.027  62.968  1.00  0.00     0.068 A 
HETATM   25  C   UNL     1       8.076  32.098  63.073  1.00  0.00     0.037 A 
HETATM   26  C   UNL     1       8.518  31.400  61.940  1.00  0.00     0.018 A 
BRANCH  24  27
HETATM   27  O   UNL     1       6.513  33.759  63.994  1.00  0.00    -0.356 OA
HETATM   28  C   UNL     1       7.226  33.752  65.224  1.00  0.00     0.210 C 
ENDBRANCH  24  27
ENDBRANCH   1  21
TORSDOF 4
ENDMDL
MODEL 7
REMARK VINA RESULT:      -8.7      2.586      4.462
REMARK  4 active torsions:
REMARK  status: ('A' for Active; 'I' for Inactive)
REMARK    1  A    between atoms: O_2  and  C_3 
REMARK    2  A    between atoms: C_6  and  C_7 
REMARK    3  A    between atoms: C_9  and  N_10 
REMARK       I    between atoms: N_10  and  C_11 
REMARK    4  A    between atoms: C_11  and  C_12 
ROOT
HETATM    1  C   UNL     1       7.709  32.096  62.446  1.00  0.00     0.173 A 
HETATM    2  N   UNL     1       7.246  31.237  61.554  1.00  0.00    -0.041 NA
HETATM    3  C   UNL     1       8.336  30.937  60.780  1.00  0.00     0.748 A 
HETATM    4  N   UNL     1       9.451  31.565  61.143  1.00  0.00     0.021 NA
HETATM    5  N   UNL     1       9.038  32.287  62.187  1.00  0.00    -0.244 N 
HETATM    6  H   UNL     1       9.709  32.858  62.684  1.00  0.00     0.191 HD
ENDROOT
BRANCH   3   7
HETATM    7  N   UNL     1       8.161  30.045  59.760  1.00  0.00    -0.150 N 
HETATM    8  C   UNL     1       7.683  30.361  58.511  1.00  0.00     0.270 C 
HETATM    9  O   UNL     1       7.308  31.465  58.130  1.00  0.00    -0.267 OA
HETATM   10  H   UNL     1       8.394  29.104  60.025  1.00  0.00     0.188 HD
BRANCH   8  11
HETATM   11  C   UNL     1       7.595  29.227  57.536  1.00  0.00     0.035 A 
HETATM   12  C   UNL     1       7.349  27.904  57.925  1.00  0.00     0.056 A 
HETATM   13  C   UNL     1       7.283  26.897  56.959  1.00  0.00     0.103 A 
HETATM   14  C   UNL     1       7.506  27.191  55.610  1.00  0.00     0.102 A 
HETATM   15  O   UNL     1       7.006  25.632  57.414  1.00  0.00    -0.346 OA
HETATM   16  O   UNL     1       7.496  26.242  54.621  1.00  0.00    -0.346 OA
HETATM   17  C   UNL     1       7.753  28.502  55.217  1.00  0.00     0.040 A 
HETATM   18  C   UNL     1       7.587  24.920  55.165  1.00  0.00     0.202 C 
HETATM   19  C   UNL     1       6.634  24.760  56.338  1.00  0.00     0.202 C 
HETATM   20  C   UNL     1       7.800  29.516  56.176  1.00  0.00     0.020 A 
ENDBRANCH   8  11
ENDBRANCH   3   7
BRANCH   1  21
HETATM   21  C   UNL     1       6.978  32.710  63.554  1.00  0.00     0.012 A 
HETATM   22  C   UNL     1       7.688  33.311  64.600  1.00  0.00     0.018 A 
HETATM   23  C   UNL     1       7.016  33.940  65.653  1.00  0.00     0.037 A 
HETATM   24  C   UNL     1       5.623  33.980  65.684  1.00  0.00     0.068 A 
HETATM   25  C   UNL     1       4.904  33.362  64.662  1.00  0.00     0.037 A 
HETATM   26  C   UNL     1       5.576  32.732  63.606  1.00  0.00     0.018 A 
BRANCH  24  27
HETATM   27  O   UNL     1       5.089  34.639  66.757  1.00  0.00    -0.356 OA
HETATM   28  C   UNL     1       4.570  35.941  66.519  1.00  0.00     0.210 C 
ENDBRANCH  24  27
ENDBRANCH   1  21
TORSDOF 4
ENDMDL
MODEL 8
REMARK VINA RESULT:      -8.6      2.817      3.606
REMARK  4 active torsions:
REMARK  status: ('A' for Active; 'I' for Inactive)
REMARK    1  A    between atoms: O_2  and  C_3 
REMARK    2  A    between atoms: C_6  and  C_7 
REMARK    3  A    between atoms: C_9  and  N_10 
REMARK       I    between atoms: N_10  and  C_11 
REMARK    4  A    between atoms: C_11  and  C_12 
ROOT
HETATM    1  C   UNL     1       8.050  31.281  60.486  1.00  0.00     0.173 A 
HETATM    2  N   UNL     1       7.411  30.838  59.417  1.00  0.00    -0.041 NA
HETATM    3  C   UNL     1       8.345  30.086  58.756  1.00  0.00     0.748 A 
HETATM    4  N   UNL     1       9.532  30.038  59.356  1.00  0.00     0.021 NA
HETATM    5  N   UNL     1       9.328  30.794  60.437  1.00  0.00    -0.244 N 
HETATM    6  H   UNL     1      10.082  30.912  61.102  1.00  0.00     0.191 HD
ENDROOT
BRANCH   3   7
HETATM    7  N   UNL     1       7.961  29.478  57.594  1.00  0.00    -0.150 N 
HETATM    8  C   UNL     1       7.745  28.129  57.445  1.00  0.00     0.270 C 
HETATM    9  O   UNL     1       7.897  27.266  58.303  1.00  0.00    -0.267 OA
HETATM   10  H   UNL     1       7.876  30.125  56.828  1.00  0.00     0.188 HD
BRANCH   8  11
HETATM   11  C   UNL     1       7.304  27.682  56.085  1.00  0.00     0.035 A 
HETATM   12  C   UNL     1       6.502  26.552  55.877  1.00  0.00     0.056 A 
HETATM   13  C   UNL     1       6.130  26.194  54.579  1.00  0.00     0.103 A 
HETATM   14  C   UNL     1       6.590  26.928  53.480  1.00  0.00     0.102 A 
HETATM   15  O   UNL     1       5.317  25.094  54.457  1.00  0.00    -0.346 OA
HETATM   16  O   UNL     1       6.295  26.603  52.181  1.00  0.00    -0.346 OA
HETATM   17  C   UNL     1       7.388  28.049  53.679  1.00  0.00     0.040 A 
HETATM   18  C   UNL     1       5.784  25.269  52.080  1.00  0.00     0.202 C 
HETATM   19  C   UNL     1       4.734  25.017  53.150  1.00  0.00     0.202 C 
HETATM   20  C   UNL     1       7.746  28.423  54.976  1.00  0.00     0.020 A 
ENDBRANCH   8  11
ENDBRANCH   3   7
BRANCH   1  21
HETATM   21  C   UNL     1       7.511  32.100  61.571  1.00  0.00     0.012 A 
HETATM   22  C   UNL     1       6.309  32.792  61.380  1.00  0.00     0.018 A 
HETATM   23  C   UNL     1       5.748  33.552  62.413  1.00  0.00     0.037 A 
HETATM   24  C   UNL     1       6.377  33.637  63.654  1.00  0.00     0.068 A 
HETATM   25  C   UNL     1       7.588  32.974  63.848  1.00  0.00     0.037 A 
HETATM   26  C   UNL     1       8.150  32.212  62.814  1.00  0.00     0.018 A 
BRANCH  24  27
HETATM   27  O   UNL     1       5.719  34.396  64.582  1.00  0.00    -0.356 OA
HETATM   28  C   UNL     1       4.848  33.710  65.473  1.00  0.00     0.210 C 
ENDBRANCH  24  27
ENDBRANCH   1  21
TORSDOF 4
ENDMDL
MODEL 9
REMARK VINA RESULT:      -8.4      2.369      2.823
REMARK  4 active torsions:
REMARK  status: ('A' for Active; 'I' for Inactive)
REMARK    1  A    between atoms: O_2  and  C_3 
REMARK    2  A    between atoms: C_6  and  C_7 
REMARK    3  A    between atoms: C_9  and  N_10 
REMARK       I    between atoms: N_10  and  C_11 
REMARK    4  A    between atoms: C_11  and  C_12 
ROOT
HETATM    1  C   UNL     1       6.789  29.842  57.635  1.00  0.00     0.173 A 
HETATM    2  N   UNL     1       6.519  28.746  56.948  1.00  0.00    -0.041 NA
HETATM    3  C   UNL     1       7.731  28.120  56.825  1.00  0.00     0.748 A 
HETATM    4  N   UNL     1       8.741  28.769  57.399  1.00  0.00     0.021 NA
HETATM    5  N   UNL     1       8.131  29.846  57.899  1.00  0.00    -0.244 N 
HETATM    6  H   UNL     1       8.676  30.518  58.425  1.00  0.00     0.191 HD
ENDROOT
BRANCH   3   7
HETATM    7  N   UNL     1       7.764  26.929  56.156  1.00  0.00    -0.150 N 
HETATM    8  C   UNL     1       7.960  25.701  56.742  1.00  0.00     0.270 C 
HETATM    9  O   UNL     1       8.172  25.485  57.930  1.00  0.00    -0.267 OA
HETATM   10  H   UNL     1       7.656  27.040  55.162  1.00  0.00     0.188 HD
BRANCH   8  11
HETATM   11  C   UNL     1       7.934  24.522  55.818  1.00  0.00     0.035 A 
HETATM   12  C   UNL     1       8.630  23.335  56.078  1.00  0.00     0.056 A 
HETATM   13  C   UNL     1       8.560  22.276  55.170  1.00  0.00     0.103 A 
HETATM   14  C   UNL     1       7.836  22.407  53.979  1.00  0.00     0.102 A 
HETATM   15  O   UNL     1       9.242  21.133  55.508  1.00  0.00    -0.346 OA
HETATM   16  O   UNL     1       7.763  21.422  53.029  1.00  0.00    -0.346 OA
HETATM   17  C   UNL     1       7.144  23.584  53.714  1.00  0.00     0.040 A 
HETATM   18  C   UNL     1       8.773  20.426  53.232  1.00  0.00     0.202 C 
HETATM   19  C   UNL     1       8.838  20.023  54.696  1.00  0.00     0.202 C 
HETATM   20  C   UNL     1       7.195  24.638  54.629  1.00  0.00     0.020 A 
ENDBRANCH   8  11
ENDBRANCH   3   7
BRANCH   1  21
HETATM   21  C   UNL     1       5.846  30.861  58.093  1.00  0.00     0.012 A 
HETATM   22  C   UNL     1       4.474  30.677  57.878  1.00  0.00     0.018 A 
HETATM   23  C   UNL     1       3.545  31.616  58.340  1.00  0.00     0.037 A 
HETATM   24  C   UNL     1       3.966  32.756  59.023  1.00  0.00     0.068 A 
HETATM   25  C   UNL     1       5.330  32.964  59.220  1.00  0.00     0.037 A 
HETATM   26  C   UNL     1       6.262  32.023  58.758  1.00  0.00     0.018 A 
BRANCH  24  27
HETATM   27  O   UNL     1       2.960  33.584  59.436  1.00  0.00    -0.356 OA
HETATM   28  C   UNL     1       2.751  33.693  60.838  1.00  0.00     0.210 C 
ENDBRANCH  24  27
ENDBRANCH   1  21
TORSDOF 4
ENDMDL
MODEL 10
REMARK VINA RESULT:      -8.4      3.212     10.410
REMARK  4 active torsions:
REMARK  status: ('A' for Active; 'I' for Inactive)
REMARK    1  A    between atoms: O_2  and  C_3 
REMARK    2  A    between atoms: C_6  and  C_7 
REMARK    3  A    between atoms: C_9  and  N_10 
REMARK       I    between atoms: N_10  and  C_11 
REMARK    4  A    between atoms: C_11  and  C_12 
ROOT
HETATM    1  C   UNL     1       5.963  29.654  56.238  1.00  0.00     0.173 A 
HETATM    2  N   UNL     1       6.206  29.718  57.536  1.00  0.00    -0.041 NA
HETATM    3  C   UNL     1       5.898  31.010  57.872  1.00  0.00     0.748 A 
HETATM    4  N   UNL     1       5.477  31.753  56.852  1.00  0.00     0.021 NA
HETATM    5  N   UNL     1       5.526  30.886  55.837  1.00  0.00    -0.244 N 
HETATM    6  H   UNL     1       5.226  31.189  54.919  1.00  0.00     0.191 HD
ENDROOT
BRANCH   3   7
HETATM    7  N   UNL     1       6.043  31.375  59.180  1.00  0.00    -0.150 N 
HETATM    8  C   UNL     1       7.141  32.018  59.701  1.00  0.00     0.270 C 
HETATM    9  O   UNL     1       8.161  32.328  59.096  1.00  0.00    -0.267 OA
HETATM   10  H   UNL     1       5.262  31.096  59.749  1.00  0.00     0.188 HD
BRANCH   8  11
HETATM   11  C   UNL     1       7.077  32.346  61.161  1.00  0.00     0.035 A 
HETATM   12  C   UNL     1       5.940  32.891  61.772  1.00  0.00     0.056 A 
HETATM   13  C   UNL     1       5.953  33.173  63.140  1.00  0.00     0.103 A 
HETATM   14  C   UNL     1       7.109  32.958  63.898  1.00  0.00     0.102 A 
HETATM   15  O   UNL     1       4.792  33.676  63.672  1.00  0.00    -0.346 OA
HETATM   16  O   UNL     1       7.199  33.253  65.234  1.00  0.00    -0.346 OA
HETATM   17  C   UNL     1       8.242  32.418  63.299  1.00  0.00     0.040 A 
HETATM   18  C   UNL     1       6.130  34.109  65.652  1.00  0.00     0.202 C 
HETATM   19  C   UNL     1       4.803  33.612  65.104  1.00  0.00     0.202 C 
HETATM   20  C   UNL     1       8.227  32.116  61.935  1.00  0.00     0.020 A 
ENDBRANCH   8  11
ENDBRANCH   3   7
BRANCH   1  21
HETATM   21  C   UNL     1       6.077  28.485  55.368  1.00  0.00     0.012 A 
HETATM   22  C   UNL     1       4.998  28.125  54.551  1.00  0.00     0.018 A 
HETATM   23  C   UNL     1       5.093  27.035  53.679  1.00  0.00     0.037 A 
HETATM   24  C   UNL     1       6.264  26.282  53.606  1.00  0.00     0.068 A 
HETATM   25  C   UNL     1       7.336  26.614  54.434  1.00  0.00     0.037 A 
HETATM   26  C   UNL     1       7.242  27.707  55.307  1.00  0.00     0.018 A 
BRANCH  24  27
HETATM   27  O   UNL     1       6.234  25.255  52.704  1.00  0.00    -0.356 OA
HETATM   28  C   UNL     1       4.951  24.788  52.305  1.00  0.00     0.210 C 
ENDBRANCH  24  27
ENDBRANCH   1  21
TORSDOF 4
ENDMDL
