MODEL 1
REMARK VINA RESULT:     -10.2      0.000      0.000
REMARK  6 active torsions:
REMARK  status: ('A' for Active; 'I' for Inactive)
REMARK    1  A    between atoms: C_2  and  C_3 
REMARK    2  A    between atoms: C_3  and  C_4 
REMARK    3  A    between atoms: C_4  and  C_5 
REMARK    4  A    between atoms: C_8  and  N_9 
REMARK       I    between atoms: N_9  and  C_10 
REMARK    5  A    between atoms: C_10  and  C_11 
REMARK    6  A    between atoms: N_16  and  C_17 
ROOT
HETATM    1  C   UNL     1       7.697  29.670  57.771  1.00  0.00     0.098 A 
HETATM    2  C   UNL     1       6.576  30.611  57.426  1.00  0.00     0.205 A 
HETATM    3  O   UNL     1       5.995  30.565  56.346  1.00  0.00    -0.286 OA
HETATM    4  C   UNL     1       6.217  31.527  58.491  1.00  0.00     0.087 A 
HETATM    5  C   UNL     1       6.871  31.525  59.701  1.00  0.00     0.145 A 
HETATM    6  N   UNL     1       6.274  32.487  60.501  1.00  0.00    -0.216 N 
HETATM    7  N   UNL     1       5.205  33.041  59.849  1.00  0.00    -0.170 NA
HETATM    8  C   UNL     1       5.210  32.498  58.624  1.00  0.00     0.069 A 
HETATM    9  C   UNL     1       4.203  32.914  57.616  1.00  0.00     0.073 C 
HETATM   10  N   UNL     1       7.866  30.649  59.985  1.00  0.00    -0.349 N 
HETATM   11  C   UNL     1       8.242  29.746  59.007  1.00  0.00     0.111 A 
HETATM   12  H   UNL     1       8.194  30.450  60.929  1.00  0.00     0.167 HD
ENDROOT
BRANCH   1  13
HETATM   13  C   UNL     1       8.209  28.607  56.856  1.00  0.00     0.261 C 
HETATM   14  N   UNL     1       7.233  27.815  56.287  1.00  0.00    -0.323 N 
HETATM   15  H   UNL     1       6.263  28.047  56.502  1.00  0.00     0.169 HD
HETATM   16  O   UNL     1       9.420  28.477  56.699  1.00  0.00    -0.267 OA
BRANCH  14  17
HETATM   17  C   UNL     1       7.421  26.654  55.506  1.00  0.00     0.035 A 
HETATM   18  C   UNL     1       7.532  25.369  56.034  1.00  0.00     0.030 A 
HETATM   19  C   UNL     1       7.654  24.261  55.189  1.00  0.00     0.009 A 
HETATM   20  C   UNL     1       7.653  24.417  53.798  1.00  0.00    -0.058 A 
HETATM   21  C   UNL     1       7.575  25.709  53.268  1.00  0.00     0.009 A 
HETATM   22  C   UNL     1       7.470  26.817  54.117  1.00  0.00     0.030 A 
BRANCH  20  23
HETATM   23  C   UNL     1       7.712  23.208  52.895  1.00  0.00     0.038 C 
BRANCH  23  24
HETATM   24  C   UNL     1       8.630  22.121  53.466  1.00  0.00     0.004 C 
BRANCH  24  25
HETATM   25  C   UNL     1       7.872  20.819  53.721  1.00  0.00    -0.004 C 
HETATM   26  C   UNL     1       7.849  20.475  55.202  1.00  0.00     0.005 C 
ENDBRANCH  24  25
ENDBRANCH  23  24
ENDBRANCH  20  23
ENDBRANCH  14  17
ENDBRANCH   1  13
BRANCH   6  27
HETATM   27  C   UNL     1       6.610  32.925  61.816  1.00  0.00     0.060 A 
HETATM   28  C   UNL     1       7.615  32.307  62.570  1.00  0.00     0.031 A 
HETATM   29  C   UNL     1       7.893  32.748  63.868  1.00  0.00     0.002 A 
HETATM   30  C   UNL     1       7.182  33.814  64.415  1.00  0.00     0.000 A 
HETATM   31  C   UNL     1       6.205  34.458  63.659  1.00  0.00     0.002 A 
HETATM   32  C   UNL     1       5.923  34.022  62.363  1.00  0.00     0.031 A 
ENDBRANCH   6  27
TORSDOF 6
ENDMDL
MODEL 2
REMARK VINA RESULT:     -10.0      1.778     10.349
REMARK  6 active torsions:
REMARK  status: ('A' for Active; 'I' for Inactive)
REMARK    1  A    between atoms: C_2  and  C_3 
REMARK    2  A    between atoms: C_3  and  C_4 
REMARK    3  A    between atoms: C_4  and  C_5 
REMARK    4  A    between atoms: C_8  and  N_9 
REMARK       I    between atoms: N_9  and  C_10 
REMARK    5  A    between atoms: C_10  and  C_11 
REMARK    6  A    between atoms: N_16  and  C_17 
ROOT
HETATM    1  C   UNL     1       7.611  29.663  57.611  1.00  0.00     0.098 A 
HETATM    2  C   UNL     1       6.447  29.962  56.707  1.00  0.00     0.205 A 
HETATM    3  O   UNL     1       5.783  30.989  56.816  1.00  0.00    -0.286 OA
HETATM    4  C   UNL     1       6.220  28.966  55.678  1.00  0.00     0.087 A 
HETATM    5  C   UNL     1       7.009  27.844  55.568  1.00  0.00     0.145 A 
HETATM    6  N   UNL     1       6.554  27.119  54.477  1.00  0.00    -0.216 N 
HETATM    7  N   UNL     1       5.547  27.799  53.849  1.00  0.00    -0.170 NA
HETATM    8  C   UNL     1       5.316  28.881  54.606  1.00  0.00     0.069 A 
HETATM    9  C   UNL     1       4.236  29.833  54.244  1.00  0.00     0.073 C 
HETATM   10  N   UNL     1       8.063  27.616  56.389  1.00  0.00    -0.349 N 
HETATM   11  C   UNL     1       8.330  28.541  57.383  1.00  0.00     0.111 A 
HETATM   12  H   UNL     1       8.805  26.948  56.188  1.00  0.00     0.167 HD
ENDROOT
BRANCH   1  13
HETATM   13  C   UNL     1       8.068  30.564  58.711  1.00  0.00     0.261 C 
HETATM   14  N   UNL     1       7.234  30.605  59.810  1.00  0.00    -0.323 N 
HETATM   15  H   UNL     1       6.417  29.994  59.794  1.00  0.00     0.169 HD
HETATM   16  O   UNL     1       9.096  31.221  58.566  1.00  0.00    -0.267 OA
BRANCH  14  17
HETATM   17  C   UNL     1       7.330  31.464  60.925  1.00  0.00     0.035 A 
HETATM   18  C   UNL     1       6.581  32.630  61.078  1.00  0.00     0.030 A 
HETATM   19  C   UNL     1       6.688  33.395  62.243  1.00  0.00     0.009 A 
HETATM   20  C   UNL     1       7.536  33.002  63.285  1.00  0.00    -0.058 A 
HETATM   21  C   UNL     1       8.312  31.850  63.119  1.00  0.00     0.009 A 
HETATM   22  C   UNL     1       8.215  31.094  61.944  1.00  0.00     0.030 A 
BRANCH  20  23
HETATM   23  C   UNL     1       7.589  33.796  64.568  1.00  0.00     0.038 C 
BRANCH  23  24
HETATM   24  C   UNL     1       6.234  33.800  65.287  1.00  0.00     0.004 C 
BRANCH  24  25
HETATM   25  C   UNL     1       6.381  34.158  66.765  1.00  0.00    -0.004 C 
HETATM   26  C   UNL     1       5.026  34.244  67.450  1.00  0.00     0.005 C 
ENDBRANCH  24  25
ENDBRANCH  23  24
ENDBRANCH  20  23
ENDBRANCH  14  17
ENDBRANCH   1  13
BRANCH   6  27
HETATM   27  C   UNL     1       6.983  25.857  53.971  1.00  0.00     0.060 A 
HETATM   28  C   UNL     1       6.873  24.680  54.722  1.00  0.00     0.031 A 
HETATM   29  C   UNL     1       7.334  23.466  54.199  1.00  0.00     0.002 A 
HETATM   30  C   UNL     1       7.891  23.418  52.924  1.00  0.00     0.000 A 
HETATM   31  C   UNL     1       7.972  24.577  52.156  1.00  0.00     0.002 A 
HETATM   32  C   UNL     1       7.514  25.791  52.672  1.00  0.00     0.031 A 
ENDBRANCH   6  27
TORSDOF 6
ENDMDL
MODEL 3
REMARK VINA RESULT:      -9.9      2.120     10.474
REMARK  6 active torsions:
REMARK  status: ('A' for Active; 'I' for Inactive)
REMARK    1  A    between atoms: C_2  and  C_3 
REMARK    2  A    between atoms: C_3  and  C_4 
REMARK    3  A    between atoms: C_4  and  C_5 
REMARK    4  A    between atoms: C_8  and  N_9 
REMARK       I    between atoms: N_9  and  C_10 
REMARK    5  A    between atoms: C_10  and  C_11 
REMARK    6  A    between atoms: N_16  and  C_17 
ROOT
HETATM    1  C   UNL     1       6.295  27.179  56.316  1.00  0.00     0.098 A 
HETATM    2  C   UNL     1       5.776  27.064  54.909  1.00  0.00     0.205 A 
HETATM    3  O   UNL     1       5.171  27.979  54.359  1.00  0.00    -0.286 OA
HETATM    4  C   UNL     1       6.099  25.810  54.256  1.00  0.00     0.087 A 
HETATM    5  C   UNL     1       6.809  24.820  54.896  1.00  0.00     0.145 A 
HETATM    6  N   UNL     1       6.975  23.777  53.997  1.00  0.00    -0.216 N 
HETATM    7  N   UNL     1       6.453  24.120  52.779  1.00  0.00    -0.170 NA
HETATM    8  C   UNL     1       5.883  25.320  52.957  1.00  0.00     0.069 A 
HETATM    9  C   UNL     1       5.166  25.982  51.839  1.00  0.00     0.073 C 
HETATM   10  N   UNL     1       7.278  24.967  56.159  1.00  0.00    -0.349 N 
HETATM   11  C   UNL     1       7.007  26.148  56.825  1.00  0.00     0.111 A 
HETATM   12  H   UNL     1       8.004  24.380  56.565  1.00  0.00     0.167 HD
ENDROOT
BRANCH   1  13
HETATM   13  C   UNL     1       6.130  28.393  57.171  1.00  0.00     0.261 C 
HETATM   14  N   UNL     1       7.310  29.009  57.534  1.00  0.00    -0.323 N 
HETATM   15  H   UNL     1       8.173  28.616  57.157  1.00  0.00     0.169 HD
HETATM   16  O   UNL     1       5.004  28.735  57.522  1.00  0.00    -0.267 OA
BRANCH  14  17
HETATM   17  C   UNL     1       7.473  30.075  58.445  1.00  0.00     0.035 A 
HETATM   18  C   UNL     1       6.632  31.186  58.503  1.00  0.00     0.030 A 
HETATM   19  C   UNL     1       6.823  32.171  59.477  1.00  0.00     0.009 A 
HETATM   20  C   UNL     1       7.848  32.056  60.422  1.00  0.00    -0.058 A 
HETATM   21  C   UNL     1       8.712  30.959  60.344  1.00  0.00     0.009 A 
HETATM   22  C   UNL     1       8.530  29.983  59.357  1.00  0.00     0.030 A 
BRANCH  20  23
HETATM   23  C   UNL     1       8.000  33.088  61.513  1.00  0.00     0.038 C 
BRANCH  23  24
HETATM   24  C   UNL     1       8.077  32.438  62.900  1.00  0.00     0.004 C 
BRANCH  24  25
HETATM   25  C   UNL     1       6.898  32.845  63.781  1.00  0.00    -0.004 C 
HETATM   26  C   UNL     1       7.356  33.683  64.964  1.00  0.00     0.005 C 
ENDBRANCH  24  25
ENDBRANCH  23  24
ENDBRANCH  20  23
ENDBRANCH  14  17
ENDBRANCH   1  13
BRANCH   6  27
HETATM   27  C   UNL     1       7.581  22.499  54.176  1.00  0.00     0.060 A 
HETATM   28  C   UNL     1       8.137  21.785  53.107  1.00  0.00     0.031 A 
HETATM   29  C   UNL     1       8.695  20.520  53.322  1.00  0.00     0.002 A 
HETATM   30  C   UNL     1       8.717  19.969  54.601  1.00  0.00     0.000 A 
HETATM   31  C   UNL     1       8.198  20.688  55.676  1.00  0.00     0.002 A 
HETATM   32  C   UNL     1       7.640  21.950  55.468  1.00  0.00     0.031 A 
ENDBRANCH   6  27
TORSDOF 6
ENDMDL
MODEL 4
REMARK VINA RESULT:      -9.8      1.477      2.719
REMARK  6 active torsions:
REMARK  status: ('A' for Active; 'I' for Inactive)
REMARK    1  A    between atoms: C_2  and  C_3 
REMARK    2  A    between atoms: C_3  and  C_4 
REMARK    3  A    between atoms: C_4  and  C_5 
REMARK    4  A    between atoms: C_8  and  N_9 
REMARK       I    between atoms: N_9  and  C_10 
REMARK    5  A    between atoms: C_10  and  C_11 
REMARK    6  A    between atoms: N_16  and  C_17 
ROOT
HETATM    1  C   UNL     1       6.892  28.830  56.766  1.00  0.00     0.098 A 
HETATM    2  C   UNL     1       8.242  29.434  57.038  1.00  0.00     0.205 A 
HETATM    3  O   UNL     1       9.252  29.069  56.444  1.00  0.00    -0.286 OA
HETATM    4  C   UNL     1       8.229  30.507  58.013  1.00  0.00     0.087 A 
HETATM    5  C   UNL     1       7.068  30.911  58.632  1.00  0.00     0.145 A 
HETATM    6  N   UNL     1       7.389  31.965  59.474  1.00  0.00    -0.216 N 
HETATM    7  N   UNL     1       8.712  32.288  59.338  1.00  0.00    -0.170 NA
HETATM    8  C   UNL     1       9.221  31.375  58.500  1.00  0.00     0.069 A 
HETATM    9  C   UNL     1      10.666  31.391  58.162  1.00  0.00     0.073 C 
HETATM   10  N   UNL     1       5.865  30.356  58.348  1.00  0.00    -0.349 N 
HETATM   11  C   UNL     1       5.819  29.333  57.418  1.00  0.00     0.111 A 
HETATM   12  H   UNL     1       4.973  30.784  58.588  1.00  0.00     0.167 HD
ENDROOT
BRANCH   1  13
HETATM   13  C   UNL     1       6.647  27.745  55.768  1.00  0.00     0.261 C 
HETATM   14  N   UNL     1       7.344  26.577  56.001  1.00  0.00    -0.323 N 
HETATM   15  H   UNL     1       7.920  26.541  56.841  1.00  0.00     0.169 HD
HETATM   16  O   UNL     1       5.902  27.959  54.815  1.00  0.00    -0.267 OA
BRANCH  14  17
HETATM   17  C   UNL     1       7.424  25.447  55.158  1.00  0.00     0.035 A 
HETATM   18  C   UNL     1       7.729  25.509  53.799  1.00  0.00     0.030 A 
HETATM   19  C   UNL     1       7.852  24.338  53.045  1.00  0.00     0.009 A 
HETATM   20  C   UNL     1       7.688  23.082  53.639  1.00  0.00    -0.058 A 
HETATM   21  C   UNL     1       7.350  23.020  54.995  1.00  0.00     0.009 A 
HETATM   22  C   UNL     1       7.211  24.195  55.744  1.00  0.00     0.030 A 
BRANCH  20  23
HETATM   23  C   UNL     1       7.894  21.822  52.832  1.00  0.00     0.038 C 
BRANCH  23  24
HETATM   24  C   UNL     1       7.642  20.564  53.672  1.00  0.00     0.004 C 
BRANCH  24  25
HETATM   25  C   UNL     1       8.937  20.018  54.272  1.00  0.00    -0.004 C 
HETATM   26  C   UNL     1       8.881  20.010  55.792  1.00  0.00     0.005 C 
ENDBRANCH  24  25
ENDBRANCH  23  24
ENDBRANCH  20  23
ENDBRANCH  14  17
ENDBRANCH   1  13
BRANCH   6  27
HETATM   27  C   UNL     1       6.568  32.697  60.381  1.00  0.00     0.060 A 
HETATM   28  C   UNL     1       6.969  32.962  61.697  1.00  0.00     0.031 A 
HETATM   29  C   UNL     1       6.121  33.657  62.565  1.00  0.00     0.002 A 
HETATM   30  C   UNL     1       4.878  34.104  62.123  1.00  0.00     0.000 A 
HETATM   31  C   UNL     1       4.485  33.876  60.806  1.00  0.00     0.002 A 
HETATM   32  C   UNL     1       5.328  33.183  59.935  1.00  0.00     0.031 A 
ENDBRANCH   6  27
TORSDOF 6
ENDMDL
MODEL 5
REMARK VINA RESULT:      -9.5      3.490      5.002
REMARK  6 active torsions:
REMARK  status: ('A' for Active; 'I' for Inactive)
REMARK    1  A    between atoms: C_2  and  C_3 
REMARK    2  A    between atoms: C_3  and  C_4 
REMARK    3  A    between atoms: C_4  and  C_5 
REMARK    4  A    between atoms: C_8  and  N_9 
REMARK       I    between atoms: N_9  and  C_10 
REMARK    5  A    between atoms: C_10  and  C_11 
REMARK    6  A    between atoms: N_16  and  C_17 
ROOT
HETATM    1  C   UNL     1       6.422  29.059  56.001  1.00  0.00     0.098 A 
HETATM    2  C   UNL     1       7.923  29.101  56.084  1.00  0.00     0.205 A 
HETATM    3  O   UNL     1       8.638  28.664  55.187  1.00  0.00    -0.286 OA
HETATM    4  C   UNL     1       8.436  29.742  57.279  1.00  0.00     0.087 A 
HETATM    5  C   UNL     1       7.599  30.249  58.246  1.00  0.00     0.145 A 
HETATM    6  N   UNL     1       8.395  30.816  59.231  1.00  0.00    -0.216 N 
HETATM    7  N   UNL     1       9.712  30.749  58.865  1.00  0.00    -0.170 NA
HETATM    8  C   UNL     1       9.734  30.056  57.719  1.00  0.00     0.069 A 
HETATM    9  C   UNL     1      11.023  29.744  57.054  1.00  0.00     0.073 C 
HETATM   10  N   UNL     1       6.250  30.211  58.129  1.00  0.00    -0.349 N 
HETATM   11  C   UNL     1       5.707  29.619  57.004  1.00  0.00     0.111 A 
HETATM   12  H   UNL     1       5.617  30.785  58.683  1.00  0.00     0.167 HD
ENDROOT
BRANCH   1  13
HETATM   13  C   UNL     1       5.663  28.494  54.845  1.00  0.00     0.261 C 
HETATM   14  N   UNL     1       6.348  28.498  53.646  1.00  0.00    -0.323 N 
HETATM   15  H   UNL     1       7.309  28.839  53.662  1.00  0.00     0.169 HD
HETATM   16  O   UNL     1       4.508  28.111  55.010  1.00  0.00    -0.267 OA
BRANCH  14  17
HETATM   17  C   UNL     1       5.841  28.167  52.371  1.00  0.00     0.035 A 
HETATM   18  C   UNL     1       5.492  29.106  51.402  1.00  0.00     0.030 A 
HETATM   19  C   UNL     1       5.056  28.696  50.139  1.00  0.00     0.009 A 
HETATM   20  C   UNL     1       4.975  27.337  49.814  1.00  0.00    -0.058 A 
HETATM   21  C   UNL     1       5.294  26.394  50.796  1.00  0.00     0.009 A 
HETATM   22  C   UNL     1       5.714  26.807  52.066  1.00  0.00     0.030 A 
BRANCH  20  23
HETATM   23  C   UNL     1       4.573  26.907  48.424  1.00  0.00     0.038 C 
BRANCH  23  24
HETATM   24  C   UNL     1       3.543  25.772  48.459  1.00  0.00     0.004 C 
BRANCH  24  25
HETATM   25  C   UNL     1       2.744  25.695  47.159  1.00  0.00    -0.004 C 
HETATM   26  C   UNL     1       1.809  26.885  47.014  1.00  0.00     0.005 C 
ENDBRANCH  24  25
ENDBRANCH  23  24
ENDBRANCH  20  23
ENDBRANCH  14  17
ENDBRANCH   1  13
BRANCH   6  27
HETATM   27  C   UNL     1       8.031  31.419  60.470  1.00  0.00     0.060 A 
HETATM   28  C   UNL     1       8.605  31.023  61.685  1.00  0.00     0.031 A 
HETATM   29  C   UNL     1       8.197  31.619  62.883  1.00  0.00     0.002 A 
HETATM   30  C   UNL     1       7.229  32.621  62.875  1.00  0.00     0.000 A 
HETATM   31  C   UNL     1       6.678  33.046  61.668  1.00  0.00     0.002 A 
HETATM   32  C   UNL     1       7.081  32.454  60.469  1.00  0.00     0.031 A 
ENDBRANCH   6  27
TORSDOF 6
ENDMDL
MODEL 6
REMARK VINA RESULT:      -9.4      2.455     10.586
REMARK  6 active torsions:
REMARK  status: ('A' for Active; 'I' for Inactive)
REMARK    1  A    between atoms: C_2  and  C_3 
REMARK    2  A    between atoms: C_3  and  C_4 
REMARK    3  A    between atoms: C_4  and  C_5 
REMARK    4  A    between atoms: C_8  and  N_9 
REMARK       I    between atoms: N_9  and  C_10 
REMARK    5  A    between atoms: C_10  and  C_11 
REMARK    6  A    between atoms: N_16  and  C_17 
ROOT
HETATM    1  C   UNL     1       6.809  30.280  57.471  1.00  0.00     0.098 A 
HETATM    2  C   UNL     1       7.451  28.932  57.646  1.00  0.00     0.205 A 
HETATM    3  O   UNL     1       8.036  28.615  58.677  1.00  0.00    -0.286 OA
HETATM    4  C   UNL     1       7.270  28.036  56.520  1.00  0.00     0.087 A 
HETATM    5  C   UNL     1       6.578  28.417  55.393  1.00  0.00     0.145 A 
HETATM    6  N   UNL     1       6.560  27.334  54.527  1.00  0.00    -0.216 N 
HETATM    7  N   UNL     1       7.157  26.253  55.117  1.00  0.00    -0.170 NA
HETATM    8  C   UNL     1       7.628  26.696  56.291  1.00  0.00     0.069 A 
HETATM    9  C   UNL     1       8.389  25.789  57.185  1.00  0.00     0.073 C 
HETATM   10  N   UNL     1       5.996  29.635  55.278  1.00  0.00    -0.349 N 
HETATM   11  C   UNL     1       6.130  30.526  56.328  1.00  0.00     0.111 A 
HETATM   12  H   UNL     1       5.280  29.859  54.589  1.00  0.00     0.167 HD
ENDROOT
BRANCH   1  13
HETATM   13  C   UNL     1       6.819  31.352  58.512  1.00  0.00     0.261 C 
HETATM   14  N   UNL     1       7.261  30.947  59.755  1.00  0.00    -0.323 N 
HETATM   15  H   UNL     1       7.578  29.981  59.843  1.00  0.00     0.169 HD
HETATM   16  O   UNL     1       6.412  32.475  58.226  1.00  0.00    -0.267 OA
BRANCH  14  17
HETATM   17  C   UNL     1       7.242  31.692  60.954  1.00  0.00     0.035 A 
HETATM   18  C   UNL     1       6.153  32.449  61.384  1.00  0.00     0.030 A 
HETATM   19  C   UNL     1       6.189  33.109  62.616  1.00  0.00     0.009 A 
HETATM   20  C   UNL     1       7.309  33.012  63.449  1.00  0.00    -0.058 A 
HETATM   21  C   UNL     1       8.414  32.279  63.004  1.00  0.00     0.009 A 
HETATM   22  C   UNL     1       8.382  31.633  61.763  1.00  0.00     0.030 A 
BRANCH  20  23
HETATM   23  C   UNL     1       7.308  33.669  64.809  1.00  0.00     0.038 C 
BRANCH  23  24
HETATM   24  C   UNL     1       5.895  33.748  65.398  1.00  0.00     0.004 C 
BRANCH  24  25
HETATM   25  C   UNL     1       5.889  34.440  66.760  1.00  0.00    -0.004 C 
HETATM   26  C   UNL     1       4.632  34.100  67.546  1.00  0.00     0.005 C 
ENDBRANCH  24  25
ENDBRANCH  23  24
ENDBRANCH  20  23
ENDBRANCH  14  17
ENDBRANCH   1  13
BRANCH   6  27
HETATM   27  C   UNL     1       6.030  27.222  53.209  1.00  0.00     0.060 A 
HETATM   28  C   UNL     1       5.853  28.339  52.383  1.00  0.00     0.031 A 
HETATM   29  C   UNL     1       5.301  28.189  51.106  1.00  0.00     0.002 A 
HETATM   30  C   UNL     1       4.938  26.927  50.641  1.00  0.00     0.000 A 
HETATM   31  C   UNL     1       5.143  25.806  51.442  1.00  0.00     0.002 A 
HETATM   32  C   UNL     1       5.694  25.950  52.717  1.00  0.00     0.031 A 
ENDBRANCH   6  27
TORSDOF 6
ENDMDL
MODEL 7
REMARK VINA RESULT:      -9.4      1.645      2.795
REMARK  6 active torsions:
REMARK  status: ('A' for Active; 'I' for Inactive)
REMARK    1  A    between atoms: C_2  and  C_3 
REMARK    2  A    between atoms: C_3  and  C_4 
REMARK    3  A    between atoms: C_4  and  C_5 
REMARK    4  A    between atoms: C_8  and  N_9 
REMARK       I    between atoms: N_9  and  C_10 
REMARK    5  A    between atoms: C_10  and  C_11 
REMARK    6  A    between atoms: N_16  and  C_17 
ROOT
HETATM    1  C   UNL     1       7.453  29.838  57.483  1.00  0.00     0.098 A 
HETATM    2  C   UNL     1       8.400  30.321  58.547  1.00  0.00     0.205 A 
HETATM    3  O   UNL     1       9.583  29.992  58.566  1.00  0.00    -0.286 OA
HETATM    4  C   UNL     1       7.807  31.237  59.502  1.00  0.00     0.087 A 
HETATM    5  C   UNL     1       6.484  31.607  59.427  1.00  0.00     0.145 A 
HETATM    6  N   UNL     1       6.243  32.507  60.455  1.00  0.00    -0.216 N 
HETATM    7  N   UNL     1       7.406  32.772  61.127  1.00  0.00    -0.170 NA
HETATM    8  C   UNL     1       8.329  31.967  60.584  1.00  0.00     0.069 A 
HETATM    9  C   UNL     1       9.716  31.953  61.111  1.00  0.00     0.073 C 
HETATM   10  N   UNL     1       5.664  31.168  58.442  1.00  0.00    -0.349 N 
HETATM   11  C   UNL     1       6.181  30.298  57.499  1.00  0.00     0.111 A 
HETATM   12  H   UNL     1       4.774  31.604  58.209  1.00  0.00     0.167 HD
ENDROOT
BRANCH   1  13
HETATM   13  C   UNL     1       7.844  28.928  56.365  1.00  0.00     0.261 C 
HETATM   14  N   UNL     1       7.005  27.848  56.178  1.00  0.00    -0.323 N 
HETATM   15  H   UNL     1       6.183  27.791  56.779  1.00  0.00     0.169 HD
HETATM   16  O   UNL     1       8.868  29.160  55.729  1.00  0.00    -0.267 OA
BRANCH  14  17
HETATM   17  C   UNL     1       7.200  26.756  55.305  1.00  0.00     0.035 A 
HETATM   18  C   UNL     1       7.367  26.881  53.926  1.00  0.00     0.030 A 
HETATM   19  C   UNL     1       7.618  25.754  53.137  1.00  0.00     0.009 A 
HETATM   20  C   UNL     1       7.722  24.484  53.713  1.00  0.00    -0.058 A 
HETATM   21  C   UNL     1       7.522  24.354  55.091  1.00  0.00     0.009 A 
HETATM   22  C   UNL     1       7.255  25.481  55.877  1.00  0.00     0.030 A 
BRANCH  20  23
HETATM   23  C   UNL     1       8.066  23.285  52.861  1.00  0.00     0.038 C 
BRANCH  23  24
HETATM   24  C   UNL     1       8.808  22.212  53.667  1.00  0.00     0.004 C 
BRANCH  24  25
HETATM   25  C   UNL     1       8.031  20.898  53.705  1.00  0.00    -0.004 C 
HETATM   26  C   UNL     1       7.882  20.386  55.130  1.00  0.00     0.005 C 
ENDBRANCH  24  25
ENDBRANCH  23  24
ENDBRANCH  20  23
ENDBRANCH  14  17
ENDBRANCH   1  13
BRANCH   6  27
HETATM   27  C   UNL     1       5.030  33.140  60.854  1.00  0.00     0.060 A 
HETATM   28  C   UNL     1       4.440  34.158  60.095  1.00  0.00     0.031 A 
HETATM   29  C   UNL     1       3.265  34.775  60.538  1.00  0.00     0.002 A 
HETATM   30  C   UNL     1       2.665  34.370  61.729  1.00  0.00     0.000 A 
HETATM   31  C   UNL     1       3.226  33.334  62.472  1.00  0.00     0.002 A 
HETATM   32  C   UNL     1       4.399  32.715  62.034  1.00  0.00     0.031 A 
ENDBRANCH   6  27
TORSDOF 6
ENDMDL
MODEL 8
REMARK VINA RESULT:      -9.1      6.147     10.732
REMARK  6 active torsions:
REMARK  status: ('A' for Active; 'I' for Inactive)
REMARK    1  A    between atoms: C_2  and  C_3 
REMARK    2  A    between atoms: C_3  and  C_4 
REMARK    3  A    between atoms: C_4  and  C_5 
REMARK    4  A    between atoms: C_8  and  N_9 
REMARK       I    between atoms: N_9  and  C_10 
REMARK    5  A    between atoms: C_10  and  C_11 
REMARK    6  A    between atoms: N_16  and  C_17 
ROOT
HETATM    1  C   UNL     1       5.493  26.772  52.212  1.00  0.00     0.098 A 
HETATM    2  C   UNL     1       5.424  26.856  53.712  1.00  0.00     0.205 A 
HETATM    3  O   UNL     1       4.918  27.814  54.290  1.00  0.00    -0.286 OA
HETATM    4  C   UNL     1       5.955  25.694  54.399  1.00  0.00     0.087 A 
HETATM    5  C   UNL     1       6.484  24.625  53.713  1.00  0.00     0.145 A 
HETATM    6  N   UNL     1       6.870  23.678  54.650  1.00  0.00    -0.216 N 
HETATM    7  N   UNL     1       6.523  24.094  55.907  1.00  0.00    -0.170 NA
HETATM    8  C   UNL     1       6.023  25.327  55.754  1.00  0.00     0.069 A 
HETATM    9  C   UNL     1       5.585  26.111  56.935  1.00  0.00     0.073 C 
HETATM   10  N   UNL     1       6.512  24.575  52.359  1.00  0.00    -0.349 N 
HETATM   11  C   UNL     1       6.009  25.654  51.654  1.00  0.00     0.111 A 
HETATM   12  H   UNL     1       6.656  23.719  51.826  1.00  0.00     0.167 HD
ENDROOT
BRANCH   1  13
HETATM   13  C   UNL     1       4.965  27.823  51.290  1.00  0.00     0.261 C 
HETATM   14  N   UNL     1       3.889  27.430  50.522  1.00  0.00    -0.323 N 
HETATM   15  H   UNL     1       3.526  26.490  50.678  1.00  0.00     0.169 HD
HETATM   16  O   UNL     1       5.521  28.917  51.242  1.00  0.00    -0.267 OA
BRANCH  14  17
HETATM   17  C   UNL     1       3.280  28.151  49.471  1.00  0.00     0.035 A 
HETATM   18  C   UNL     1       3.763  28.180  48.164  1.00  0.00     0.030 A 
HETATM   19  C   UNL     1       3.067  28.866  47.164  1.00  0.00     0.009 A 
HETATM   20  C   UNL     1       1.866  29.525  47.450  1.00  0.00    -0.058 A 
HETATM   21  C   UNL     1       1.399  29.524  48.768  1.00  0.00     0.009 A 
HETATM   22  C   UNL     1       2.106  28.850  49.770  1.00  0.00     0.030 A 
BRANCH  20  23
HETATM   23  C   UNL     1       1.086  30.202  46.349  1.00  0.00     0.038 C 
BRANCH  23  24
HETATM   24  C   UNL     1      -0.399  29.821  46.392  1.00  0.00     0.004 C 
BRANCH  24  25
HETATM   25  C   UNL     1      -0.768  28.863  45.261  1.00  0.00    -0.004 C 
HETATM   26  C   UNL     1      -0.355  27.437  45.588  1.00  0.00     0.005 C 
ENDBRANCH  24  25
ENDBRANCH  23  24
ENDBRANCH  20  23
ENDBRANCH  14  17
ENDBRANCH   1  13
BRANCH   6  27
HETATM   27  C   UNL     1       7.524  22.424  54.470  1.00  0.00     0.060 A 
HETATM   28  C   UNL     1       7.968  21.991  53.214  1.00  0.00     0.031 A 
HETATM   29  C   UNL     1       8.578  20.740  53.077  1.00  0.00     0.002 A 
HETATM   30  C   UNL     1       8.763  19.922  54.190  1.00  0.00     0.000 A 
HETATM   31  C   UNL     1       8.357  20.360  55.448  1.00  0.00     0.002 A 
HETATM   32  C   UNL     1       7.747  21.608  55.592  1.00  0.00     0.031 A 
ENDBRANCH   6  27
TORSDOF 6
ENDMDL
MODEL 9
REMARK VINA RESULT:      -9.0      1.664      3.010
REMARK  6 active torsions:
REMARK  status: ('A' for Active; 'I' for Inactive)
REMARK    1  A    between atoms: C_2  and  C_3 
REMARK    2  A    between atoms: C_3  and  C_4 
REMARK    3  A    between atoms: C_4  and  C_5 
REMARK    4  A    between atoms: C_8  and  N_9 
REMARK       I    between atoms: N_9  and  C_10 
REMARK    5  A    between atoms: C_10  and  C_11 
REMARK    6  A    between atoms: N_16  and  C_17 
ROOT
HETATM    1  C   UNL     1       6.115  30.931  58.157  1.00  0.00     0.098 A 
HETATM    2  C   UNL     1       7.337  30.843  59.029  1.00  0.00     0.205 A 
HETATM    3  O   UNL     1       8.313  30.166  58.719  1.00  0.00    -0.286 OA
HETATM    4  C   UNL     1       7.277  31.662  60.224  1.00  0.00     0.087 A 
HETATM    5  C   UNL     1       6.177  32.435  60.519  1.00  0.00     0.145 A 
HETATM    6  N   UNL     1       6.446  33.112  61.699  1.00  0.00    -0.216 N 
HETATM    7  N   UNL     1       7.723  32.844  62.112  1.00  0.00    -0.170 NA
HETATM    8  C   UNL     1       8.197  31.932  61.251  1.00  0.00     0.069 A 
HETATM    9  C   UNL     1       9.558  31.368  61.430  1.00  0.00     0.073 C 
HETATM   10  N   UNL     1       5.100  32.505  59.699  1.00  0.00    -0.349 N 
HETATM   11  C   UNL     1       5.110  31.750  58.540  1.00  0.00     0.111 A 
HETATM   12  H   UNL     1       4.395  33.238  59.751  1.00  0.00     0.167 HD
ENDROOT
BRANCH   1  13
HETATM   13  C   UNL     1       5.965  30.218  56.853  1.00  0.00     0.261 C 
HETATM   14  N   UNL     1       6.330  28.887  56.877  1.00  0.00    -0.323 N 
HETATM   15  H   UNL     1       6.622  28.502  57.775  1.00  0.00     0.169 HD
HETATM   16  O   UNL     1       5.581  30.839  55.866  1.00  0.00    -0.267 OA
BRANCH  14  17
HETATM   17  C   UNL     1       6.432  28.009  55.776  1.00  0.00     0.035 A 
HETATM   18  C   UNL     1       7.457  28.058  54.832  1.00  0.00     0.030 A 
HETATM   19  C   UNL     1       7.523  27.112  53.805  1.00  0.00     0.009 A 
HETATM   20  C   UNL     1       6.574  26.088  53.711  1.00  0.00    -0.058 A 
HETATM   21  C   UNL     1       5.527  26.057  54.638  1.00  0.00     0.009 A 
HETATM   22  C   UNL     1       5.454  27.016  55.656  1.00  0.00     0.030 A 
BRANCH  20  23
HETATM   23  C   UNL     1       6.696  25.030  52.641  1.00  0.00     0.038 C 
BRANCH  23  24
HETATM   24  C   UNL     1       7.992  24.223  52.789  1.00  0.00     0.004 C 
BRANCH  24  25
HETATM   25  C   UNL     1       7.717  22.792  53.248  1.00  0.00    -0.004 C 
HETATM   26  C   UNL     1       7.686  22.695  54.765  1.00  0.00     0.005 C 
ENDBRANCH  24  25
ENDBRANCH  23  24
ENDBRANCH  20  23
ENDBRANCH  14  17
ENDBRANCH   1  13
BRANCH   6  27
HETATM   27  C   UNL     1       5.621  33.987  62.463  1.00  0.00     0.060 A 
HETATM   28  C   UNL     1       5.805  35.376  62.456  1.00  0.00     0.031 A 
HETATM   29  C   UNL     1       4.991  36.197  63.244  1.00  0.00     0.002 A 
HETATM   30  C   UNL     1       3.984  35.642  64.030  1.00  0.00     0.000 A 
HETATM   31  C   UNL     1       3.771  34.266  64.017  1.00  0.00     0.002 A 
HETATM   32  C   UNL     1       4.580  33.441  63.232  1.00  0.00     0.031 A 
ENDBRANCH   6  27
TORSDOF 6
ENDMDL
MODEL 10
REMARK VINA RESULT:      -8.8      1.912      3.025
REMARK  6 active torsions:
REMARK  status: ('A' for Active; 'I' for Inactive)
REMARK    1  A    between atoms: C_2  and  C_3 
REMARK    2  A    between atoms: C_3  and  C_4 
REMARK    3  A    between atoms: C_4  and  C_5 
REMARK    4  A    between atoms: C_8  and  N_9 
REMARK       I    between atoms: N_9  and  C_10 
REMARK    5  A    between atoms: C_10  and  C_11 
REMARK    6  A    between atoms: N_16  and  C_17 
ROOT
HETATM    1  C   UNL     1       6.967  31.556  59.695  1.00  0.00     0.098 A 
HETATM    2  C   UNL     1       6.010  32.690  59.453  1.00  0.00     0.205 A 
HETATM    3  O   UNL     1       5.590  32.961  58.332  1.00  0.00    -0.286 OA
HETATM    4  C   UNL     1       5.598  33.389  60.655  1.00  0.00     0.087 A 
HETATM    5  C   UNL     1       6.067  33.032  61.899  1.00  0.00     0.145 A 
HETATM    6  N   UNL     1       5.462  33.866  62.828  1.00  0.00    -0.216 N 
HETATM    7  N   UNL     1       4.562  34.687  62.205  1.00  0.00    -0.170 NA
HETATM    8  C   UNL     1       4.687  34.432  60.895  1.00  0.00     0.069 A 
HETATM    9  C   UNL     1       3.885  35.190  59.903  1.00  0.00     0.073 C 
HETATM   10  N   UNL     1       6.914  31.991  62.082  1.00  0.00    -0.349 N 
HETATM   11  C   UNL     1       7.332  31.284  60.969  1.00  0.00     0.111 A 
HETATM   12  H   UNL     1       7.080  31.546  62.983  1.00  0.00     0.167 HD
ENDROOT
BRANCH   1  13
HETATM   13  C   UNL     1       7.494  30.661  58.621  1.00  0.00     0.261 C 
HETATM   14  N   UNL     1       6.545  29.861  58.018  1.00  0.00    -0.323 N 
HETATM   15  H   UNL     1       5.578  29.979  58.321  1.00  0.00     0.169 HD
HETATM   16  O   UNL     1       8.697  30.659  58.373  1.00  0.00    -0.267 OA
BRANCH  14  17
HETATM   17  C   UNL     1       6.768  28.826  57.084  1.00  0.00     0.035 A 
HETATM   18  C   UNL     1       6.683  28.991  55.702  1.00  0.00     0.030 A 
HETATM   19  C   UNL     1       6.981  27.930  54.841  1.00  0.00     0.009 A 
HETATM   20  C   UNL     1       7.384  26.689  55.345  1.00  0.00    -0.058 A 
HETATM   21  C   UNL     1       7.439  26.513  56.731  1.00  0.00     0.009 A 
HETATM   22  C   UNL     1       7.124  27.572  57.592  1.00  0.00     0.030 A 
BRANCH  20  23
HETATM   23  C   UNL     1       7.774  25.574  54.404  1.00  0.00     0.038 C 
BRANCH  23  24
HETATM   24  C   UNL     1       7.594  24.197  55.055  1.00  0.00     0.004 C 
BRANCH  24  25
HETATM   25  C   UNL     1       7.958  23.067  54.094  1.00  0.00    -0.004 C 
HETATM   26  C   UNL     1       7.834  23.513  52.645  1.00  0.00     0.005 C 
ENDBRANCH  24  25
ENDBRANCH  23  24
ENDBRANCH  20  23
ENDBRANCH  14  17
ENDBRANCH   1  13
BRANCH   6  27
HETATM   27  C   UNL     1       5.647  33.954  64.238  1.00  0.00     0.060 A 
HETATM   28  C   UNL     1       6.921  34.007  64.818  1.00  0.00     0.031 A 
HETATM   29  C   UNL     1       7.060  34.063  66.209  1.00  0.00     0.002 A 
HETATM   30  C   UNL     1       5.932  34.081  67.027  1.00  0.00     0.000 A 
HETATM   31  C   UNL     1       4.661  34.064  66.458  1.00  0.00     0.002 A 
HETATM   32  C   UNL     1       4.517  34.009  65.070  1.00  0.00     0.031 A 
ENDBRANCH   6  27
TORSDOF 6
ENDMDL
