MODEL 1
REMARK VINA RESULT:      -8.9      0.000      0.000
REMARK  6 active torsions:
REMARK  status: ('A' for Active; 'I' for Inactive)
REMARK    1  A    between atoms: C_2  and  C_3 
REMARK       I    between atoms: C_3  and  N_4 
REMARK    2  A    between atoms: N_4  and  C_5 
REMARK    3  A    between atoms: N_6  and  C_7 
REMARK    4  A    between atoms: C_7  and  C_8 
REMARK    5  A    between atoms: C_11  and  O_12 
REMARK    6  A    between atoms: C_20  and  C_21 
ROOT
HETATM    1  C   UNL     1       7.015  29.794  57.405  1.00  0.00     0.125 A 
HETATM    2  N   UNL     1       7.488  29.202  56.246  1.00  0.00    -0.332 N 
HETATM    3  C   UNL     1       8.863  29.430  56.152  1.00  0.00     0.017 A 
HETATM    4  C   UNL     1       9.703  28.995  54.992  1.00  0.00     0.069 C 
HETATM    5  C   UNL     1       9.274  30.122  57.285  1.00  0.00    -0.022 A 
HETATM    6  C   UNL     1      10.668  30.558  57.577  1.00  0.00     0.051 C 
HETATM    7  C   UNL     1       8.107  30.346  58.065  1.00  0.00     0.062 A 
ENDROOT
BRANCH   7   8
HETATM    8  C   UNL     1       7.975  31.034  59.396  1.00  0.00     0.143 A 
HETATM    9  N   UNL     1       7.331  32.177  59.565  1.00  0.00    -0.228 NA
HETATM   10  C   UNL     1       7.371  32.433  60.913  1.00  0.00     0.086 A 
HETATM   11  C   UNL     1       8.073  31.440  61.584  1.00  0.00     0.062 A 
HETATM   12  C   UNL     1       6.819  33.496  61.642  1.00  0.00     0.034 A 
HETATM   13  N   UNL     1       8.459  30.574  60.594  1.00  0.00    -0.338 N 
HETATM   14  C   UNL     1       8.264  31.436  62.968  1.00  0.00     0.032 A 
HETATM   15  H   UNL     1       8.971  29.720  60.732  1.00  0.00     0.167 HD
HETATM   16  C   UNL     1       7.702  32.502  63.680  1.00  0.00     0.002 A 
HETATM   17  C   UNL     1       6.992  33.516  63.032  1.00  0.00     0.002 A 
ENDBRANCH   7   8
BRANCH   1  18
HETATM   18  N   UNL     1       5.707  29.921  57.864  1.00  0.00    -0.312 N 
HETATM   19  C   UNL     1       4.749  30.829  57.477  1.00  0.00     0.222 C 
HETATM   20  O   UNL     1       4.853  31.675  56.597  1.00  0.00    -0.273 OA
HETATM   21  H   UNL     1       5.367  29.067  58.313  1.00  0.00     0.170 HD
BRANCH  19  22
HETATM   22  C   UNL     1       3.474  30.742  58.303  1.00  0.00     0.099 C 
HETATM   23  C   UNL     1       3.469  31.614  59.545  1.00  0.00     0.014 C 
ENDBRANCH  19  22
ENDBRANCH   1  18
BRANCH   2  24
HETATM   24  C   UNL     1       6.700  28.611  55.157  1.00  0.00     0.169 C 
BRANCH  24  25
HETATM   25  C   UNL     1       6.751  27.095  55.062  1.00  0.00    -0.040 A 
HETATM   26  C   UNL     1       7.163  26.524  53.848  1.00  0.00     0.011 A 
HETATM   27  C   UNL     1       7.282  25.137  53.710  1.00  0.00     0.037 A 
HETATM   28  C   UNL     1       7.009  24.289  54.783  1.00  0.00     0.068 A 
HETATM   29  C   UNL     1       6.583  24.841  55.988  1.00  0.00     0.037 A 
HETATM   30  C   UNL     1       6.451  26.229  56.124  1.00  0.00     0.011 A 
BRANCH  28  31
HETATM   31  O   UNL     1       7.188  22.957  54.527  1.00  0.00    -0.356 OA
HETATM   32  C   UNL     1       7.797  22.624  53.286  1.00  0.00     0.210 C 
ENDBRANCH  28  31
ENDBRANCH  24  25
ENDBRANCH   2  24
TORSDOF 6
ENDMDL
MODEL 2
REMARK VINA RESULT:      -8.8      3.819      8.931
REMARK  6 active torsions:
REMARK  status: ('A' for Active; 'I' for Inactive)
REMARK    1  A    between atoms: C_2  and  C_3 
REMARK       I    between atoms: C_3  and  N_4 
REMARK    2  A    between atoms: N_4  and  C_5 
REMARK    3  A    between atoms: N_6  and  C_7 
REMARK    4  A    between atoms: C_7  and  C_8 
REMARK    5  A    between atoms: C_11  and  O_12 
REMARK    6  A    between atoms: C_20  and  C_21 
ROOT
HETATM    1  C   UNL     1       5.587  26.424  54.142  1.00  0.00     0.125 A 
HETATM    2  N   UNL     1       6.291  25.855  55.189  1.00  0.00    -0.332 N 
HETATM    3  C   UNL     1       7.008  24.758  54.706  1.00  0.00     0.017 A 
HETATM    4  C   UNL     1       7.833  23.855  55.570  1.00  0.00     0.069 C 
HETATM    5  C   UNL     1       6.802  24.663  53.335  1.00  0.00    -0.022 A 
HETATM    6  C   UNL     1       7.391  23.631  52.437  1.00  0.00     0.051 C 
HETATM    7  C   UNL     1       5.907  25.714  52.990  1.00  0.00     0.062 A 
ENDROOT
BRANCH   7   8
HETATM    8  C   UNL     1       5.360  26.087  51.640  1.00  0.00     0.143 A 
HETATM    9  N   UNL     1       5.662  27.214  51.016  1.00  0.00    -0.228 NA
HETATM   10  C   UNL     1       5.031  27.148  49.799  1.00  0.00     0.086 A 
HETATM   11  C   UNL     1       4.308  25.969  49.680  1.00  0.00     0.062 A 
HETATM   12  C   UNL     1       5.037  28.060  48.735  1.00  0.00     0.034 A 
HETATM   13  N   UNL     1       4.521  25.323  50.870  1.00  0.00    -0.338 N 
HETATM   14  C   UNL     1       3.574  25.629  48.541  1.00  0.00     0.032 A 
HETATM   15  H   UNL     1       4.160  24.416  51.115  1.00  0.00     0.167 HD
HETATM   16  C   UNL     1       3.595  26.549  47.486  1.00  0.00     0.002 A 
HETATM   17  C   UNL     1       4.313  27.745  47.578  1.00  0.00     0.002 A 
ENDBRANCH   7   8
BRANCH   1  18
HETATM   18  N   UNL     1       4.660  27.463  54.159  1.00  0.00    -0.312 N 
HETATM   19  C   UNL     1       4.893  28.817  54.213  1.00  0.00     0.222 C 
HETATM   20  O   UNL     1       5.984  29.375  54.198  1.00  0.00    -0.273 OA
HETATM   21  H   UNL     1       3.745  27.174  53.803  1.00  0.00     0.170 HD
BRANCH  19  22
HETATM   22  C   UNL     1       3.620  29.639  54.351  1.00  0.00     0.099 C 
HETATM   23  C   UNL     1       3.555  30.492  55.605  1.00  0.00     0.014 C 
ENDBRANCH  19  22
ENDBRANCH   1  18
BRANCH   2  24
HETATM   24  C   UNL     1       6.178  26.169  56.618  1.00  0.00     0.169 C 
BRANCH  24  25
HETATM   25  C   UNL     1       6.900  27.427  57.070  1.00  0.00    -0.040 A 
HETATM   26  C   UNL     1       8.299  27.458  56.969  1.00  0.00     0.011 A 
HETATM   27  C   UNL     1       9.021  28.605  57.318  1.00  0.00     0.037 A 
HETATM   28  C   UNL     1       8.363  29.751  57.760  1.00  0.00     0.068 A 
HETATM   29  C   UNL     1       6.976  29.730  57.883  1.00  0.00     0.037 A 
HETATM   30  C   UNL     1       6.254  28.578  57.546  1.00  0.00     0.011 A 
BRANCH  28  31
HETATM   31  O   UNL     1       9.179  30.812  58.045  1.00  0.00    -0.356 OA
HETATM   32  C   UNL     1      10.534  30.703  57.626  1.00  0.00     0.210 C 
ENDBRANCH  28  31
ENDBRANCH  24  25
ENDBRANCH   2  24
TORSDOF 6
ENDMDL
MODEL 3
REMARK VINA RESULT:      -8.7      3.219      5.084
REMARK  6 active torsions:
REMARK  status: ('A' for Active; 'I' for Inactive)
REMARK    1  A    between atoms: C_2  and  C_3 
REMARK       I    between atoms: C_3  and  N_4 
REMARK    2  A    between atoms: N_4  and  C_5 
REMARK    3  A    between atoms: N_6  and  C_7 
REMARK    4  A    between atoms: C_7  and  C_8 
REMARK    5  A    between atoms: C_11  and  O_12 
REMARK    6  A    between atoms: C_20  and  C_21 
ROOT
HETATM    1  C   UNL     1       6.737  27.977  54.299  1.00  0.00     0.125 A 
HETATM    2  N   UNL     1       6.774  27.062  53.260  1.00  0.00    -0.332 N 
HETATM    3  C   UNL     1       5.513  27.010  52.661  1.00  0.00     0.017 A 
HETATM    4  C   UNL     1       5.158  26.077  51.544  1.00  0.00     0.069 C 
HETATM    5  C   UNL     1       4.688  27.937  53.285  1.00  0.00    -0.022 A 
HETATM    6  C   UNL     1       3.262  28.200  52.943  1.00  0.00     0.051 C 
HETATM    7  C   UNL     1       5.465  28.539  54.313  1.00  0.00     0.062 A 
ENDROOT
BRANCH   7   8
HETATM    8  C   UNL     1       5.076  29.618  55.285  1.00  0.00     0.143 A 
HETATM    9  N   UNL     1       4.422  29.384  56.411  1.00  0.00    -0.228 NA
HETATM   10  C   UNL     1       4.324  30.597  57.046  1.00  0.00     0.086 A 
HETATM   11  C   UNL     1       4.908  31.601  56.286  1.00  0.00     0.062 A 
HETATM   12  C   UNL     1       3.753  30.917  58.286  1.00  0.00     0.034 A 
HETATM   13  N   UNL     1       5.363  30.954  55.167  1.00  0.00    -0.338 N 
HETATM   14  C   UNL     1       4.965  32.937  56.691  1.00  0.00     0.032 A 
HETATM   15  H   UNL     1       5.864  31.383  54.408  1.00  0.00     0.167 HD
HETATM   16  C   UNL     1       4.394  33.238  57.934  1.00  0.00     0.002 A 
HETATM   17  C   UNL     1       3.798  32.248  58.720  1.00  0.00     0.002 A 
ENDBRANCH   7   8
BRANCH   1  18
HETATM   18  N   UNL     1       7.714  28.287  55.241  1.00  0.00    -0.312 N 
HETATM   19  C   UNL     1       7.792  27.889  56.555  1.00  0.00     0.222 C 
HETATM   20  O   UNL     1       7.031  27.125  57.137  1.00  0.00    -0.273 OA
HETATM   21  H   UNL     1       8.587  28.596  54.809  1.00  0.00     0.170 HD
BRANCH  19  22
HETATM   22  C   UNL     1       8.940  28.542  57.311  1.00  0.00     0.099 C 
HETATM   23  C   UNL     1       9.813  29.450  56.466  1.00  0.00     0.014 C 
ENDBRANCH  19  22
ENDBRANCH   1  18
BRANCH   2  24
HETATM   24  C   UNL     1       7.853  26.122  52.934  1.00  0.00     0.169 C 
BRANCH  24  25
HETATM   25  C   UNL     1       7.725  24.741  53.555  1.00  0.00    -0.040 A 
HETATM   26  C   UNL     1       8.043  23.628  52.760  1.00  0.00     0.011 A 
HETATM   27  C   UNL     1       7.998  22.333  53.285  1.00  0.00     0.037 A 
HETATM   28  C   UNL     1       7.649  22.117  54.618  1.00  0.00     0.068 A 
HETATM   29  C   UNL     1       7.314  23.209  55.414  1.00  0.00     0.037 A 
HETATM   30  C   UNL     1       7.347  24.507  54.885  1.00  0.00     0.011 A 
BRANCH  28  31
HETATM   31  O   UNL     1       7.667  20.808  55.016  1.00  0.00    -0.356 OA
HETATM   32  C   UNL     1       8.768  20.024  54.574  1.00  0.00     0.210 C 
ENDBRANCH  28  31
ENDBRANCH  24  25
ENDBRANCH   2  24
TORSDOF 6
ENDMDL
MODEL 4
REMARK VINA RESULT:      -8.6      2.115      3.636
REMARK  6 active torsions:
REMARK  status: ('A' for Active; 'I' for Inactive)
REMARK    1  A    between atoms: C_2  and  C_3 
REMARK       I    between atoms: C_3  and  N_4 
REMARK    2  A    between atoms: N_4  and  C_5 
REMARK    3  A    between atoms: N_6  and  C_7 
REMARK    4  A    between atoms: C_7  and  C_8 
REMARK    5  A    between atoms: C_11  and  O_12 
REMARK    6  A    between atoms: C_20  and  C_21 
ROOT
HETATM    1  C   UNL     1       5.770  29.058  56.480  1.00  0.00     0.125 A 
HETATM    2  N   UNL     1       5.042  29.068  55.302  1.00  0.00    -0.332 N 
HETATM    3  C   UNL     1       4.623  30.376  55.042  1.00  0.00     0.017 A 
HETATM    4  C   UNL     1       3.752  30.758  53.886  1.00  0.00     0.069 C 
HETATM    5  C   UNL     1       5.136  31.209  56.029  1.00  0.00    -0.022 A 
HETATM    6  C   UNL     1       4.927  32.680  56.118  1.00  0.00     0.051 C 
HETATM    7  C   UNL     1       5.855  30.372  56.928  1.00  0.00     0.062 A 
ENDROOT
BRANCH   7   8
HETATM    8  C   UNL     1       6.621  30.750  58.165  1.00  0.00     0.143 A 
HETATM    9  N   UNL     1       7.938  30.653  58.265  1.00  0.00    -0.228 NA
HETATM   10  C   UNL     1       8.256  31.156  59.502  1.00  0.00     0.086 A 
HETATM   11  C   UNL     1       7.113  31.548  60.186  1.00  0.00     0.062 A 
HETATM   12  C   UNL     1       9.509  31.318  60.109  1.00  0.00     0.034 A 
HETATM   13  N   UNL     1       6.089  31.262  59.320  1.00  0.00    -0.338 N 
HETATM   14  C   UNL     1       7.137  32.106  61.466  1.00  0.00     0.032 A 
HETATM   15  H   UNL     1       5.115  31.445  59.488  1.00  0.00     0.167 HD
HETATM   16  C   UNL     1       8.397  32.265  62.055  1.00  0.00     0.002 A 
HETATM   17  C   UNL     1       9.565  31.879  61.391  1.00  0.00     0.002 A 
ENDBRANCH   7   8
BRANCH   1  18
HETATM   18  N   UNL     1       6.294  27.981  57.188  1.00  0.00    -0.312 N 
HETATM   19  C   UNL     1       7.544  27.417  57.087  1.00  0.00     0.222 C 
HETATM   20  O   UNL     1       8.468  27.803  56.381  1.00  0.00    -0.273 OA
HETATM   21  H   UNL     1       5.785  27.801  58.057  1.00  0.00     0.170 HD
BRANCH  19  22
HETATM   22  C   UNL     1       7.706  26.163  57.933  1.00  0.00     0.099 C 
HETATM   23  C   UNL     1       8.512  25.059  57.273  1.00  0.00     0.014 C 
ENDBRANCH  19  22
ENDBRANCH   1  18
BRANCH   2  24
HETATM   24  C   UNL     1       4.572  27.911  54.531  1.00  0.00     0.169 C 
BRANCH  24  25
HETATM   25  C   UNL     1       5.637  26.886  54.179  1.00  0.00    -0.040 A 
HETATM   26  C   UNL     1       5.448  25.564  54.609  1.00  0.00     0.011 A 
HETATM   27  C   UNL     1       6.363  24.560  54.274  1.00  0.00     0.037 A 
HETATM   28  C   UNL     1       7.479  24.849  53.489  1.00  0.00     0.068 A 
HETATM   29  C   UNL     1       7.690  26.160  53.070  1.00  0.00     0.037 A 
HETATM   30  C   UNL     1       6.780  27.168  53.416  1.00  0.00     0.011 A 
BRANCH  28  31
HETATM   31  O   UNL     1       8.283  23.777  53.211  1.00  0.00    -0.356 OA
HETATM   32  C   UNL     1       8.218  22.682  54.115  1.00  0.00     0.210 C 
ENDBRANCH  28  31
ENDBRANCH  24  25
ENDBRANCH   2  24
TORSDOF 6
ENDMDL
MODEL 5
REMARK VINA RESULT:      -8.5      2.340      8.399
REMARK  6 active torsions:
REMARK  status: ('A' for Active; 'I' for Inactive)
REMARK    1  A    between atoms: C_2  and  C_3 
REMARK       I    between atoms: C_3  and  N_4 
REMARK    2  A    between atoms: N_4  and  C_5 
REMARK    3  A    between atoms: N_6  and  C_7 
REMARK    4  A    between atoms: C_7  and  C_8 
REMARK    5  A    between atoms: C_11  and  O_12 
REMARK    6  A    between atoms: C_20  and  C_21 
ROOT
HETATM    1  C   UNL     1       7.274  29.565  57.495  1.00  0.00     0.125 A 
HETATM    2  N   UNL     1       6.429  30.599  57.862  1.00  0.00    -0.332 N 
HETATM    3  C   UNL     1       5.115  30.237  57.556  1.00  0.00     0.017 A 
HETATM    4  C   UNL     1       3.935  31.138  57.751  1.00  0.00     0.069 C 
HETATM    5  C   UNL     1       5.120  28.945  57.046  1.00  0.00    -0.022 A 
HETATM    6  C   UNL     1       3.920  28.183  56.600  1.00  0.00     0.051 C 
HETATM    7  C   UNL     1       6.480  28.531  57.011  1.00  0.00     0.062 A 
ENDROOT
BRANCH   7   8
HETATM    8  C   UNL     1       7.059  27.218  56.563  1.00  0.00     0.143 A 
HETATM    9  N   UNL     1       7.706  26.393  57.371  1.00  0.00    -0.228 NA
HETATM   10  C   UNL     1       8.008  25.288  56.614  1.00  0.00     0.086 A 
HETATM   11  C   UNL     1       7.559  25.446  55.309  1.00  0.00     0.062 A 
HETATM   12  C   UNL     1       8.660  24.102  56.978  1.00  0.00     0.034 A 
HETATM   13  N   UNL     1       6.976  26.686  55.302  1.00  0.00    -0.338 N 
HETATM   14  C   UNL     1       7.719  24.473  54.319  1.00  0.00     0.032 A 
HETATM   15  H   UNL     1       6.521  27.113  54.513  1.00  0.00     0.167 HD
HETATM   16  C   UNL     1       8.368  23.293  54.701  1.00  0.00     0.002 A 
HETATM   17  C   UNL     1       8.831  23.107  56.006  1.00  0.00     0.002 A 
ENDBRANCH   7   8
BRANCH   1  18
HETATM   18  N   UNL     1       8.665  29.511  57.508  1.00  0.00    -0.312 N 
HETATM   19  C   UNL     1       9.530  29.478  56.440  1.00  0.00     0.222 C 
HETATM   20  O   UNL     1       9.233  29.549  55.253  1.00  0.00    -0.273 OA
HETATM   21  H   UNL     1       9.058  29.821  58.400  1.00  0.00     0.170 HD
BRANCH  19  22
HETATM   22  C   UNL     1      10.983  29.285  56.850  1.00  0.00     0.099 C 
HETATM   23  C   UNL     1      11.523  30.362  57.773  1.00  0.00     0.014 C 
ENDBRANCH  19  22
ENDBRANCH   1  18
BRANCH   2  24
HETATM   24  C   UNL     1       6.805  31.949  58.298  1.00  0.00     0.169 C 
BRANCH  24  25
HETATM   25  C   UNL     1       7.071  32.104  59.786  1.00  0.00    -0.040 A 
HETATM   26  C   UNL     1       8.386  31.927  60.244  1.00  0.00     0.011 A 
HETATM   27  C   UNL     1       8.708  32.107  61.593  1.00  0.00     0.037 A 
HETATM   28  C   UNL     1       7.731  32.483  62.513  1.00  0.00     0.068 A 
HETATM   29  C   UNL     1       6.418  32.646  62.077  1.00  0.00     0.037 A 
HETATM   30  C   UNL     1       6.092  32.453  60.729  1.00  0.00     0.011 A 
BRANCH  28  31
HETATM   31  O   UNL     1       8.179  32.652  63.795  1.00  0.00    -0.356 OA
HETATM   32  C   UNL     1       7.285  33.282  64.704  1.00  0.00     0.210 C 
ENDBRANCH  28  31
ENDBRANCH  24  25
ENDBRANCH   2  24
TORSDOF 6
ENDMDL
MODEL 6
REMARK VINA RESULT:      -8.4      4.060      9.887
REMARK  6 active torsions:
REMARK  status: ('A' for Active; 'I' for Inactive)
REMARK    1  A    between atoms: C_2  and  C_3 
REMARK       I    between atoms: C_3  and  N_4 
REMARK    2  A    between atoms: N_4  and  C_5 
REMARK    3  A    between atoms: N_6  and  C_7 
REMARK    4  A    between atoms: C_7  and  C_8 
REMARK    5  A    between atoms: C_11  and  O_12 
REMARK    6  A    between atoms: C_20  and  C_21 
ROOT
HETATM    1  C   UNL     1       5.012  33.463  61.049  1.00  0.00     0.125 A 
HETATM    2  N   UNL     1       3.852  34.199  61.228  1.00  0.00    -0.332 N 
HETATM    3  C   UNL     1       3.170  34.268  60.011  1.00  0.00     0.017 A 
HETATM    4  C   UNL     1       1.905  35.043  59.807  1.00  0.00     0.069 C 
HETATM    5  C   UNL     1       3.871  33.525  59.069  1.00  0.00    -0.022 A 
HETATM    6  C   UNL     1       3.479  33.338  57.644  1.00  0.00     0.051 C 
HETATM    7  C   UNL     1       5.026  33.024  59.730  1.00  0.00     0.062 A 
ENDROOT
BRANCH   7   8
HETATM    8  C   UNL     1       6.122  32.148  59.189  1.00  0.00     0.143 A 
HETATM    9  N   UNL     1       7.407  32.456  59.265  1.00  0.00    -0.228 NA
HETATM   10  C   UNL     1       8.080  31.385  58.733  1.00  0.00     0.086 A 
HETATM   11  C   UNL     1       7.192  30.409  58.299  1.00  0.00     0.062 A 
HETATM   12  C   UNL     1       9.458  31.171  58.594  1.00  0.00     0.034 A 
HETATM   13  N   UNL     1       5.956  30.928  58.586  1.00  0.00    -0.338 N 
HETATM   14  C   UNL     1       7.598  29.202  57.724  1.00  0.00     0.032 A 
HETATM   15  H   UNL     1       5.078  30.466  58.423  1.00  0.00     0.167 HD
HETATM   16  C   UNL     1       8.978  29.003  57.597  1.00  0.00     0.002 A 
HETATM   17  C   UNL     1       9.895  29.968  58.023  1.00  0.00     0.002 A 
ENDBRANCH   7   8
BRANCH   1  18
HETATM   18  N   UNL     1       6.052  33.219  61.942  1.00  0.00    -0.312 N 
HETATM   19  C   UNL     1       6.010  32.549  63.142  1.00  0.00     0.222 C 
HETATM   20  O   UNL     1       5.041  31.982  63.632  1.00  0.00    -0.273 OA
HETATM   21  H   UNL     1       6.971  33.300  61.500  1.00  0.00     0.170 HD
BRANCH  19  22
HETATM   22  C   UNL     1       7.327  32.601  63.903  1.00  0.00     0.099 C 
HETATM   23  C   UNL     1       7.428  33.733  64.908  1.00  0.00     0.014 C 
ENDBRANCH  19  22
ENDBRANCH   1  18
BRANCH   2  24
HETATM   24  C   UNL     1       3.461  34.978  62.409  1.00  0.00     0.169 C 
BRANCH  24  25
HETATM   25  C   UNL     1       4.350  36.167  62.731  1.00  0.00    -0.040 A 
HETATM   26  C   UNL     1       4.466  36.560  64.073  1.00  0.00     0.011 A 
HETATM   27  C   UNL     1       5.309  37.613  64.444  1.00  0.00     0.037 A 
HETATM   28  C   UNL     1       6.066  38.289  63.487  1.00  0.00     0.068 A 
HETATM   29  C   UNL     1       5.947  37.922  62.149  1.00  0.00     0.037 A 
HETATM   30  C   UNL     1       5.094  36.876  61.776  1.00  0.00     0.011 A 
BRANCH  28  31
HETATM   31  O   UNL     1       6.868  39.281  63.981  1.00  0.00    -0.356 OA
HETATM   32  C   UNL     1       7.419  40.185  63.032  1.00  0.00     0.210 C 
ENDBRANCH  28  31
ENDBRANCH  24  25
ENDBRANCH   2  24
TORSDOF 6
ENDMDL
MODEL 7
REMARK VINA RESULT:      -8.3      4.587      9.339
REMARK  6 active torsions:
REMARK  status: ('A' for Active; 'I' for Inactive)
REMARK    1  A    between atoms: C_2  and  C_3 
REMARK       I    between atoms: C_3  and  N_4 
REMARK    2  A    between atoms: N_4  and  C_5 
REMARK    3  A    between atoms: N_6  and  C_7 
REMARK    4  A    between atoms: C_7  and  C_8 
REMARK    5  A    between atoms: C_11  and  O_12 
REMARK    6  A    between atoms: C_20  and  C_21 
ROOT
HETATM    1  C   UNL     1       3.898  28.385  53.765  1.00  0.00     0.125 A 
HETATM    2  N   UNL     1       3.863  29.225  54.865  1.00  0.00    -0.332 N 
HETATM    3  C   UNL     1       3.604  30.527  54.429  1.00  0.00     0.017 A 
HETATM    4  C   UNL     1       3.562  31.717  55.337  1.00  0.00     0.069 C 
HETATM    5  C   UNL     1       3.417  30.504  53.053  1.00  0.00    -0.022 A 
HETATM    6  C   UNL     1       3.115  31.685  52.197  1.00  0.00     0.051 C 
HETATM    7  C   UNL     1       3.604  29.154  52.644  1.00  0.00     0.062 A 
ENDROOT
BRANCH   7   8
HETATM    8  C   UNL     1       3.505  28.560  51.267  1.00  0.00     0.143 A 
HETATM    9  N   UNL     1       4.497  27.910  50.679  1.00  0.00    -0.228 NA
HETATM   10  C   UNL     1       3.995  27.465  49.482  1.00  0.00     0.086 A 
HETATM   11  C   UNL     1       2.677  27.868  49.318  1.00  0.00     0.062 A 
HETATM   12  C   UNL     1       4.610  26.699  48.481  1.00  0.00     0.034 A 
HETATM   13  N   UNL     1       2.397  28.575  50.458  1.00  0.00    -0.338 N 
HETATM   14  C   UNL     1       1.910  27.548  48.195  1.00  0.00     0.032 A 
HETATM   15  H   UNL     1       1.511  28.994  50.683  1.00  0.00     0.167 HD
HETATM   16  C   UNL     1       2.537  26.779  47.207  1.00  0.00     0.002 A 
HETATM   17  C   UNL     1       3.863  26.360  47.345  1.00  0.00     0.002 A 
ENDBRANCH   7   8
BRANCH   1  18
HETATM   18  N   UNL     1       4.224  27.034  53.692  1.00  0.00    -0.312 N 
HETATM   19  C   UNL     1       5.471  26.457  53.626  1.00  0.00     0.222 C 
HETATM   20  O   UNL     1       6.551  27.035  53.677  1.00  0.00    -0.273 OA
HETATM   21  H   UNL     1       3.463  26.431  54.015  1.00  0.00     0.170 HD
BRANCH  19  22
HETATM   22  C   UNL     1       5.424  24.949  53.422  1.00  0.00     0.099 C 
HETATM   23  C   UNL     1       4.805  24.513  52.107  1.00  0.00     0.014 C 
ENDBRANCH  19  22
ENDBRANCH   1  18
BRANCH   2  24
HETATM   24  C   UNL     1       4.239  28.905  56.247  1.00  0.00     0.169 C 
BRANCH  24  25
HETATM   25  C   UNL     1       5.726  28.710  56.491  1.00  0.00    -0.040 A 
HETATM   26  C   UNL     1       6.602  29.722  56.069  1.00  0.00     0.011 A 
HETATM   27  C   UNL     1       7.977  29.629  56.310  1.00  0.00     0.037 A 
HETATM   28  C   UNL     1       8.507  28.534  56.991  1.00  0.00     0.068 A 
HETATM   29  C   UNL     1       7.653  27.514  57.399  1.00  0.00     0.037 A 
HETATM   30  C   UNL     1       6.277  27.599  57.147  1.00  0.00     0.011 A 
BRANCH  28  31
HETATM   31  O   UNL     1       9.861  28.575  57.185  1.00  0.00    -0.356 OA
HETATM   32  C   UNL     1      10.547  29.700  56.649  1.00  0.00     0.210 C 
ENDBRANCH  28  31
ENDBRANCH  24  25
ENDBRANCH   2  24
TORSDOF 6
ENDMDL
MODEL 8
REMARK VINA RESULT:      -8.1      1.954      2.556
REMARK  6 active torsions:
REMARK  status: ('A' for Active; 'I' for Inactive)
REMARK    1  A    between atoms: C_2  and  C_3 
REMARK       I    between atoms: C_3  and  N_4 
REMARK    2  A    between atoms: N_4  and  C_5 
REMARK    3  A    between atoms: N_6  and  C_7 
REMARK    4  A    between atoms: C_7  and  C_8 
REMARK    5  A    between atoms: C_11  and  O_12 
REMARK    6  A    between atoms: C_20  and  C_21 
ROOT
HETATM    1  C   UNL     1       7.145  30.413  57.491  1.00  0.00     0.125 A 
HETATM    2  N   UNL     1       8.281  29.800  56.990  1.00  0.00    -0.332 N 
HETATM    3  C   UNL     1       9.389  30.242  57.718  1.00  0.00     0.017 A 
HETATM    4  C   UNL     1      10.799  29.843  57.412  1.00  0.00     0.069 C 
HETATM    5  C   UNL     1       8.947  31.095  58.722  1.00  0.00    -0.022 A 
HETATM    6  C   UNL     1       9.812  31.780  59.722  1.00  0.00     0.051 C 
HETATM    7  C   UNL     1       7.536  31.196  58.571  1.00  0.00     0.062 A 
ENDROOT
BRANCH   7   8
HETATM    8  C   UNL     1       6.550  31.975  59.397  1.00  0.00     0.143 A 
HETATM    9  N   UNL     1       5.772  32.924  58.901  1.00  0.00    -0.228 NA
HETATM   10  C   UNL     1       4.975  33.335  59.940  1.00  0.00     0.086 A 
HETATM   11  C   UNL     1       5.283  32.642  61.103  1.00  0.00     0.062 A 
HETATM   12  C   UNL     1       3.954  34.295  59.962  1.00  0.00     0.034 A 
HETATM   13  N   UNL     1       6.297  31.798  60.733  1.00  0.00    -0.338 N 
HETATM   14  C   UNL     1       4.622  32.847  62.317  1.00  0.00     0.032 A 
HETATM   15  H   UNL     1       6.747  31.127  61.333  1.00  0.00     0.167 HD
HETATM   16  C   UNL     1       3.602  33.806  62.320  1.00  0.00     0.002 A 
HETATM   17  C   UNL     1       3.271  34.519  61.164  1.00  0.00     0.002 A 
ENDBRANCH   7   8
BRANCH   1  18
HETATM   18  N   UNL     1       5.834  30.366  57.024  1.00  0.00    -0.312 N 
HETATM   19  C   UNL     1       4.971  29.296  57.003  1.00  0.00     0.222 C 
HETATM   20  O   UNL     1       5.180  28.176  57.453  1.00  0.00    -0.273 OA
HETATM   21  H   UNL     1       5.407  31.294  56.970  1.00  0.00     0.170 HD
BRANCH  19  22
HETATM   22  C   UNL     1       3.660  29.597  56.290  1.00  0.00     0.099 C 
HETATM   23  C   UNL     1       3.822  30.139  54.882  1.00  0.00     0.014 C 
ENDBRANCH  19  22
ENDBRANCH   1  18
BRANCH   2  24
HETATM   24  C   UNL     1       8.396  28.988  55.773  1.00  0.00     0.169 C 
BRANCH  24  25
HETATM   25  C   UNL     1       8.059  27.516  55.935  1.00  0.00    -0.040 A 
HETATM   26  C   UNL     1       7.496  26.843  54.840  1.00  0.00     0.011 A 
HETATM   27  C   UNL     1       7.210  25.475  54.905  1.00  0.00     0.037 A 
HETATM   28  C   UNL     1       7.494  24.744  56.058  1.00  0.00     0.068 A 
HETATM   29  C   UNL     1       8.035  25.401  57.160  1.00  0.00     0.037 A 
HETATM   30  C   UNL     1       8.310  26.774  57.100  1.00  0.00     0.011 A 
BRANCH  28  31
HETATM   31  O   UNL     1       7.191  23.411  55.986  1.00  0.00    -0.356 OA
HETATM   32  C   UNL     1       8.275  22.504  56.137  1.00  0.00     0.210 C 
ENDBRANCH  28  31
ENDBRANCH  24  25
ENDBRANCH   2  24
TORSDOF 6
ENDMDL
MODEL 9
REMARK VINA RESULT:      -8.1      3.668      9.822
REMARK  6 active torsions:
REMARK  status: ('A' for Active; 'I' for Inactive)
REMARK    1  A    between atoms: C_2  and  C_3 
REMARK       I    between atoms: C_3  and  N_4 
REMARK    2  A    between atoms: N_4  and  C_5 
REMARK    3  A    between atoms: N_6  and  C_7 
REMARK    4  A    between atoms: C_7  and  C_8 
REMARK    5  A    between atoms: C_11  and  O_12 
REMARK    6  A    between atoms: C_20  and  C_21 
ROOT
HETATM    1  C   UNL     1       5.760  33.768  61.074  1.00  0.00     0.125 A 
HETATM    2  N   UNL     1       5.120  34.873  61.609  1.00  0.00    -0.332 N 
HETATM    3  C   UNL     1       4.080  35.248  60.755  1.00  0.00     0.017 A 
HETATM    4  C   UNL     1       3.211  36.447  60.976  1.00  0.00     0.069 C 
HETATM    5  C   UNL     1       4.023  34.342  59.703  1.00  0.00    -0.022 A 
HETATM    6  C   UNL     1       3.052  34.381  58.574  1.00  0.00     0.051 C 
HETATM    7  C   UNL     1       5.083  33.417  59.912  1.00  0.00     0.062 A 
ENDROOT
BRANCH   7   8
HETATM    8  C   UNL     1       5.473  32.222  59.087  1.00  0.00     0.143 A 
HETATM    9  N   UNL     1       6.722  31.948  58.744  1.00  0.00    -0.228 NA
HETATM   10  C   UNL     1       6.671  30.755  58.068  1.00  0.00     0.086 A 
HETATM   11  C   UNL     1       5.364  30.296  57.971  1.00  0.00     0.062 A 
HETATM   12  C   UNL     1       7.709  29.995  57.511  1.00  0.00     0.034 A 
HETATM   13  N   UNL     1       4.624  31.256  58.612  1.00  0.00    -0.338 N 
HETATM   14  C   UNL     1       5.014  29.099  57.343  1.00  0.00     0.032 A 
HETATM   15  H   UNL     1       3.628  31.229  58.751  1.00  0.00     0.167 HD
HETATM   16  C   UNL     1       6.063  28.350  56.797  1.00  0.00     0.002 A 
HETATM   17  C   UNL     1       7.388  28.787  56.877  1.00  0.00     0.002 A 
ENDBRANCH   7   8
BRANCH   1  18
HETATM   18  N   UNL     1       6.908  33.112  61.511  1.00  0.00    -0.312 N 
HETATM   19  C   UNL     1       7.007  32.027  62.350  1.00  0.00     0.222 C 
HETATM   20  O   UNL     1       6.081  31.387  62.834  1.00  0.00    -0.273 OA
HETATM   21  H   UNL     1       7.713  33.292  60.906  1.00  0.00     0.170 HD
BRANCH  19  22
HETATM   22  C   UNL     1       8.444  31.674  62.705  1.00  0.00     0.099 C 
HETATM   23  C   UNL     1       9.420  31.770  61.546  1.00  0.00     0.014 C 
ENDBRANCH  19  22
ENDBRANCH   1  18
BRANCH   2  24
HETATM   24  C   UNL     1       5.546  35.686  62.754  1.00  0.00     0.169 C 
BRANCH  24  25
HETATM   25  C   UNL     1       5.111  35.174  64.116  1.00  0.00    -0.040 A 
HETATM   26  C   UNL     1       6.063  34.515  64.909  1.00  0.00     0.011 A 
HETATM   27  C   UNL     1       5.742  34.065  66.194  1.00  0.00     0.037 A 
HETATM   28  C   UNL     1       4.470  34.277  66.724  1.00  0.00     0.068 A 
HETATM   29  C   UNL     1       3.509  34.913  65.943  1.00  0.00     0.037 A 
HETATM   30  C   UNL     1       3.826  35.353  64.651  1.00  0.00     0.011 A 
BRANCH  28  31
HETATM   31  O   UNL     1       4.291  33.812  67.999  1.00  0.00    -0.356 OA
HETATM   32  C   UNL     1       5.383  33.975  68.895  1.00  0.00     0.210 C 
ENDBRANCH  28  31
ENDBRANCH  24  25
ENDBRANCH   2  24
TORSDOF 6
ENDMDL
MODEL 10
REMARK VINA RESULT:      -8.0      2.600      8.432
REMARK  6 active torsions:
REMARK  status: ('A' for Active; 'I' for Inactive)
REMARK    1  A    between atoms: C_2  and  C_3 
REMARK       I    between atoms: C_3  and  N_4 
REMARK    2  A    between atoms: N_4  and  C_5 
REMARK    3  A    between atoms: N_6  and  C_7 
REMARK    4  A    between atoms: C_7  and  C_8 
REMARK    5  A    between atoms: C_11  and  O_12 
REMARK    6  A    between atoms: C_20  and  C_21 
ROOT
HETATM    1  C   UNL     1       6.123  29.364  55.772  1.00  0.00     0.125 A 
HETATM    2  N   UNL     1       5.274  30.454  55.689  1.00  0.00    -0.332 N 
HETATM    3  C   UNL     1       4.281  30.181  54.744  1.00  0.00     0.017 A 
HETATM    4  C   UNL     1       3.225  31.161  54.337  1.00  0.00     0.069 C 
HETATM    5  C   UNL     1       4.469  28.889  54.267  1.00  0.00    -0.022 A 
HETATM    6  C   UNL     1       3.623  28.209  53.247  1.00  0.00     0.051 C 
HETATM    7  C   UNL     1       5.628  28.384  54.918  1.00  0.00     0.062 A 
ENDROOT
BRANCH   7   8
HETATM    8  C   UNL     1       6.275  27.033  54.788  1.00  0.00     0.143 A 
HETATM    9  N   UNL     1       6.327  26.151  55.774  1.00  0.00    -0.228 NA
HETATM   10  C   UNL     1       6.922  25.034  55.244  1.00  0.00     0.086 A 
HETATM   11  C   UNL     1       7.263  25.238  53.914  1.00  0.00     0.062 A 
HETATM   12  C   UNL     1       7.197  23.795  55.841  1.00  0.00     0.034 A 
HETATM   13  N   UNL     1       6.856  26.522  53.656  1.00  0.00    -0.338 N 
HETATM   14  C   UNL     1       7.873  24.266  53.119  1.00  0.00     0.032 A 
HETATM   15  H   UNL     1       6.929  26.991  52.770  1.00  0.00     0.167 HD
HETATM   16  C   UNL     1       8.137  23.033  53.729  1.00  0.00     0.002 A 
HETATM   17  C   UNL     1       7.806  22.799  55.067  1.00  0.00     0.002 A 
ENDBRANCH   7   8
BRANCH   1  18
HETATM   18  N   UNL     1       7.306  29.215  56.492  1.00  0.00    -0.312 N 
HETATM   19  C   UNL     1       8.596  29.175  56.018  1.00  0.00     0.222 C 
HETATM   20  O   UNL     1       8.956  29.322  54.856  1.00  0.00    -0.273 OA
HETATM   21  H   UNL     1       7.193  29.456  57.480  1.00  0.00     0.170 HD
BRANCH  19  22
HETATM   22  C   UNL     1       9.621  28.865  57.099  1.00  0.00     0.099 C 
HETATM   23  C   UNL     1      10.910  29.659  56.989  1.00  0.00     0.014 C 
ENDBRANCH  19  22
ENDBRANCH   1  18
BRANCH   2  24
HETATM   24  C   UNL     1       5.454  31.777  56.298  1.00  0.00     0.169 C 
BRANCH  24  25
HETATM   25  C   UNL     1       5.087  31.874  57.769  1.00  0.00    -0.040 A 
HETATM   26  C   UNL     1       6.094  32.234  58.678  1.00  0.00     0.011 A 
HETATM   27  C   UNL     1       5.811  32.392  60.039  1.00  0.00     0.037 A 
HETATM   28  C   UNL     1       4.516  32.211  60.522  1.00  0.00     0.068 A 
HETATM   29  C   UNL     1       3.510  31.836  59.635  1.00  0.00     0.037 A 
HETATM   30  C   UNL     1       3.795  31.665  58.274  1.00  0.00     0.011 A 
BRANCH  28  31
HETATM   31  O   UNL     1       4.366  32.420  61.866  1.00  0.00    -0.356 OA
HETATM   32  C   UNL     1       3.283  33.252  62.263  1.00  0.00     0.210 C 
ENDBRANCH  28  31
ENDBRANCH  24  25
ENDBRANCH   2  24
TORSDOF 6
ENDMDL
