MODEL 1
REMARK VINA RESULT:     -11.2      0.000      0.000
REMARK  6 active torsions:
REMARK  status: ('A' for Active; 'I' for Inactive)
REMARK    1  A    between atoms: C_8  and  C_9 
REMARK    2  A    between atoms: N_10  and  N_11 
REMARK    3  A    between atoms: C_22  and  C_23 
REMARK       I    between atoms: C_23  and  N_24 
REMARK    4  A    between atoms: N_24  and  C_25 
REMARK    5  A    between atoms: C_25  and  C_26 
REMARK    6  A    between atoms: C_34  and  N_35 
ROOT
HETATM    1  N   UNL     1       5.343  27.326  55.408  1.00  0.00    -0.197 N 
HETATM    2  C   UNL     1       5.968  26.193  54.923  1.00  0.00     0.183 A 
HETATM    3  C   UNL     1       6.118  26.356  53.550  1.00  0.00     0.125 A 
HETATM    4  N   UNL     1       6.670  25.377  52.787  1.00  0.00    -0.242 NA
HETATM    5  C   UNL     1       7.052  24.282  53.460  1.00  0.00     0.086 A 
HETATM    6  C   UNL     1       6.892  24.146  54.865  1.00  0.00     0.088 A 
HETATM    7  N   UNL     1       6.342  25.101  55.631  1.00  0.00    -0.225 NA
HETATM    8  C   UNL     1       7.631  23.241  52.746  1.00  0.00     0.034 A 
HETATM    9  C   UNL     1       8.059  22.070  53.375  1.00  0.00     0.002 A 
HETATM   10  C   UNL     1       7.904  21.938  54.747  1.00  0.00     0.002 A 
HETATM   11  C   UNL     1       7.321  22.975  55.477  1.00  0.00     0.034 A 
HETATM   12  C   UNL     1       5.634  27.644  53.194  1.00  0.00     0.110 A 
HETATM   13  C   UNL     1       5.224  28.251  54.374  1.00  0.00     0.143 A 
ENDROOT
BRANCH   1  14
HETATM   14  N   UNL     1       4.964  27.589  56.690  1.00  0.00    -0.176 NA
HETATM   15  C   UNL     1       5.779  28.269  57.442  1.00  0.00     0.153 C 
BRANCH  15  16
HETATM   16  C   UNL     1       7.183  28.611  57.251  1.00  0.00     0.011 A 
HETATM   17  C   UNL     1       7.862  29.713  57.883  1.00  0.00     0.004 A 
HETATM   18  C   UNL     1       7.461  30.735  58.771  1.00  0.00     0.014 A 
HETATM   19  C   UNL     1       9.198  29.680  57.482  1.00  0.00     0.043 A 
HETATM   20  C   UNL     1       8.403  31.667  59.226  1.00  0.00     0.001 A 
HETATM   21  C   UNL     1       9.727  31.603  58.803  1.00  0.00     0.002 A 
HETATM   22  C   UNL     1      10.150  30.610  57.916  1.00  0.00     0.030 A 
HETATM   23  N   UNL     1       9.339  28.605  56.639  1.00  0.00    -0.364 N 
HETATM   24  H   UNL     1      10.203  28.336  56.189  1.00  0.00     0.165 HD
HETATM   25  C   UNL     1       8.155  27.922  56.544  1.00  0.00     0.102 A 
ENDBRANCH  15  16
ENDBRANCH   1  14
BRANCH  13  26
HETATM   26  N   UNL     1       4.684  29.481  54.617  1.00  0.00    -0.383 N 
HETATM   27  H   UNL     1       5.276  30.304  54.516  1.00  0.00     0.157 HD
HETATM   28  H   UNL     1       3.755  29.644  54.215  1.00  0.00     0.157 HD
ENDBRANCH  13  26
BRANCH  12  29
HETATM   29  C   UNL     1       5.560  28.212  51.860  1.00  0.00     0.258 C 
HETATM   30  N   UNL     1       5.037  27.360  50.913  1.00  0.00    -0.352 N 
HETATM   31  H   UNL     1       4.764  26.432  51.217  1.00  0.00     0.163 HD
HETATM   32  O   UNL     1       5.973  29.334  51.590  1.00  0.00    -0.267 OA
BRANCH  30  33
HETATM   33  C   UNL     1       5.131  27.650  49.505  1.00  0.00     0.161 C 
BRANCH  33  34
HETATM   34  C   UNL     1       3.816  27.458  48.794  1.00  0.00    -0.040 A 
HETATM   35  C   UNL     1       2.693  28.208  49.181  1.00  0.00     0.012 A 
HETATM   36  C   UNL     1       1.476  28.057  48.517  1.00  0.00     0.043 A 
HETATM   37  C   UNL     1       1.375  27.153  47.467  1.00  0.00     0.116 A 
HETATM   38  F   UNL     1       0.207  27.009  46.831  1.00  0.00    -0.206 F 
HETATM   39  C   UNL     1       2.471  26.398  47.067  1.00  0.00     0.043 A 
HETATM   40  C   UNL     1       3.693  26.553  47.725  1.00  0.00     0.012 A 
ENDBRANCH  33  34
ENDBRANCH  30  33
ENDBRANCH  12  29
TORSDOF 6
ENDMDL
MODEL 2
REMARK VINA RESULT:     -11.0      4.950      9.502
REMARK  6 active torsions:
REMARK  status: ('A' for Active; 'I' for Inactive)
REMARK    1  A    between atoms: C_8  and  C_9 
REMARK    2  A    between atoms: N_10  and  N_11 
REMARK    3  A    between atoms: C_22  and  C_23 
REMARK       I    between atoms: C_23  and  N_24 
REMARK    4  A    between atoms: N_24  and  C_25 
REMARK    5  A    between atoms: C_25  and  C_26 
REMARK    6  A    between atoms: C_34  and  N_35 
ROOT
HETATM    1  N   UNL     1       5.613  28.930  55.532  1.00  0.00    -0.197 N 
HETATM    2  C   UNL     1       6.788  29.302  56.156  1.00  0.00     0.183 A 
HETATM    3  C   UNL     1       6.446  30.063  57.268  1.00  0.00     0.125 A 
HETATM    4  N   UNL     1       7.403  30.608  58.063  1.00  0.00    -0.242 NA
HETATM    5  C   UNL     1       8.665  30.343  57.693  1.00  0.00     0.086 A 
HETATM    6  C   UNL     1       8.984  29.556  56.555  1.00  0.00     0.088 A 
HETATM    7  N   UNL     1       8.050  29.018  55.756  1.00  0.00    -0.225 NA
HETATM    8  C   UNL     1       9.697  30.862  58.463  1.00  0.00     0.034 A 
HETATM    9  C   UNL     1      11.037  30.627  58.146  1.00  0.00     0.002 A 
HETATM   10  C   UNL     1      11.350  29.857  57.035  1.00  0.00     0.002 A 
HETATM   11  C   UNL     1      10.321  29.331  56.251  1.00  0.00     0.034 A 
HETATM   12  C   UNL     1       5.028  30.105  57.366  1.00  0.00     0.110 A 
HETATM   13  C   UNL     1       4.539  29.337  56.317  1.00  0.00     0.143 A 
ENDROOT
BRANCH   1  14
HETATM   14  N   UNL     1       5.466  28.208  54.386  1.00  0.00    -0.176 NA
HETATM   15  C   UNL     1       5.549  26.912  54.463  1.00  0.00     0.153 C 
BRANCH  15  16
HETATM   16  C   UNL     1       6.030  26.056  55.541  1.00  0.00     0.011 A 
HETATM   17  C   UNL     1       6.989  24.992  55.389  1.00  0.00     0.004 A 
HETATM   18  C   UNL     1       7.691  24.450  54.290  1.00  0.00     0.014 A 
HETATM   19  C   UNL     1       7.221  24.442  56.651  1.00  0.00     0.043 A 
HETATM   20  C   UNL     1       8.595  23.400  54.494  1.00  0.00     0.001 A 
HETATM   21  C   UNL     1       8.798  22.875  55.766  1.00  0.00     0.002 A 
HETATM   22  C   UNL     1       8.110  23.382  56.871  1.00  0.00     0.030 A 
HETATM   23  N   UNL     1       6.440  25.134  57.542  1.00  0.00    -0.364 N 
HETATM   24  H   UNL     1       6.399  24.950  58.535  1.00  0.00     0.165 HD
HETATM   25  C   UNL     1       5.772  26.143  56.898  1.00  0.00     0.102 A 
ENDBRANCH  15  16
ENDBRANCH   1  14
BRANCH  13  26
HETATM   26  N   UNL     1       3.262  29.035  55.938  1.00  0.00    -0.383 N 
HETATM   27  H   UNL     1       2.761  28.306  56.443  1.00  0.00     0.157 HD
HETATM   28  H   UNL     1       2.654  29.839  55.753  1.00  0.00     0.157 HD
ENDBRANCH  13  26
BRANCH  12  29
HETATM   29  C   UNL     1       4.241  30.825  58.351  1.00  0.00     0.258 C 
HETATM   30  N   UNL     1       4.964  31.723  59.103  1.00  0.00    -0.352 N 
HETATM   31  H   UNL     1       5.958  31.798  58.917  1.00  0.00     0.163 HD
HETATM   32  O   UNL     1       3.047  30.613  58.531  1.00  0.00    -0.267 OA
BRANCH  30  33
HETATM   33  C   UNL     1       4.413  32.325  60.291  1.00  0.00     0.161 C 
BRANCH  33  34
HETATM   34  C   UNL     1       5.448  32.504  61.372  1.00  0.00    -0.040 A 
HETATM   35  C   UNL     1       6.815  32.447  61.051  1.00  0.00     0.012 A 
HETATM   36  C   UNL     1       7.783  32.633  62.037  1.00  0.00     0.043 A 
HETATM   37  C   UNL     1       7.390  32.873  63.348  1.00  0.00     0.116 A 
HETATM   38  F   UNL     1       8.320  33.052  64.293  1.00  0.00    -0.206 F 
HETATM   39  C   UNL     1       6.044  32.932  63.690  1.00  0.00     0.043 A 
HETATM   40  C   UNL     1       5.073  32.753  62.703  1.00  0.00     0.012 A 
ENDBRANCH  33  34
ENDBRANCH  30  33
ENDBRANCH  12  29
TORSDOF 6
ENDMDL
MODEL 3
REMARK VINA RESULT:     -10.8      2.842      5.847
REMARK  6 active torsions:
REMARK  status: ('A' for Active; 'I' for Inactive)
REMARK    1  A    between atoms: C_8  and  C_9 
REMARK    2  A    between atoms: N_10  and  N_11 
REMARK    3  A    between atoms: C_22  and  C_23 
REMARK       I    between atoms: C_23  and  N_24 
REMARK    4  A    between atoms: N_24  and  C_25 
REMARK    5  A    between atoms: C_25  and  C_26 
REMARK    6  A    between atoms: C_34  and  N_35 
ROOT
HETATM    1  N   UNL     1       4.760  28.831  55.518  1.00  0.00    -0.197 N 
HETATM    2  C   UNL     1       4.805  28.198  54.291  1.00  0.00     0.183 A 
HETATM    3  C   UNL     1       5.158  26.873  54.519  1.00  0.00     0.125 A 
HETATM    4  N   UNL     1       5.321  26.006  53.486  1.00  0.00    -0.242 NA
HETATM    5  C   UNL     1       5.107  26.527  52.269  1.00  0.00     0.086 A 
HETATM    6  C   UNL     1       4.740  27.884  52.067  1.00  0.00     0.088 A 
HETATM    7  N   UNL     1       4.582  28.755  53.077  1.00  0.00    -0.225 NA
HETATM    8  C   UNL     1       5.249  25.697  51.165  1.00  0.00     0.034 A 
HETATM    9  C   UNL     1       5.038  26.166  49.866  1.00  0.00     0.002 A 
HETATM   10  C   UNL     1       4.679  27.490  49.668  1.00  0.00     0.002 A 
HETATM   11  C   UNL     1       4.535  28.336  50.769  1.00  0.00     0.034 A 
HETATM   12  C   UNL     1       5.270  26.671  55.922  1.00  0.00     0.110 A 
HETATM   13  C   UNL     1       4.950  27.884  56.520  1.00  0.00     0.143 A 
ENDROOT
BRANCH   1  14
HETATM   14  N   UNL     1       4.492  30.142  55.774  1.00  0.00    -0.176 NA
HETATM   15  C   UNL     1       5.462  30.891  56.211  1.00  0.00     0.153 C 
BRANCH  15  16
HETATM   16  C   UNL     1       6.775  30.533  56.733  1.00  0.00     0.011 A 
HETATM   17  C   UNL     1       7.274  30.888  58.037  1.00  0.00     0.004 A 
HETATM   18  C   UNL     1       6.755  31.631  59.119  1.00  0.00     0.014 A 
HETATM   19  C   UNL     1       8.544  30.327  58.177  1.00  0.00     0.043 A 
HETATM   20  C   UNL     1       7.511  31.774  60.289  1.00  0.00     0.001 A 
HETATM   21  C   UNL     1       8.776  31.202  60.392  1.00  0.00     0.002 A 
HETATM   22  C   UNL     1       9.320  30.470  59.333  1.00  0.00     0.030 A 
HETATM   23  N   UNL     1       8.818  29.656  57.011  1.00  0.00    -0.364 N 
HETATM   24  H   UNL     1       9.674  29.152  56.825  1.00  0.00     0.165 HD
HETATM   25  C   UNL     1       7.741  29.720  56.166  1.00  0.00     0.102 A 
ENDBRANCH  15  16
ENDBRANCH   1  14
BRANCH  13  26
HETATM   26  N   UNL     1       4.894  28.257  57.832  1.00  0.00    -0.383 N 
HETATM   27  H   UNL     1       5.424  27.719  58.516  1.00  0.00     0.157 HD
HETATM   28  H   UNL     1       4.978  29.262  58.011  1.00  0.00     0.157 HD
ENDBRANCH  13  26
BRANCH  12  29
HETATM   29  C   UNL     1       5.661  25.450  56.601  1.00  0.00     0.258 C 
HETATM   30  N   UNL     1       6.910  24.986  56.252  1.00  0.00    -0.352 N 
HETATM   31  H   UNL     1       7.431  25.517  55.564  1.00  0.00     0.163 HD
HETATM   32  O   UNL     1       4.923  24.856  57.380  1.00  0.00    -0.267 OA
BRANCH  30  33
HETATM   33  C   UNL     1       7.352  23.664  56.618  1.00  0.00     0.161 C 
BRANCH  33  34
HETATM   34  C   UNL     1       7.604  22.794  55.414  1.00  0.00    -0.040 A 
HETATM   35  C   UNL     1       7.726  21.402  55.568  1.00  0.00     0.012 A 
HETATM   36  C   UNL     1       7.938  20.582  54.459  1.00  0.00     0.043 A 
HETATM   37  C   UNL     1       8.033  21.150  53.195  1.00  0.00     0.116 A 
HETATM   38  F   UNL     1       8.236  20.363  52.132  1.00  0.00    -0.206 F 
HETATM   39  C   UNL     1       7.918  22.524  53.018  1.00  0.00     0.043 A 
HETATM   40  C   UNL     1       7.699  23.346  54.125  1.00  0.00     0.012 A 
ENDBRANCH  33  34
ENDBRANCH  30  33
ENDBRANCH  12  29
TORSDOF 6
ENDMDL
MODEL 4
REMARK VINA RESULT:     -10.6      4.397      9.083
REMARK  6 active torsions:
REMARK  status: ('A' for Active; 'I' for Inactive)
REMARK    1  A    between atoms: C_8  and  C_9 
REMARK    2  A    between atoms: N_10  and  N_11 
REMARK    3  A    between atoms: C_22  and  C_23 
REMARK       I    between atoms: C_23  and  N_24 
REMARK    4  A    between atoms: N_24  and  C_25 
REMARK    5  A    between atoms: C_25  and  C_26 
REMARK    6  A    between atoms: C_34  and  N_35 
ROOT
HETATM    1  N   UNL     1       5.303  28.457  57.072  1.00  0.00    -0.197 N 
HETATM    2  C   UNL     1       6.116  27.342  56.993  1.00  0.00     0.183 A 
HETATM    3  C   UNL     1       7.355  27.693  57.516  1.00  0.00     0.125 A 
HETATM    4  N   UNL     1       8.382  26.805  57.535  1.00  0.00    -0.242 NA
HETATM    5  C   UNL     1       8.095  25.596  57.028  1.00  0.00     0.086 A 
HETATM    6  C   UNL     1       6.816  25.264  56.506  1.00  0.00     0.088 A 
HETATM    7  N   UNL     1       5.795  26.134  56.474  1.00  0.00    -0.225 NA
HETATM    8  C   UNL     1       9.095  24.633  57.020  1.00  0.00     0.034 A 
HETATM    9  C   UNL     1       8.872  23.351  56.513  1.00  0.00     0.002 A 
HETATM   10  C   UNL     1       7.624  23.026  56.004  1.00  0.00     0.002 A 
HETATM   11  C   UNL     1       6.610  23.985  56.005  1.00  0.00     0.034 A 
HETATM   12  C   UNL     1       7.283  29.032  57.987  1.00  0.00     0.110 A 
HETATM   13  C   UNL     1       5.979  29.458  57.762  1.00  0.00     0.143 A 
ENDROOT
BRANCH   1  14
HETATM   14  N   UNL     1       4.016  28.587  56.645  1.00  0.00    -0.176 NA
HETATM   15  C   UNL     1       3.775  28.440  55.375  1.00  0.00     0.153 C 
BRANCH  15  16
HETATM   16  C   UNL     1       4.683  28.403  54.235  1.00  0.00     0.011 A 
HETATM   17  C   UNL     1       4.957  27.240  53.431  1.00  0.00     0.004 A 
HETATM   18  C   UNL     1       4.527  25.896  53.467  1.00  0.00     0.014 A 
HETATM   19  C   UNL     1       5.839  27.618  52.418  1.00  0.00     0.043 A 
HETATM   20  C   UNL     1       4.980  24.995  52.495  1.00  0.00     0.001 A 
HETATM   21  C   UNL     1       5.861  25.409  51.500  1.00  0.00     0.002 A 
HETATM   22  C   UNL     1       6.314  26.729  51.446  1.00  0.00     0.030 A 
HETATM   23  N   UNL     1       6.099  28.955  52.589  1.00  0.00    -0.364 N 
HETATM   24  H   UNL     1       6.713  29.502  52.000  1.00  0.00     0.165 HD
HETATM   25  C   UNL     1       5.364  29.448  53.635  1.00  0.00     0.102 A 
ENDBRANCH  15  16
ENDBRANCH   1  14
BRANCH  13  26
HETATM   26  N   UNL     1       5.361  30.649  58.020  1.00  0.00    -0.383 N 
HETATM   27  H   UNL     1       4.513  30.648  58.584  1.00  0.00     0.157 HD
HETATM   28  H   UNL     1       5.980  31.420  58.287  1.00  0.00     0.157 HD
ENDBRANCH  13  26
BRANCH  12  29
HETATM   29  C   UNL     1       8.359  29.814  58.568  1.00  0.00     0.258 C 
HETATM   30  N   UNL     1       8.166  30.145  59.890  1.00  0.00    -0.352 N 
HETATM   31  H   UNL     1       7.308  29.830  60.331  1.00  0.00     0.163 HD
HETATM   32  O   UNL     1       9.331  30.190  57.922  1.00  0.00    -0.267 OA
BRANCH  30  33
HETATM   33  C   UNL     1       8.988  31.128  60.549  1.00  0.00     0.161 C 
BRANCH  33  34
HETATM   34  C   UNL     1       8.197  31.990  61.499  1.00  0.00    -0.040 A 
HETATM   35  C   UNL     1       8.542  32.034  62.860  1.00  0.00     0.012 A 
HETATM   36  C   UNL     1       7.833  32.845  63.745  1.00  0.00     0.043 A 
HETATM   37  C   UNL     1       6.773  33.610  63.275  1.00  0.00     0.116 A 
HETATM   38  F   UNL     1       6.093  34.388  64.126  1.00  0.00    -0.206 F 
HETATM   39  C   UNL     1       6.411  33.581  61.934  1.00  0.00     0.043 A 
HETATM   40  C   UNL     1       7.124  32.776  61.044  1.00  0.00     0.012 A 
ENDBRANCH  33  34
ENDBRANCH  30  33
ENDBRANCH  12  29
TORSDOF 6
ENDMDL
MODEL 5
REMARK VINA RESULT:     -10.6      4.160      6.827
REMARK  6 active torsions:
REMARK  status: ('A' for Active; 'I' for Inactive)
REMARK    1  A    between atoms: C_8  and  C_9 
REMARK    2  A    between atoms: N_10  and  N_11 
REMARK    3  A    between atoms: C_22  and  C_23 
REMARK       I    between atoms: C_23  and  N_24 
REMARK    4  A    between atoms: N_24  and  C_25 
REMARK    5  A    between atoms: C_25  and  C_26 
REMARK    6  A    between atoms: C_34  and  N_35 
ROOT
HETATM    1  N   UNL     1       5.184  29.407  57.182  1.00  0.00    -0.197 N 
HETATM    2  C   UNL     1       6.556  29.571  57.182  1.00  0.00     0.183 A 
HETATM    3  C   UNL     1       7.081  28.673  56.259  1.00  0.00     0.125 A 
HETATM    4  N   UNL     1       8.422  28.575  56.066  1.00  0.00    -0.242 NA
HETATM    5  C   UNL     1       9.164  29.404  56.816  1.00  0.00     0.086 A 
HETATM    6  C   UNL     1       8.598  30.315  57.746  1.00  0.00     0.088 A 
HETATM    7  N   UNL     1       7.276  30.418  57.953  1.00  0.00    -0.225 NA
HETATM    8  C   UNL     1      10.545  29.364  56.668  1.00  0.00     0.034 A 
HETATM    9  C   UNL     1      11.384  30.198  57.410  1.00  0.00     0.002 A 
HETATM   10  C   UNL     1      10.832  31.089  58.318  1.00  0.00     0.002 A 
HETATM   11  C   UNL     1       9.446  31.138  58.478  1.00  0.00     0.034 A 
HETATM   12  C   UNL     1       6.005  27.989  55.632  1.00  0.00     0.110 A 
HETATM   13  C   UNL     1       4.838  28.512  56.174  1.00  0.00     0.143 A 
ENDROOT
BRANCH   1  14
HETATM   14  N   UNL     1       4.264  30.050  57.955  1.00  0.00    -0.176 NA
HETATM   15  C   UNL     1       3.772  31.171  57.516  1.00  0.00     0.153 C 
BRANCH  15  16
HETATM   16  C   UNL     1       4.209  32.036  56.426  1.00  0.00     0.011 A 
HETATM   17  C   UNL     1       4.451  33.451  56.537  1.00  0.00     0.004 A 
HETATM   18  C   UNL     1       4.342  34.388  57.588  1.00  0.00     0.014 A 
HETATM   19  C   UNL     1       4.896  33.908  55.296  1.00  0.00     0.043 A 
HETATM   20  C   UNL     1       4.686  35.727  57.362  1.00  0.00     0.001 A 
HETATM   21  C   UNL     1       5.123  36.147  56.110  1.00  0.00     0.002 A 
HETATM   22  C   UNL     1       5.231  35.245  55.048  1.00  0.00     0.030 A 
HETATM   23  N   UNL     1       4.926  32.823  54.455  1.00  0.00    -0.364 N 
HETATM   24  H   UNL     1       5.206  32.856  53.484  1.00  0.00     0.165 HD
HETATM   25  C   UNL     1       4.578  31.688  55.138  1.00  0.00     0.102 A 
ENDBRANCH  15  16
ENDBRANCH   1  14
BRANCH  13  26
HETATM   26  N   UNL     1       3.523  28.225  55.936  1.00  0.00    -0.383 N 
HETATM   27  H   UNL     1       3.038  28.731  55.198  1.00  0.00     0.157 HD
HETATM   28  H   UNL     1       3.285  27.229  55.918  1.00  0.00     0.157 HD
ENDBRANCH  13  26
BRANCH  12  29
HETATM   29  C   UNL     1       6.099  26.934  54.639  1.00  0.00     0.258 C 
HETATM   30  N   UNL     1       7.341  26.347  54.557  1.00  0.00    -0.352 N 
HETATM   31  H   UNL     1       8.067  26.696  55.174  1.00  0.00     0.163 HD
HETATM   32  O   UNL     1       5.168  26.629  53.902  1.00  0.00    -0.267 OA
BRANCH  30  33
HETATM   33  C   UNL     1       7.693  25.478  53.462  1.00  0.00     0.161 C 
BRANCH  33  34
HETATM   34  C   UNL     1       7.734  24.029  53.874  1.00  0.00    -0.040 A 
HETATM   35  C   UNL     1       7.880  23.027  52.900  1.00  0.00     0.012 A 
HETATM   36  C   UNL     1       7.942  21.683  53.269  1.00  0.00     0.043 A 
HETATM   37  C   UNL     1       7.853  21.336  54.611  1.00  0.00     0.116 A 
HETATM   38  F   UNL     1       7.912  20.046  54.964  1.00  0.00    -0.206 F 
HETATM   39  C   UNL     1       7.706  22.309  55.592  1.00  0.00     0.043 A 
HETATM   40  C   UNL     1       7.651  23.655  55.226  1.00  0.00     0.012 A 
ENDBRANCH  33  34
ENDBRANCH  30  33
ENDBRANCH  12  29
TORSDOF 6
ENDMDL
MODEL 6
REMARK VINA RESULT:     -10.5      3.521      7.231
REMARK  6 active torsions:
REMARK  status: ('A' for Active; 'I' for Inactive)
REMARK    1  A    between atoms: C_8  and  C_9 
REMARK    2  A    between atoms: N_10  and  N_11 
REMARK    3  A    between atoms: C_22  and  C_23 
REMARK       I    between atoms: C_23  and  N_24 
REMARK    4  A    between atoms: N_24  and  C_25 
REMARK    5  A    between atoms: C_25  and  C_26 
REMARK    6  A    between atoms: C_34  and  N_35 
ROOT
HETATM    1  N   UNL     1       4.776  29.151  55.634  1.00  0.00    -0.197 N 
HETATM    2  C   UNL     1       6.083  29.357  56.035  1.00  0.00     0.183 A 
HETATM    3  C   UNL     1       6.890  28.529  55.263  1.00  0.00     0.125 A 
HETATM    4  N   UNL     1       8.233  28.483  55.459  1.00  0.00    -0.242 NA
HETATM    5  C   UNL     1       8.692  29.291  56.427  1.00  0.00     0.086 A 
HETATM    6  C   UNL     1       7.843  30.132  57.195  1.00  0.00     0.088 A 
HETATM    7  N   UNL     1       6.514  30.182  57.018  1.00  0.00    -0.225 NA
HETATM    8  C   UNL     1      10.057  29.302  56.680  1.00  0.00     0.034 A 
HETATM    9  C   UNL     1      10.612  30.119  57.668  1.00  0.00     0.002 A 
HETATM   10  C   UNL     1       9.784  30.941  58.418  1.00  0.00     0.002 A 
HETATM   11  C   UNL     1       8.409  30.938  58.175  1.00  0.00     0.034 A 
HETATM   12  C   UNL     1       6.069  27.848  54.324  1.00  0.00     0.110 A 
HETATM   13  C   UNL     1       4.773  28.305  54.530  1.00  0.00     0.143 A 
ENDROOT
BRANCH   1  14
HETATM   14  N   UNL     1       3.646  29.722  56.138  1.00  0.00    -0.176 NA
HETATM   15  C   UNL     1       3.254  30.854  55.633  1.00  0.00     0.153 C 
BRANCH  15  16
HETATM   16  C   UNL     1       3.950  31.795  54.763  1.00  0.00     0.011 A 
HETATM   17  C   UNL     1       3.783  31.881  53.334  1.00  0.00     0.004 A 
HETATM   18  C   UNL     1       3.015  31.168  52.389  1.00  0.00     0.014 A 
HETATM   19  C   UNL     1       4.583  32.928  52.873  1.00  0.00     0.043 A 
HETATM   20  C   UNL     1       3.067  31.529  51.037  1.00  0.00     0.001 A 
HETATM   21  C   UNL     1       3.878  32.578  50.613  1.00  0.00     0.002 A 
HETATM   22  C   UNL     1       4.658  33.295  51.524  1.00  0.00     0.030 A 
HETATM   23  N   UNL     1       5.216  33.464  53.967  1.00  0.00    -0.364 N 
HETATM   24  H   UNL     1       5.864  34.239  53.934  1.00  0.00     0.165 HD
HETATM   25  C   UNL     1       4.795  32.835  55.109  1.00  0.00     0.102 A 
ENDBRANCH  15  16
ENDBRANCH   1  14
BRANCH  13  26
HETATM   26  N   UNL     1       3.596  27.991  53.913  1.00  0.00    -0.383 N 
HETATM   27  H   UNL     1       2.779  28.571  54.094  1.00  0.00     0.157 HD
HETATM   28  H   UNL     1       3.667  27.755  52.918  1.00  0.00     0.157 HD
ENDBRANCH  13  26
BRANCH  12  29
HETATM   29  C   UNL     1       6.491  26.854  53.353  1.00  0.00     0.258 C 
HETATM   30  N   UNL     1       7.232  25.824  53.886  1.00  0.00    -0.352 N 
HETATM   31  H   UNL     1       7.422  25.851  54.882  1.00  0.00     0.163 HD
HETATM   32  O   UNL     1       6.250  26.951  52.155  1.00  0.00    -0.267 OA
BRANCH  30  33
HETATM   33  C   UNL     1       7.952  24.901  53.047  1.00  0.00     0.161 C 
BRANCH  33  34
HETATM   34  C   UNL     1       8.050  23.528  53.662  1.00  0.00    -0.040 A 
HETATM   35  C   UNL     1       7.890  22.387  52.858  1.00  0.00     0.012 A 
HETATM   36  C   UNL     1       8.001  21.110  53.410  1.00  0.00     0.043 A 
HETATM   37  C   UNL     1       8.267  20.970  54.766  1.00  0.00     0.116 A 
HETATM   38  F   UNL     1       8.374  19.745  55.294  1.00  0.00    -0.206 F 
HETATM   39  C   UNL     1       8.427  22.085  55.581  1.00  0.00     0.043 A 
HETATM   40  C   UNL     1       8.324  23.363  55.030  1.00  0.00     0.012 A 
ENDBRANCH  33  34
ENDBRANCH  30  33
ENDBRANCH  12  29
TORSDOF 6
ENDMDL
MODEL 7
REMARK VINA RESULT:     -10.4      6.847     11.917
REMARK  6 active torsions:
REMARK  status: ('A' for Active; 'I' for Inactive)
REMARK    1  A    between atoms: C_8  and  C_9 
REMARK    2  A    between atoms: N_10  and  N_11 
REMARK    3  A    between atoms: C_22  and  C_23 
REMARK       I    between atoms: C_23  and  N_24 
REMARK    4  A    between atoms: N_24  and  C_25 
REMARK    5  A    between atoms: C_25  and  C_26 
REMARK    6  A    between atoms: C_34  and  N_35 
ROOT
HETATM    1  N   UNL     1       5.075  33.430  58.231  1.00  0.00    -0.197 N 
HETATM    2  C   UNL     1       5.887  32.800  59.155  1.00  0.00     0.183 A 
HETATM    3  C   UNL     1       5.283  32.936  60.400  1.00  0.00     0.125 A 
HETATM    4  N   UNL     1       5.875  32.448  61.520  1.00  0.00    -0.242 NA
HETATM    5  C   UNL     1       7.051  31.834  61.318  1.00  0.00     0.086 A 
HETATM    6  C   UNL     1       7.640  31.704  60.033  1.00  0.00     0.088 A 
HETATM    7  N   UNL     1       7.071  32.188  58.918  1.00  0.00    -0.225 NA
HETATM    8  C   UNL     1       7.712  31.304  62.418  1.00  0.00     0.034 A 
HETATM    9  C   UNL     1       8.937  30.646  62.288  1.00  0.00     0.002 A 
HETATM   10  C   UNL     1       9.513  30.518  61.033  1.00  0.00     0.002 A 
HETATM   11  C   UNL     1       8.860  31.049  59.919  1.00  0.00     0.034 A 
HETATM   12  C   UNL     1       4.042  33.607  60.228  1.00  0.00     0.110 A 
HETATM   13  C   UNL     1       3.906  33.839  58.864  1.00  0.00     0.143 A 
ENDROOT
BRANCH   1  14
HETATM   14  N   UNL     1       5.288  33.577  56.893  1.00  0.00    -0.176 NA
HETATM   15  C   UNL     1       4.921  32.610  56.104  1.00  0.00     0.153 C 
BRANCH  15  16
HETATM   16  C   UNL     1       4.531  31.238  56.405  1.00  0.00     0.011 A 
HETATM   17  C   UNL     1       5.434  30.118  56.486  1.00  0.00     0.004 A 
HETATM   18  C   UNL     1       6.825  29.962  56.302  1.00  0.00     0.014 A 
HETATM   19  C   UNL     1       4.689  28.992  56.836  1.00  0.00     0.043 A 
HETATM   20  C   UNL     1       7.412  28.703  56.482  1.00  0.00     0.001 A 
HETATM   21  C   UNL     1       6.636  27.601  56.830  1.00  0.00     0.002 A 
HETATM   22  C   UNL     1       5.255  27.723  57.008  1.00  0.00     0.030 A 
HETATM   23  N   UNL     1       3.383  29.397  56.965  1.00  0.00    -0.364 N 
HETATM   24  H   UNL     1       2.614  28.788  57.209  1.00  0.00     0.165 HD
HETATM   25  C   UNL     1       3.288  30.750  56.771  1.00  0.00     0.102 A 
ENDBRANCH  15  16
ENDBRANCH   1  14
BRANCH  13  26
HETATM   26  N   UNL     1       2.914  34.443  58.145  1.00  0.00    -0.383 N 
HETATM   27  H   UNL     1       3.163  34.941  57.292  1.00  0.00     0.157 HD
HETATM   28  H   UNL     1       2.062  33.889  58.014  1.00  0.00     0.157 HD
ENDBRANCH  13  26
BRANCH  12  29
HETATM   29  C   UNL     1       3.107  33.996  61.267  1.00  0.00     0.258 C 
HETATM   30  N   UNL     1       3.683  34.182  62.504  1.00  0.00    -0.352 N 
HETATM   31  H   UNL     1       4.682  34.027  62.583  1.00  0.00     0.163 HD
HETATM   32  O   UNL     1       1.900  34.101  61.072  1.00  0.00    -0.267 OA
BRANCH  30  33
HETATM   33  C   UNL     1       2.884  34.308  63.696  1.00  0.00     0.161 C 
BRANCH  33  34
HETATM   34  C   UNL     1       3.724  34.568  64.920  1.00  0.00    -0.040 A 
HETATM   35  C   UNL     1       3.419  35.650  65.763  1.00  0.00     0.012 A 
HETATM   36  C   UNL     1       4.173  35.889  66.912  1.00  0.00     0.043 A 
HETATM   37  C   UNL     1       5.238  35.051  67.219  1.00  0.00     0.116 A 
HETATM   38  F   UNL     1       5.961  35.281  68.321  1.00  0.00    -0.206 F 
HETATM   39  C   UNL     1       5.561  33.976  66.399  1.00  0.00     0.043 A 
HETATM   40  C   UNL     1       4.802  33.730  65.253  1.00  0.00     0.012 A 
ENDBRANCH  33  34
ENDBRANCH  30  33
ENDBRANCH  12  29
TORSDOF 6
ENDMDL
MODEL 8
REMARK VINA RESULT:     -10.4      4.319      7.689
REMARK  6 active torsions:
REMARK  status: ('A' for Active; 'I' for Inactive)
REMARK    1  A    between atoms: C_8  and  C_9 
REMARK    2  A    between atoms: N_10  and  N_11 
REMARK    3  A    between atoms: C_22  and  C_23 
REMARK       I    between atoms: C_23  and  N_24 
REMARK    4  A    between atoms: N_24  and  C_25 
REMARK    5  A    between atoms: C_25  and  C_26 
REMARK    6  A    between atoms: C_34  and  N_35 
ROOT
HETATM    1  N   UNL     1       6.139  30.492  56.698  1.00  0.00    -0.197 N 
HETATM    2  C   UNL     1       6.934  30.689  57.811  1.00  0.00     0.183 A 
HETATM    3  C   UNL     1       7.527  29.470  58.119  1.00  0.00     0.125 A 
HETATM    4  N   UNL     1       8.340  29.343  59.200  1.00  0.00    -0.242 NA
HETATM    5  C   UNL     1       8.518  30.467  59.910  1.00  0.00     0.086 A 
HETATM    6  C   UNL     1       7.904  31.700  59.567  1.00  0.00     0.088 A 
HETATM    7  N   UNL     1       7.092  31.839  58.507  1.00  0.00    -0.225 NA
HETATM    8  C   UNL     1       9.342  30.414  61.027  1.00  0.00     0.034 A 
HETATM    9  C   UNL     1       9.580  31.542  61.814  1.00  0.00     0.002 A 
HETATM   10  C   UNL     1       8.982  32.748  61.479  1.00  0.00     0.002 A 
HETATM   11  C   UNL     1       8.149  32.814  60.360  1.00  0.00     0.034 A 
HETATM   12  C   UNL     1       7.140  28.519  57.137  1.00  0.00     0.110 A 
HETATM   13  C   UNL     1       6.336  29.197  56.229  1.00  0.00     0.143 A 
ENDROOT
BRANCH   1  14
HETATM   14  N   UNL     1       5.343  31.400  56.066  1.00  0.00    -0.176 NA
HETATM   15  C   UNL     1       4.447  32.025  56.772  1.00  0.00     0.153 C 
BRANCH  15  16
HETATM   16  C   UNL     1       3.942  31.758  58.113  1.00  0.00     0.011 A 
HETATM   17  C   UNL     1       3.964  32.694  59.208  1.00  0.00     0.004 A 
HETATM   18  C   UNL     1       4.440  34.014  59.365  1.00  0.00     0.014 A 
HETATM   19  C   UNL     1       3.353  32.084  60.305  1.00  0.00     0.043 A 
HETATM   20  C   UNL     1       4.281  34.668  60.593  1.00  0.00     0.001 A 
HETATM   21  C   UNL     1       3.669  34.026  61.665  1.00  0.00     0.002 A 
HETATM   22  C   UNL     1       3.197  32.717  61.544  1.00  0.00     0.030 A 
HETATM   23  N   UNL     1       2.973  30.826  59.905  1.00  0.00    -0.364 N 
HETATM   24  H   UNL     1       2.507  30.151  60.497  1.00  0.00     0.165 HD
HETATM   25  C   UNL     1       3.263  30.645  58.579  1.00  0.00     0.102 A 
ENDBRANCH  15  16
ENDBRANCH   1  14
BRANCH  13  26
HETATM   26  N   UNL     1       5.697  28.775  55.097  1.00  0.00    -0.383 N 
HETATM   27  H   UNL     1       5.314  29.474  54.463  1.00  0.00     0.157 HD
HETATM   28  H   UNL     1       6.164  28.024  54.579  1.00  0.00     0.157 HD
ENDBRANCH  13  26
BRANCH  12  29
HETATM   29  C   UNL     1       7.493  27.111  57.095  1.00  0.00     0.258 C 
HETATM   30  N   UNL     1       6.429  26.270  56.858  1.00  0.00    -0.352 N 
HETATM   31  H   UNL     1       5.514  26.693  56.743  1.00  0.00     0.163 HD
HETATM   32  O   UNL     1       8.630  26.704  57.305  1.00  0.00    -0.267 OA
BRANCH  30  33
HETATM   33  C   UNL     1       6.539  24.845  57.044  1.00  0.00     0.161 C 
BRANCH  33  34
HETATM   34  C   UNL     1       6.937  24.134  55.777  1.00  0.00    -0.040 A 
HETATM   35  C   UNL     1       7.735  22.979  55.842  1.00  0.00     0.012 A 
HETATM   36  C   UNL     1       8.092  22.297  54.679  1.00  0.00     0.043 A 
HETATM   37  C   UNL     1       7.657  22.769  53.447  1.00  0.00     0.116 A 
HETATM   38  F   UNL     1       8.000  22.114  52.331  1.00  0.00    -0.206 F 
HETATM   39  C   UNL     1       6.869  23.910  53.357  1.00  0.00     0.043 A 
HETATM   40  C   UNL     1       6.504  24.590  54.520  1.00  0.00     0.012 A 
ENDBRANCH  33  34
ENDBRANCH  30  33
ENDBRANCH  12  29
TORSDOF 6
ENDMDL
MODEL 9
REMARK VINA RESULT:     -10.4      3.257      6.384
REMARK  6 active torsions:
REMARK  status: ('A' for Active; 'I' for Inactive)
REMARK    1  A    between atoms: C_8  and  C_9 
REMARK    2  A    between atoms: N_10  and  N_11 
REMARK    3  A    between atoms: C_22  and  C_23 
REMARK       I    between atoms: C_23  and  N_24 
REMARK    4  A    between atoms: N_24  and  C_25 
REMARK    5  A    between atoms: C_25  and  C_26 
REMARK    6  A    between atoms: C_34  and  N_35 
ROOT
HETATM    1  N   UNL     1       4.706  28.029  55.456  1.00  0.00    -0.197 N 
HETATM    2  C   UNL     1       4.745  28.645  54.221  1.00  0.00     0.183 A 
HETATM    3  C   UNL     1       5.208  27.709  53.303  1.00  0.00     0.125 A 
HETATM    4  N   UNL     1       5.392  28.041  51.999  1.00  0.00    -0.242 NA
HETATM    5  C   UNL     1       5.085  29.309  51.689  1.00  0.00     0.086 A 
HETATM    6  C   UNL     1       4.606  30.242  52.647  1.00  0.00     0.088 A 
HETATM    7  N   UNL     1       4.427  29.931  53.940  1.00  0.00    -0.225 NA
HETATM    8  C   UNL     1       5.241  29.719  50.371  1.00  0.00     0.034 A 
HETATM    9  C   UNL     1       4.938  31.022  49.969  1.00  0.00     0.002 A 
HETATM   10  C   UNL     1       4.470  31.933  50.904  1.00  0.00     0.002 A 
HETATM   11  C   UNL     1       4.310  31.535  52.232  1.00  0.00     0.034 A 
HETATM   12  C   UNL     1       5.396  26.472  53.978  1.00  0.00     0.110 A 
HETATM   13  C   UNL     1       5.011  26.680  55.296  1.00  0.00     0.143 A 
ENDROOT
BRANCH   1  14
HETATM   14  N   UNL     1       4.349  28.574  56.653  1.00  0.00    -0.176 NA
HETATM   15  C   UNL     1       5.266  29.185  57.345  1.00  0.00     0.153 C 
BRANCH  15  16
HETATM   16  C   UNL     1       6.717  29.192  57.199  1.00  0.00     0.011 A 
HETATM   17  C   UNL     1       7.613  30.096  57.873  1.00  0.00     0.004 A 
HETATM   18  C   UNL     1       7.435  31.168  58.773  1.00  0.00     0.014 A 
HETATM   19  C   UNL     1       8.917  29.757  57.508  1.00  0.00     0.043 A 
HETATM   20  C   UNL     1       8.553  31.847  59.275  1.00  0.00     0.001 A 
HETATM   21  C   UNL     1       9.838  31.482  58.885  1.00  0.00     0.002 A 
HETATM   22  C   UNL     1      10.046  30.432  57.988  1.00  0.00     0.030 A 
HETATM   23  N   UNL     1       8.829  28.693  56.644  1.00  0.00    -0.364 N 
HETATM   24  H   UNL     1       9.621  28.236  56.212  1.00  0.00     0.165 HD
HETATM   25  C   UNL     1       7.522  28.307  56.503  1.00  0.00     0.102 A 
ENDBRANCH  15  16
ENDBRANCH   1  14
BRANCH  13  26
HETATM   26  N   UNL     1       4.985  25.841  56.373  1.00  0.00    -0.383 N 
HETATM   27  H   UNL     1       4.529  24.935  56.276  1.00  0.00     0.157 HD
HETATM   28  H   UNL     1       5.866  25.756  56.889  1.00  0.00     0.157 HD
ENDBRANCH  13  26
BRANCH  12  29
HETATM   29  C   UNL     1       5.910  25.237  53.413  1.00  0.00     0.258 C 
HETATM   30  N   UNL     1       7.261  25.050  53.600  1.00  0.00    -0.352 N 
HETATM   31  H   UNL     1       7.769  25.774  54.096  1.00  0.00     0.163 HD
HETATM   32  O   UNL     1       5.210  24.454  52.779  1.00  0.00    -0.267 OA
BRANCH  30  33
HETATM   33  C   UNL     1       7.986  24.028  52.890  1.00  0.00     0.161 C 
BRANCH  33  34
HETATM   34  C   UNL     1       8.103  22.754  53.686  1.00  0.00    -0.040 A 
HETATM   35  C   UNL     1       8.031  22.794  55.088  1.00  0.00     0.012 A 
HETATM   36  C   UNL     1       8.115  21.620  55.837  1.00  0.00     0.043 A 
HETATM   37  C   UNL     1       8.277  20.403  55.187  1.00  0.00     0.116 A 
HETATM   38  F   UNL     1       8.358  19.277  55.905  1.00  0.00    -0.206 F 
HETATM   39  C   UNL     1       8.354  20.338  53.800  1.00  0.00     0.043 A 
HETATM   40  C   UNL     1       8.262  21.511  53.049  1.00  0.00     0.012 A 
ENDBRANCH  33  34
ENDBRANCH  30  33
ENDBRANCH  12  29
TORSDOF 6
ENDMDL
MODEL 10
REMARK VINA RESULT:     -10.3      6.762     10.771
REMARK  6 active torsions:
REMARK  status: ('A' for Active; 'I' for Inactive)
REMARK    1  A    between atoms: C_8  and  C_9 
REMARK    2  A    between atoms: N_10  and  N_11 
REMARK    3  A    between atoms: C_22  and  C_23 
REMARK       I    between atoms: C_23  and  N_24 
REMARK    4  A    between atoms: N_24  and  C_25 
REMARK    5  A    between atoms: C_25  and  C_26 
REMARK    6  A    between atoms: C_34  and  N_35 
ROOT
HETATM    1  N   UNL     1       3.731  33.113  61.954  1.00  0.00    -0.197 N 
HETATM    2  C   UNL     1       3.782  33.533  60.639  1.00  0.00     0.183 A 
HETATM    3  C   UNL     1       5.018  33.153  60.128  1.00  0.00     0.125 A 
HETATM    4  N   UNL     1       5.375  33.468  58.856  1.00  0.00    -0.242 NA
HETATM    5  C   UNL     1       4.451  34.147  58.160  1.00  0.00     0.086 A 
HETATM    6  C   UNL     1       3.193  34.516  58.707  1.00  0.00     0.088 A 
HETATM    7  N   UNL     1       2.829  34.219  59.964  1.00  0.00    -0.225 NA
HETATM    8  C   UNL     1       4.743  34.499  56.849  1.00  0.00     0.034 A 
HETATM    9  C   UNL     1       3.831  35.203  56.059  1.00  0.00     0.002 A 
HETATM   10  C   UNL     1       2.602  35.562  56.592  1.00  0.00     0.002 A 
HETATM   11  C   UNL     1       2.296  35.217  57.909  1.00  0.00     0.034 A 
HETATM   12  C   UNL     1       5.716  32.426  61.131  1.00  0.00     0.110 A 
HETATM   13  C   UNL     1       4.867  32.357  62.228  1.00  0.00     0.143 A 
ENDROOT
BRANCH   1  14
HETATM   14  N   UNL     1       2.726  33.299  62.854  1.00  0.00    -0.176 NA
HETATM   15  C   UNL     1       2.769  34.357  63.610  1.00  0.00     0.153 C 
BRANCH  15  16
HETATM   16  C   UNL     1       3.854  35.297  63.863  1.00  0.00     0.011 A 
HETATM   17  C   UNL     1       4.041  36.551  63.179  1.00  0.00     0.004 A 
HETATM   18  C   UNL     1       3.353  37.217  62.141  1.00  0.00     0.014 A 
HETATM   19  C   UNL     1       5.159  37.178  63.732  1.00  0.00     0.043 A 
HETATM   20  C   UNL     1       3.797  38.473  61.709  1.00  0.00     0.001 A 
HETATM   21  C   UNL     1       4.917  39.067  62.283  1.00  0.00     0.002 A 
HETATM   22  C   UNL     1       5.625  38.427  63.304  1.00  0.00     0.030 A 
HETATM   23  N   UNL     1       5.641  36.348  64.714  1.00  0.00    -0.364 N 
HETATM   24  H   UNL     1       6.452  36.544  65.284  1.00  0.00     0.165 HD
HETATM   25  C   UNL     1       4.831  35.251  64.843  1.00  0.00     0.102 A 
ENDBRANCH  15  16
ENDBRANCH   1  14
BRANCH  13  26
HETATM   26  N   UNL     1       5.024  31.780  63.457  1.00  0.00    -0.383 N 
HETATM   27  H   UNL     1       5.766  31.093  63.583  1.00  0.00     0.157 HD
HETATM   28  H   UNL     1       4.975  32.420  64.255  1.00  0.00     0.157 HD
ENDBRANCH  13  26
BRANCH  12  29
HETATM   29  C   UNL     1       7.059  31.882  61.041  1.00  0.00     0.258 C 
HETATM   30  N   UNL     1       7.312  31.197  59.874  1.00  0.00    -0.352 N 
HETATM   31  H   UNL     1       6.558  31.126  59.199  1.00  0.00     0.163 HD
HETATM   32  O   UNL     1       7.878  31.980  61.948  1.00  0.00    -0.267 OA
BRANCH  30  33
HETATM   33  C   UNL     1       8.484  30.372  59.724  1.00  0.00     0.161 C 
BRANCH  33  34
HETATM   34  C   UNL     1       8.759  30.028  58.283  1.00  0.00    -0.040 A 
HETATM   35  C   UNL     1      10.066  30.122  57.776  1.00  0.00     0.012 A 
HETATM   36  C   UNL     1      10.339  29.785  56.451  1.00  0.00     0.043 A 
HETATM   37  C   UNL     1       9.306  29.358  55.625  1.00  0.00     0.116 A 
HETATM   38  F   UNL     1       9.568  29.034  54.354  1.00  0.00    -0.206 F 
HETATM   39  C   UNL     1       8.004  29.259  56.103  1.00  0.00     0.043 A 
HETATM   40  C   UNL     1       7.730  29.589  57.432  1.00  0.00     0.012 A 
ENDBRANCH  33  34
ENDBRANCH  30  33
ENDBRANCH  12  29
TORSDOF 6
ENDMDL
