MODEL 1
REMARK VINA RESULT:      -9.5      0.000      0.000
REMARK  3 active torsions:
REMARK  status: ('A' for Active; 'I' for Inactive)
REMARK    1  A    between atoms: C_3  and  O_4 
REMARK    2  A    between atoms: C_6  and  C_7 
REMARK    3  A    between atoms: N_8  and  N_9 
ROOT
HETATM    1  N   UNL     1       5.193  27.032  55.434  1.00  0.00    -0.189 N 
HETATM    2  C   UNL     1       5.646  26.676  54.155  1.00  0.00     0.298 A 
HETATM    3  O   UNL     1       5.499  27.327  53.125  1.00  0.00    -0.264 OA
HETATM    4  C   UNL     1       6.283  25.398  54.173  1.00  0.00     0.133 A 
HETATM    5  C   UNL     1       6.481  24.665  55.306  1.00  0.00     0.103 A 
HETATM    6  N   UNL     1       6.109  25.107  56.577  1.00  0.00    -0.239 NA
HETATM    7  C   UNL     1       5.509  26.263  56.555  1.00  0.00     0.239 A 
HETATM    8  N   UNL     1       6.789  24.685  53.122  1.00  0.00    -0.349 N 
HETATM    9  H   UNL     1       6.785  24.995  52.158  1.00  0.00     0.166 HD
HETATM   10  C   UNL     1       7.287  23.478  53.577  1.00  0.00     0.045 A 
HETATM   11  C   UNL     1       7.105  23.446  54.967  1.00  0.00     0.024 A 
HETATM   12  C   UNL     1       7.881  22.425  52.871  1.00  0.00     0.032 A 
HETATM   13  C   UNL     1       8.297  21.309  53.607  1.00  0.00     0.026 A 
HETATM   14  C   UNL     1       8.126  21.258  54.989  1.00  0.00     0.035 A 
HETATM   15 CL   UNL     1       8.650  19.864  55.855  1.00  0.00    -0.084 Cl
HETATM   16  C   UNL     1       7.535  22.315  55.687  1.00  0.00     0.040 A 
ENDROOT
BRANCH   1  17
HETATM   17  N   UNL     1       4.606  28.270  55.588  1.00  0.00    -0.175 NA
HETATM   18  C   UNL     1       5.320  29.285  55.977  1.00  0.00     0.150 C 
BRANCH  18  19
HETATM   19  C   UNL     1       6.716  29.337  56.460  1.00  0.00    -0.014 A 
HETATM   20  C   UNL     1       6.918  29.507  57.832  1.00  0.00     0.049 A 
HETATM   21  C   UNL     1       8.216  29.547  58.329  1.00  0.00     0.066 A 
HETATM   22  C   UNL     1       9.313  29.410  57.484  1.00  0.00     0.036 A 
HETATM   23  C   UNL     1       9.106  29.215  56.118  1.00  0.00     0.004 A 
HETATM   24  C   UNL     1       7.808  29.164  55.605  1.00  0.00     0.013 A 
BRANCH  21  25
HETATM   25  O   UNL     1       8.371  29.723  59.672  1.00  0.00    -0.361 OA
HETATM   26  H   UNL     1       9.311  29.875  59.863  1.00  0.00     0.217 HD
ENDBRANCH  21  25
ENDBRANCH  18  19
ENDBRANCH   1  17
TORSDOF 3
ENDMDL
MODEL 2
REMARK VINA RESULT:      -9.1      3.230      6.524
REMARK  3 active torsions:
REMARK  status: ('A' for Active; 'I' for Inactive)
REMARK    1  A    between atoms: C_3  and  O_4 
REMARK    2  A    between atoms: C_6  and  C_7 
REMARK    3  A    between atoms: N_8  and  N_9 
ROOT
HETATM    1  N   UNL     1       6.036  26.826  54.934  1.00  0.00    -0.189 N 
HETATM    2  C   UNL     1       7.166  27.486  54.430  1.00  0.00     0.298 A 
HETATM    3  O   UNL     1       7.615  27.392  53.291  1.00  0.00    -0.264 OA
HETATM    4  C   UNL     1       7.792  28.279  55.440  1.00  0.00     0.133 A 
HETATM    5  C   UNL     1       7.302  28.421  56.705  1.00  0.00     0.103 A 
HETATM    6  N   UNL     1       6.113  27.830  57.134  1.00  0.00    -0.239 NA
HETATM    7  C   UNL     1       5.555  27.091  56.218  1.00  0.00     0.239 A 
HETATM    8  N   UNL     1       8.946  29.008  55.356  1.00  0.00    -0.349 N 
HETATM    9  H   UNL     1       9.518  29.091  54.525  1.00  0.00     0.166 HD
HETATM   10  C   UNL     1       9.212  29.597  56.579  1.00  0.00     0.045 A 
HETATM   11  C   UNL     1       8.175  29.240  57.452  1.00  0.00     0.024 A 
HETATM   12  C   UNL     1      10.280  30.413  56.972  1.00  0.00     0.032 A 
HETATM   13  C   UNL     1      10.288  30.873  58.294  1.00  0.00     0.026 A 
HETATM   14  C   UNL     1       9.266  30.529  59.178  1.00  0.00     0.035 A 
HETATM   15 CL   UNL     1       9.316  31.113  60.798  1.00  0.00    -0.084 Cl
HETATM   16  C   UNL     1       8.201  29.717  58.776  1.00  0.00     0.040 A 
ENDROOT
BRANCH   1  17
HETATM   17  N   UNL     1       5.291  26.065  54.059  1.00  0.00    -0.175 NA
HETATM   18  C   UNL     1       5.598  24.817  53.858  1.00  0.00     0.150 C 
BRANCH  18  19
HETATM   19  C   UNL     1       6.769  24.040  54.316  1.00  0.00    -0.014 A 
HETATM   20  C   UNL     1       6.990  23.957  55.693  1.00  0.00     0.049 A 
HETATM   21  C   UNL     1       8.072  23.224  56.166  1.00  0.00     0.066 A 
HETATM   22  C   UNL     1       8.930  22.564  55.291  1.00  0.00     0.036 A 
HETATM   23  C   UNL     1       8.690  22.627  53.918  1.00  0.00     0.004 A 
HETATM   24  C   UNL     1       7.603  23.353  53.428  1.00  0.00     0.013 A 
BRANCH  21  25
HETATM   25  O   UNL     1       8.259  23.176  57.516  1.00  0.00    -0.361 OA
HETATM   26  H   UNL     1       7.398  23.267  57.956  1.00  0.00     0.217 HD
ENDBRANCH  21  25
ENDBRANCH  18  19
ENDBRANCH   1  17
TORSDOF 3
ENDMDL
MODEL 3
REMARK VINA RESULT:      -9.1      1.902      2.878
REMARK  3 active torsions:
REMARK  status: ('A' for Active; 'I' for Inactive)
REMARK    1  A    between atoms: C_3  and  O_4 
REMARK    2  A    between atoms: C_6  and  C_7 
REMARK    3  A    between atoms: N_8  and  N_9 
ROOT
HETATM    1  N   UNL     1       6.181  26.819  56.753  1.00  0.00    -0.189 N 
HETATM    2  C   UNL     1       6.984  25.986  57.545  1.00  0.00     0.298 A 
HETATM    3  O   UNL     1       7.361  26.216  58.691  1.00  0.00    -0.264 OA
HETATM    4  C   UNL     1       7.372  24.812  56.829  1.00  0.00     0.133 A 
HETATM    5  C   UNL     1       6.949  24.521  55.565  1.00  0.00     0.103 A 
HETATM    6  N   UNL     1       6.061  25.327  54.852  1.00  0.00    -0.239 NA
HETATM    7  C   UNL     1       5.726  26.407  55.499  1.00  0.00     0.239 A 
HETATM    8  N   UNL     1       8.203  23.805  57.233  1.00  0.00    -0.349 N 
HETATM    9  H   UNL     1       8.656  23.757  58.137  1.00  0.00     0.166 HD
HETATM   10  C   UNL     1       8.336  22.877  56.216  1.00  0.00     0.045 A 
HETATM   11  C   UNL     1       7.542  23.312  55.145  1.00  0.00     0.024 A 
HETATM   12  C   UNL     1       9.089  21.698  56.165  1.00  0.00     0.032 A 
HETATM   13  C   UNL     1       9.030  20.945  54.986  1.00  0.00     0.026 A 
HETATM   14  C   UNL     1       8.246  21.360  53.910  1.00  0.00     0.035 A 
HETATM   15 CL   UNL     1       8.205  20.405  52.476  1.00  0.00    -0.084 Cl
HETATM   16  C   UNL     1       7.494  22.537  53.971  1.00  0.00     0.040 A 
ENDROOT
BRANCH   1  17
HETATM   17  N   UNL     1       5.679  27.967  57.328  1.00  0.00    -0.175 NA
HETATM   18  C   UNL     1       6.416  29.037  57.393  1.00  0.00     0.150 C 
BRANCH  18  19
HETATM   19  C   UNL     1       7.846  29.229  57.072  1.00  0.00    -0.014 A 
HETATM   20  C   UNL     1       8.230  29.097  55.735  1.00  0.00     0.049 A 
HETATM   21  C   UNL     1       9.563  29.284  55.387  1.00  0.00     0.066 A 
HETATM   22  C   UNL     1      10.516  29.609  56.347  1.00  0.00     0.036 A 
HETATM   23  C   UNL     1      10.124  29.765  57.677  1.00  0.00     0.004 A 
HETATM   24  C   UNL     1       8.787  29.589  58.041  1.00  0.00     0.013 A 
BRANCH  21  25
HETATM   25  O   UNL     1       9.898  29.137  54.073  1.00  0.00    -0.361 OA
HETATM   26  H   UNL     1       9.637  29.939  53.591  1.00  0.00     0.217 HD
ENDBRANCH  21  25
ENDBRANCH  18  19
ENDBRANCH   1  17
TORSDOF 3
ENDMDL
MODEL 4
REMARK VINA RESULT:      -8.4      8.314     11.225
REMARK  3 active torsions:
REMARK  status: ('A' for Active; 'I' for Inactive)
REMARK    1  A    between atoms: C_3  and  O_4 
REMARK    2  A    between atoms: C_6  and  C_7 
REMARK    3  A    between atoms: N_8  and  N_9 
ROOT
HETATM    1  N   UNL     1       4.715  33.518  64.098  1.00  0.00    -0.189 N 
HETATM    2  C   UNL     1       6.062  33.347  64.450  1.00  0.00     0.298 A 
HETATM    3  O   UNL     1       6.580  33.669  65.516  1.00  0.00    -0.264 OA
HETATM    4  C   UNL     1       6.808  32.778  63.373  1.00  0.00     0.133 A 
HETATM    5  C   UNL     1       6.254  32.391  62.189  1.00  0.00     0.103 A 
HETATM    6  N   UNL     1       4.887  32.480  61.920  1.00  0.00    -0.239 NA
HETATM    7  C   UNL     1       4.212  33.018  62.896  1.00  0.00     0.239 A 
HETATM    8  N   UNL     1       8.150  32.528  63.307  1.00  0.00    -0.349 N 
HETATM    9  H   UNL     1       8.810  32.710  64.052  1.00  0.00     0.166 HD
HETATM   10  C   UNL     1       8.463  32.004  62.066  1.00  0.00     0.045 A 
HETATM   11  C   UNL     1       7.268  31.904  61.339  1.00  0.00     0.024 A 
HETATM   12  C   UNL     1       9.700  31.612  61.539  1.00  0.00     0.032 A 
HETATM   13  C   UNL     1       9.714  31.108  60.234  1.00  0.00     0.026 A 
HETATM   14  C   UNL     1       8.538  31.000  59.494  1.00  0.00     0.035 A 
HETATM   15 CL   UNL     1       8.601  30.377  57.889  1.00  0.00    -0.084 Cl
HETATM   16  C   UNL     1       7.306  31.390  60.029  1.00  0.00     0.040 A 
ENDROOT
BRANCH   1  17
HETATM   17  N   UNL     1       3.855  34.005  65.059  1.00  0.00    -0.175 NA
HETATM   18  C   UNL     1       3.497  35.256  65.036  1.00  0.00     0.150 C 
BRANCH  18  19
HETATM   19  C   UNL     1       3.984  36.370  64.198  1.00  0.00    -0.014 A 
HETATM   20  C   UNL     1       5.096  37.083  64.654  1.00  0.00     0.049 A 
HETATM   21  C   UNL     1       5.595  38.130  63.889  1.00  0.00     0.066 A 
HETATM   22  C   UNL     1       5.012  38.471  62.672  1.00  0.00     0.036 A 
HETATM   23  C   UNL     1       3.919  37.741  62.207  1.00  0.00     0.004 A 
HETATM   24  C   UNL     1       3.410  36.681  62.961  1.00  0.00     0.013 A 
BRANCH  21  25
HETATM   25  O   UNL     1       6.676  38.807  64.374  1.00  0.00    -0.361 OA
HETATM   26  H   UNL     1       6.495  39.072  65.290  1.00  0.00     0.217 HD
ENDBRANCH  21  25
ENDBRANCH  18  19
ENDBRANCH   1  17
TORSDOF 3
ENDMDL
MODEL 5
REMARK VINA RESULT:      -8.3      4.370      6.690
REMARK  3 active torsions:
REMARK  status: ('A' for Active; 'I' for Inactive)
REMARK    1  A    between atoms: C_3  and  O_4 
REMARK    2  A    between atoms: C_6  and  C_7 
REMARK    3  A    between atoms: N_8  and  N_9 
ROOT
HETATM    1  N   UNL     1       5.839  26.203  53.923  1.00  0.00    -0.189 N 
HETATM    2  C   UNL     1       6.318  27.229  53.096  1.00  0.00     0.298 A 
HETATM    3  O   UNL     1       7.057  28.149  53.435  1.00  0.00    -0.264 OA
HETATM    4  C   UNL     1       5.794  27.111  51.773  1.00  0.00     0.133 A 
HETATM    5  C   UNL     1       4.991  26.088  51.363  1.00  0.00     0.103 A 
HETATM    6  N   UNL     1       4.625  25.026  52.192  1.00  0.00    -0.239 NA
HETATM    7  C   UNL     1       5.086  25.147  53.404  1.00  0.00     0.239 A 
HETATM    8  N   UNL     1       5.971  27.952  50.709  1.00  0.00    -0.349 N 
HETATM    9  H   UNL     1       6.533  28.794  50.726  1.00  0.00     0.166 HD
HETATM   10  C   UNL     1       5.257  27.482  49.622  1.00  0.00     0.045 A 
HETATM   11  C   UNL     1       4.628  26.293  50.016  1.00  0.00     0.024 A 
HETATM   12  C   UNL     1       5.124  28.014  48.334  1.00  0.00     0.032 A 
HETATM   13  C   UNL     1       4.325  27.310  47.425  1.00  0.00     0.026 A 
HETATM   14  C   UNL     1       3.691  26.126  47.797  1.00  0.00     0.035 A 
HETATM   15 CL   UNL     1       2.713  25.293  46.648  1.00  0.00    -0.084 Cl
HETATM   16  C   UNL     1       3.832  25.600  49.084  1.00  0.00     0.040 A 
ENDROOT
BRANCH   1  17
HETATM   17  N   UNL     1       6.303  26.150  55.219  1.00  0.00    -0.175 NA
HETATM   18  C   UNL     1       7.107  25.193  55.584  1.00  0.00     0.150 C 
BRANCH  18  19
HETATM   19  C   UNL     1       7.535  23.982  54.856  1.00  0.00    -0.014 A 
HETATM   20  C   UNL     1       7.385  22.752  55.503  1.00  0.00     0.049 A 
HETATM   21  C   UNL     1       7.762  21.586  54.847  1.00  0.00     0.066 A 
HETATM   22  C   UNL     1       8.277  21.624  53.555  1.00  0.00     0.036 A 
HETATM   23  C   UNL     1       8.402  22.851  52.902  1.00  0.00     0.004 A 
HETATM   24  C   UNL     1       8.019  24.030  53.545  1.00  0.00     0.013 A 
BRANCH  21  25
HETATM   25  O   UNL     1       7.608  20.408  55.517  1.00  0.00    -0.361 OA
HETATM   26  H   UNL     1       6.913  19.888  55.082  1.00  0.00     0.217 HD
ENDBRANCH  21  25
ENDBRANCH  18  19
ENDBRANCH   1  17
TORSDOF 3
ENDMDL
MODEL 6
REMARK VINA RESULT:      -8.2      4.473      8.087
REMARK  3 active torsions:
REMARK  status: ('A' for Active; 'I' for Inactive)
REMARK    1  A    between atoms: C_3  and  O_4 
REMARK    2  A    between atoms: C_6  and  C_7 
REMARK    3  A    between atoms: N_8  and  N_9 
ROOT
HETATM    1  N   UNL     1       8.020  29.532  56.224  1.00  0.00    -0.189 N 
HETATM    2  C   UNL     1       9.140  29.591  57.066  1.00  0.00     0.298 A 
HETATM    3  O   UNL     1      10.248  29.116  56.834  1.00  0.00    -0.264 OA
HETATM    4  C   UNL     1       8.827  30.250  58.293  1.00  0.00     0.133 A 
HETATM    5  C   UNL     1       7.613  30.807  58.567  1.00  0.00     0.103 A 
HETATM    6  N   UNL     1       6.556  30.820  57.655  1.00  0.00    -0.239 NA
HETATM    7  C   UNL     1       6.837  30.200  56.545  1.00  0.00     0.239 A 
HETATM    8  N   UNL     1       9.628  30.440  59.385  1.00  0.00    -0.349 N 
HETATM    9  H   UNL     1      10.590  30.135  59.456  1.00  0.00     0.166 HD
HETATM   10  C   UNL     1       8.917  31.097  60.373  1.00  0.00     0.045 A 
HETATM   11  C   UNL     1       7.631  31.344  59.871  1.00  0.00     0.024 A 
HETATM   12  C   UNL     1       9.312  31.488  61.658  1.00  0.00     0.032 A 
HETATM   13  C   UNL     1       8.366  32.148  62.450  1.00  0.00     0.026 A 
HETATM   14  C   UNL     1       7.082  32.403  61.970  1.00  0.00     0.035 A 
HETATM   15 CL   UNL     1       5.947  33.215  62.981  1.00  0.00    -0.084 Cl
HETATM   16  C   UNL     1       6.697  32.013  60.685  1.00  0.00     0.040 A 
ENDROOT
BRANCH   1  17
HETATM   17  N   UNL     1       8.182  28.973  54.974  1.00  0.00    -0.175 NA
HETATM   18  C   UNL     1       7.626  27.831  54.695  1.00  0.00     0.150 C 
BRANCH  18  19
HETATM   19  C   UNL     1       6.918  26.878  55.575  1.00  0.00    -0.014 A 
HETATM   20  C   UNL     1       7.678  25.881  56.192  1.00  0.00     0.049 A 
HETATM   21  C   UNL     1       7.053  24.972  57.038  1.00  0.00     0.066 A 
HETATM   22  C   UNL     1       5.686  25.048  57.288  1.00  0.00     0.036 A 
HETATM   23  C   UNL     1       4.935  26.060  56.690  1.00  0.00     0.004 A 
HETATM   24  C   UNL     1       5.550  26.985  55.844  1.00  0.00     0.013 A 
BRANCH  21  25
HETATM   25  O   UNL     1       7.829  24.010  57.613  1.00  0.00    -0.361 OA
HETATM   26  H   UNL     1       8.739  24.101  57.284  1.00  0.00     0.217 HD
ENDBRANCH  21  25
ENDBRANCH  18  19
ENDBRANCH   1  17
TORSDOF 3
ENDMDL
MODEL 7
REMARK VINA RESULT:      -8.0      3.086      5.214
REMARK  3 active torsions:
REMARK  status: ('A' for Active; 'I' for Inactive)
REMARK    1  A    between atoms: C_3  and  O_4 
REMARK    2  A    between atoms: C_6  and  C_7 
REMARK    3  A    between atoms: N_8  and  N_9 
ROOT
HETATM    1  N   UNL     1       4.696  27.156  53.667  1.00  0.00    -0.189 N 
HETATM    2  C   UNL     1       5.638  27.062  54.702  1.00  0.00     0.298 A 
HETATM    3  O   UNL     1       5.847  27.903  55.572  1.00  0.00    -0.264 OA
HETATM    4  C   UNL     1       6.391  25.853  54.604  1.00  0.00     0.133 A 
HETATM    5  C   UNL     1       6.164  24.892  53.663  1.00  0.00     0.103 A 
HETATM    6  N   UNL     1       5.143  24.978  52.715  1.00  0.00    -0.239 NA
HETATM    7  C   UNL     1       4.471  26.091  52.793  1.00  0.00     0.239 A 
HETATM    8  N   UNL     1       7.437  25.437  55.380  1.00  0.00    -0.349 N 
HETATM    9  H   UNL     1       7.815  25.952  56.164  1.00  0.00     0.166 HD
HETATM   10  C   UNL     1       7.901  24.219  54.918  1.00  0.00     0.045 A 
HETATM   11  C   UNL     1       7.102  23.851  53.827  1.00  0.00     0.024 A 
HETATM   12  C   UNL     1       8.956  23.423  55.381  1.00  0.00     0.032 A 
HETATM   13  C   UNL     1       9.199  22.220  54.708  1.00  0.00     0.026 A 
HETATM   14  C   UNL     1       8.416  21.836  53.621  1.00  0.00     0.035 A 
HETATM   15 CL   UNL     1       8.752  20.348  52.819  1.00  0.00    -0.084 Cl
HETATM   16  C   UNL     1       7.362  22.635  53.168  1.00  0.00     0.040 A 
ENDROOT
BRANCH   1  17
HETATM   17  N   UNL     1       3.851  28.246  53.662  1.00  0.00    -0.175 NA
HETATM   18  C   UNL     1       3.631  28.893  52.554  1.00  0.00     0.150 C 
BRANCH  18  19
HETATM   19  C   UNL     1       4.274  28.758  51.230  1.00  0.00    -0.014 A 
HETATM   20  C   UNL     1       3.576  28.058  50.243  1.00  0.00     0.049 A 
HETATM   21  C   UNL     1       4.139  27.921  48.979  1.00  0.00     0.066 A 
HETATM   22  C   UNL     1       5.379  28.478  48.681  1.00  0.00     0.036 A 
HETATM   23  C   UNL     1       6.060  29.198  49.662  1.00  0.00     0.004 A 
HETATM   24  C   UNL     1       5.504  29.351  50.934  1.00  0.00     0.013 A 
BRANCH  21  25
HETATM   25  O   UNL     1       3.430  27.223  48.046  1.00  0.00    -0.361 OA
HETATM   26  H   UNL     1       3.910  27.249  47.202  1.00  0.00     0.217 HD
ENDBRANCH  21  25
ENDBRANCH  18  19
ENDBRANCH   1  17
TORSDOF 3
ENDMDL
MODEL 8
REMARK VINA RESULT:      -8.0      7.924     10.796
REMARK  3 active torsions:
REMARK  status: ('A' for Active; 'I' for Inactive)
REMARK    1  A    between atoms: C_3  and  O_4 
REMARK    2  A    between atoms: C_6  and  C_7 
REMARK    3  A    between atoms: N_8  and  N_9 
ROOT
HETATM    1  N   UNL     1       5.064  33.268  64.019  1.00  0.00    -0.189 N 
HETATM    2  C   UNL     1       4.415  32.842  62.851  1.00  0.00     0.298 A 
HETATM    3  O   UNL     1       3.203  32.713  62.700  1.00  0.00    -0.264 OA
HETATM    4  C   UNL     1       5.357  32.516  61.829  1.00  0.00     0.133 A 
HETATM    5  C   UNL     1       6.705  32.673  61.961  1.00  0.00     0.103 A 
HETATM    6  N   UNL     1       7.303  33.203  63.106  1.00  0.00    -0.239 NA
HETATM    7  C   UNL     1       6.444  33.479  64.045  1.00  0.00     0.239 A 
HETATM    8  N   UNL     1       5.117  32.004  60.584  1.00  0.00    -0.349 N 
HETATM    9  H   UNL     1       4.200  31.795  60.211  1.00  0.00     0.166 HD
HETATM   10  C   UNL     1       6.318  31.804  59.926  1.00  0.00     0.045 A 
HETATM   11  C   UNL     1       7.342  32.228  60.784  1.00  0.00     0.024 A 
HETATM   12  C   UNL     1       6.570  31.289  58.649  1.00  0.00     0.032 A 
HETATM   13  C   UNL     1       7.906  31.203  58.241  1.00  0.00     0.026 A 
HETATM   14  C   UNL     1       8.939  31.619  59.079  1.00  0.00     0.035 A 
HETATM   15 CL   UNL     1      10.570  31.492  58.538  1.00  0.00    -0.084 Cl
HETATM   16  C   UNL     1       8.679  32.136  60.351  1.00  0.00     0.040 A 
ENDROOT
BRANCH   1  17
HETATM   17  N   UNL     1       4.282  33.674  65.080  1.00  0.00    -0.175 NA
HETATM   18  C   UNL     1       3.816  34.888  65.117  1.00  0.00     0.150 C 
BRANCH  18  19
HETATM   19  C   UNL     1       4.103  36.044  64.244  1.00  0.00    -0.014 A 
HETATM   20  C   UNL     1       5.201  36.844  64.572  1.00  0.00     0.049 A 
HETATM   21  C   UNL     1       5.515  37.934  63.769  1.00  0.00     0.066 A 
HETATM   22  C   UNL     1       4.759  38.234  62.639  1.00  0.00     0.036 A 
HETATM   23  C   UNL     1       3.680  37.418  62.300  1.00  0.00     0.004 A 
HETATM   24  C   UNL     1       3.357  36.315  63.093  1.00  0.00     0.013 A 
BRANCH  21  25
HETATM   25  O   UNL     1       6.588  38.694  64.129  1.00  0.00    -0.361 OA
HETATM   26  H   UNL     1       6.694  39.413  63.484  1.00  0.00     0.217 HD
ENDBRANCH  21  25
ENDBRANCH  18  19
ENDBRANCH   1  17
TORSDOF 3
ENDMDL
MODEL 9
REMARK VINA RESULT:      -7.9      3.665      5.339
REMARK  3 active torsions:
REMARK  status: ('A' for Active; 'I' for Inactive)
REMARK    1  A    between atoms: C_3  and  O_4 
REMARK    2  A    between atoms: C_6  and  C_7 
REMARK    3  A    between atoms: N_8  and  N_9 
ROOT
HETATM    1  N   UNL     1       5.828  31.402  58.015  1.00  0.00    -0.189 N 
HETATM    2  C   UNL     1       4.813  30.502  57.659  1.00  0.00     0.298 A 
HETATM    3  O   UNL     1       3.615  30.755  57.572  1.00  0.00    -0.264 OA
HETATM    4  C   UNL     1       5.340  29.192  57.443  1.00  0.00     0.133 A 
HETATM    5  C   UNL     1       6.667  28.888  57.509  1.00  0.00     0.103 A 
HETATM    6  N   UNL     1       7.657  29.839  57.762  1.00  0.00    -0.239 NA
HETATM    7  C   UNL     1       7.172  31.028  57.980  1.00  0.00     0.239 A 
HETATM    8  N   UNL     1       4.663  28.040  57.151  1.00  0.00    -0.349 N 
HETATM    9  H   UNL     1       3.660  27.973  57.034  1.00  0.00     0.166 HD
HETATM   10  C   UNL     1       5.556  26.988  57.058  1.00  0.00     0.045 A 
HETATM   11  C   UNL     1       6.840  27.507  57.278  1.00  0.00     0.024 A 
HETATM   12  C   UNL     1       5.326  25.632  56.795  1.00  0.00     0.032 A 
HETATM   13  C   UNL     1       6.440  24.785  56.759  1.00  0.00     0.026 A 
HETATM   14  C   UNL     1       7.724  25.281  56.975  1.00  0.00     0.035 A 
HETATM   15 CL   UNL     1       9.067  24.202  56.926  1.00  0.00    -0.084 Cl
HETATM   16  C   UNL     1       7.945  26.637  57.233  1.00  0.00     0.040 A 
ENDROOT
BRANCH   1  17
HETATM   17  N   UNL     1       5.481  32.723  58.201  1.00  0.00    -0.175 NA
HETATM   18  C   UNL     1       5.732  33.308  59.335  1.00  0.00     0.150 C 
BRANCH  18  19
HETATM   19  C   UNL     1       6.228  32.744  60.608  1.00  0.00    -0.014 A 
HETATM   20  C   UNL     1       5.317  32.042  61.400  1.00  0.00     0.049 A 
HETATM   21  C   UNL     1       5.745  31.483  62.599  1.00  0.00     0.066 A 
HETATM   22  C   UNL     1       7.068  31.603  63.014  1.00  0.00     0.036 A 
HETATM   23  C   UNL     1       7.981  32.282  62.207  1.00  0.00     0.004 A 
HETATM   24  C   UNL     1       7.567  32.843  60.997  1.00  0.00     0.013 A 
BRANCH  21  25
HETATM   25  O   UNL     1       4.823  30.814  63.348  1.00  0.00    -0.361 OA
HETATM   26  H   UNL     1       4.962  31.030  64.284  1.00  0.00     0.217 HD
ENDBRANCH  21  25
ENDBRANCH  18  19
ENDBRANCH   1  17
TORSDOF 3
ENDMDL
MODEL 10
REMARK VINA RESULT:      -7.7      4.020      6.969
REMARK  3 active torsions:
REMARK  status: ('A' for Active; 'I' for Inactive)
REMARK    1  A    between atoms: C_3  and  O_4 
REMARK    2  A    between atoms: C_6  and  C_7 
REMARK    3  A    between atoms: N_8  and  N_9 
ROOT
HETATM    1  N   UNL     1       7.061  26.668  55.470  1.00  0.00    -0.189 N 
HETATM    2  C   UNL     1       5.659  26.674  55.441  1.00  0.00     0.298 A 
HETATM    3  O   UNL     1       4.914  26.091  56.224  1.00  0.00    -0.264 OA
HETATM    4  C   UNL     1       5.170  27.426  54.329  1.00  0.00     0.133 A 
HETATM    5  C   UNL     1       5.973  28.102  53.459  1.00  0.00     0.103 A 
HETATM    6  N   UNL     1       7.362  28.158  53.588  1.00  0.00    -0.239 NA
HETATM    7  C   UNL     1       7.807  27.455  54.590  1.00  0.00     0.239 A 
HETATM    8  N   UNL     1       3.876  27.604  53.927  1.00  0.00    -0.349 N 
HETATM    9  H   UNL     1       3.066  27.220  54.396  1.00  0.00     0.166 HD
HETATM   10  C   UNL     1       3.850  28.375  52.778  1.00  0.00     0.045 A 
HETATM   11  C   UNL     1       5.176  28.707  52.465  1.00  0.00     0.024 A 
HETATM   12  C   UNL     1       2.764  28.800  52.004  1.00  0.00     0.032 A 
HETATM   13  C   UNL     1       3.043  29.584  50.878  1.00  0.00     0.026 A 
HETATM   14  C   UNL     1       4.354  29.925  50.549  1.00  0.00     0.035 A 
HETATM   15 CL   UNL     1       4.653  30.888  49.152  1.00  0.00    -0.084 Cl
HETATM   16  C   UNL     1       5.432  29.499  51.330  1.00  0.00     0.040 A 
ENDROOT
BRANCH   1  17
HETATM   17  N   UNL     1       7.682  26.029  56.522  1.00  0.00    -0.175 NA
HETATM   18  C   UNL     1       8.178  24.837  56.358  1.00  0.00     0.150 C 
BRANCH  18  19
HETATM   19  C   UNL     1       8.070  23.912  55.211  1.00  0.00    -0.014 A 
HETATM   20  C   UNL     1       7.944  22.549  55.492  1.00  0.00     0.049 A 
HETATM   21  C   UNL     1       7.826  21.645  54.443  1.00  0.00     0.066 A 
HETATM   22  C   UNL     1       7.819  22.078  53.120  1.00  0.00     0.036 A 
HETATM   23  C   UNL     1       7.919  23.442  52.845  1.00  0.00     0.004 A 
HETATM   24  C   UNL     1       8.031  24.363  53.889  1.00  0.00     0.013 A 
BRANCH  21  25
HETATM   25  O   UNL     1       7.714  20.323  54.759  1.00  0.00    -0.361 OA
HETATM   26  H   UNL     1       6.824  20.017  54.521  1.00  0.00     0.217 HD
ENDBRANCH  21  25
ENDBRANCH  18  19
ENDBRANCH   1  17
TORSDOF 3
ENDMDL
