MODEL 1
REMARK VINA RESULT:      -7.0      0.000      0.000
REMARK  5 active torsions:
REMARK  status: ('A' for Active; 'I' for Inactive)
REMARK    1  A    between atoms: C_2  and  N_3 
REMARK       I    between atoms: N_3  and  C_4 
REMARK       I    between atoms: C_4  and  N_5 
REMARK    2  A    between atoms: N_5  and  C_6 
REMARK    3  A    between atoms: C_20  and  C_21 
REMARK    4  A    between atoms: C_21  and  O_22 
REMARK    5  A    between atoms: O_22  and  C_23 
ROOT
HETATM    1  C   UNL     1       5.681  29.114  56.891  1.00  0.00     0.095 A 
HETATM    2  S   UNL     1       4.672  29.343  55.545  1.00  0.00    -0.073 SA
HETATM    3  C   UNL     1       5.543  28.248  54.583  1.00  0.00     0.027 A 
HETATM    4  C   UNL     1       6.539  27.620  55.309  1.00  0.00    -0.021 A 
HETATM    5  C   UNL     1       7.418  26.567  54.685  1.00  0.00     0.079 C 
HETATM    6  C   UNL     1       6.795  25.934  53.414  1.00  0.00     0.124 C 
HETATM    7  C   UNL     1       5.715  24.902  53.754  1.00  0.00     0.046 C 
HETATM    8  C   UNL     1       7.894  25.247  52.585  1.00  0.00     0.046 C 
HETATM    9  N   UNL     1       6.209  27.021  52.518  1.00  0.00    -0.054 N 
HETATM   10  H   UNL     1       7.005  27.574  52.174  1.00  0.00     0.279 HD
HETATM   11  H   UNL     1       5.791  26.600  51.679  1.00  0.00     0.279 HD
HETATM   12  C   UNL     1       5.220  28.024  53.126  1.00  0.00     0.153 C 
HETATM   13  C   UNL     1       5.403  29.319  52.310  1.00  0.00     0.052 C 
HETATM   14  C   UNL     1       3.797  27.489  52.904  1.00  0.00     0.052 C 
HETATM   15  C   UNL     1       6.643  28.136  56.669  1.00  0.00     0.081 A 
ENDROOT
BRANCH   1  16
HETATM   16  N   UNL     1       5.463  29.841  58.051  1.00  0.00    -0.302 N 
HETATM   17  C   UNL     1       6.032  31.055  58.388  1.00  0.00     0.321 C 
HETATM   18  N   UNL     1       5.536  31.500  59.600  1.00  0.00    -0.343 N 
HETATM   19  O   UNL     1       6.884  31.670  57.759  1.00  0.00    -0.247 OA
HETATM   20  H   UNL     1       4.580  31.241  59.799  1.00  0.00     0.164 HD
HETATM   21  H   UNL     1       5.022  29.345  58.816  1.00  0.00     0.171 HD
BRANCH  18  22
HETATM   22  C   UNL     1       5.976  32.768  60.155  1.00  0.00     0.120 C 
HETATM   23  C   UNL     1       7.042  32.593  61.224  1.00  0.00     0.026 C 
ENDBRANCH  18  22
ENDBRANCH   1  16
BRANCH  15  24
HETATM   24  C   UNL     1       7.654  27.705  57.649  1.00  0.00     0.296 C 
HETATM   25  O   UNL     1       7.687  26.565  58.094  1.00  0.00    -0.259 OA
BRANCH  24  26
HETATM   26  O   UNL     1       8.531  28.691  58.002  1.00  0.00    -0.318 OA
BRANCH  26  27
HETATM   27  C   UNL     1       9.526  29.028  57.019  1.00  0.00     0.174 C 
HETATM   28  C   UNL     1      10.358  30.200  57.501  1.00  0.00     0.034 C 
ENDBRANCH  26  27
ENDBRANCH  24  26
ENDBRANCH  15  24
TORSDOF 5
ENDMDL
MODEL 2
REMARK VINA RESULT:      -7.0      3.926      9.284
REMARK  5 active torsions:
REMARK  status: ('A' for Active; 'I' for Inactive)
REMARK    1  A    between atoms: C_2  and  N_3 
REMARK       I    between atoms: N_3  and  C_4 
REMARK       I    between atoms: C_4  and  N_5 
REMARK    2  A    between atoms: N_5  and  C_6 
REMARK    3  A    between atoms: C_20  and  C_21 
REMARK    4  A    between atoms: C_21  and  O_22 
REMARK    5  A    between atoms: O_22  and  C_23 
ROOT
HETATM    1  C   UNL     1       5.116  32.531  60.285  1.00  0.00     0.095 A 
HETATM    2  S   UNL     1       4.505  33.943  59.567  1.00  0.00    -0.073 SA
HETATM    3  C   UNL     1       4.223  34.697  61.061  1.00  0.00     0.027 A 
HETATM    4  C   UNL     1       4.691  33.928  62.112  1.00  0.00    -0.021 A 
HETATM    5  C   UNL     1       4.598  34.409  63.537  1.00  0.00     0.079 C 
HETATM    6  C   UNL     1       4.430  35.946  63.647  1.00  0.00     0.124 C 
HETATM    7  C   UNL     1       5.754  36.688  63.430  1.00  0.00     0.046 C 
HETATM    8  C   UNL     1       3.881  36.310  65.037  1.00  0.00     0.046 C 
HETATM    9  N   UNL     1       3.391  36.436  62.643  1.00  0.00    -0.054 N 
HETATM   10  H   UNL     1       2.488  36.050  62.948  1.00  0.00     0.279 HD
HETATM   11  H   UNL     1       3.286  37.455  62.713  1.00  0.00     0.279 HD
HETATM   12  C   UNL     1       3.551  36.044  61.169  1.00  0.00     0.153 C 
HETATM   13  C   UNL     1       2.116  35.996  60.605  1.00  0.00     0.052 C 
HETATM   14  C   UNL     1       4.330  37.161  60.457  1.00  0.00     0.052 C 
HETATM   15  C   UNL     1       5.203  32.637  61.669  1.00  0.00     0.081 A 
ENDROOT
BRANCH   1  16
HETATM   16  N   UNL     1       5.495  31.458  59.492  1.00  0.00    -0.302 N 
HETATM   17  C   UNL     1       6.713  31.283  58.863  1.00  0.00     0.321 C 
HETATM   18  N   UNL     1       6.744  30.067  58.204  1.00  0.00    -0.343 N 
HETATM   19  O   UNL     1       7.647  32.074  58.831  1.00  0.00    -0.247 OA
HETATM   20  H   UNL     1       6.211  29.326  58.635  1.00  0.00     0.164 HD
HETATM   21  H   UNL     1       4.750  30.856  59.165  1.00  0.00     0.171 HD
BRANCH  18  22
HETATM   22  C   UNL     1       7.933  29.652  57.480  1.00  0.00     0.120 C 
HETATM   23  C   UNL     1       8.123  28.145  57.497  1.00  0.00     0.026 C 
ENDBRANCH  18  22
ENDBRANCH   1  16
BRANCH  15  24
HETATM   24  C   UNL     1       5.704  31.585  62.568  1.00  0.00     0.296 C 
HETATM   25  O   UNL     1       4.982  31.028  63.387  1.00  0.00    -0.259 OA
BRANCH  24  26
HETATM   26  O   UNL     1       7.028  31.301  62.397  1.00  0.00    -0.318 OA
BRANCH  26  27
HETATM   27  C   UNL     1       7.935  32.404  62.569  1.00  0.00     0.174 C 
HETATM   28  C   UNL     1       7.901  32.889  64.005  1.00  0.00     0.034 C 
ENDBRANCH  26  27
ENDBRANCH  24  26
ENDBRANCH  15  24
TORSDOF 5
ENDMDL
MODEL 3
REMARK VINA RESULT:      -6.9      3.625      7.401
REMARK  5 active torsions:
REMARK  status: ('A' for Active; 'I' for Inactive)
REMARK    1  A    between atoms: C_2  and  N_3 
REMARK       I    between atoms: N_3  and  C_4 
REMARK       I    between atoms: C_4  and  N_5 
REMARK    2  A    between atoms: N_5  and  C_6 
REMARK    3  A    between atoms: C_20  and  C_21 
REMARK    4  A    between atoms: C_21  and  O_22 
REMARK    5  A    between atoms: O_22  and  C_23 
ROOT
HETATM    1  C   UNL     1       4.998  26.503  52.386  1.00  0.00     0.095 A 
HETATM    2  S   UNL     1       4.301  27.855  53.140  1.00  0.00    -0.073 SA
HETATM    3  C   UNL     1       5.375  27.800  54.453  1.00  0.00     0.027 A 
HETATM    4  C   UNL     1       6.339  26.823  54.276  1.00  0.00    -0.021 A 
HETATM    5  C   UNL     1       7.436  26.612  55.288  1.00  0.00     0.079 C 
HETATM    6  C   UNL     1       7.665  27.847  56.196  1.00  0.00     0.124 C 
HETATM    7  C   UNL     1       8.463  28.947  55.487  1.00  0.00     0.046 C 
HETATM    8  C   UNL     1       8.427  27.423  57.464  1.00  0.00     0.046 C 
HETATM    9  N   UNL     1       6.328  28.404  56.676  1.00  0.00    -0.054 N 
HETATM   10  H   UNL     1       5.922  27.691  57.296  1.00  0.00     0.279 HD
HETATM   11  H   UNL     1       6.481  29.225  57.273  1.00  0.00     0.279 HD
HETATM   12  C   UNL     1       5.251  28.731  55.634  1.00  0.00     0.153 C 
HETATM   13  C   UNL     1       3.907  28.528  56.363  1.00  0.00     0.052 C 
HETATM   14  C   UNL     1       5.391  30.211  55.247  1.00  0.00     0.052 C 
HETATM   15  C   UNL     1       6.116  26.037  53.068  1.00  0.00     0.081 A 
ENDROOT
BRANCH   1  16
HETATM   16  N   UNL     1       4.463  26.017  51.203  1.00  0.00    -0.302 N 
HETATM   17  C   UNL     1       4.582  26.580  49.947  1.00  0.00     0.321 C 
HETATM   18  N   UNL     1       3.961  25.783  49.001  1.00  0.00    -0.343 N 
HETATM   19  O   UNL     1       5.115  27.644  49.663  1.00  0.00    -0.247 OA
HETATM   20  H   UNL     1       3.982  24.791  49.188  1.00  0.00     0.164 HD
HETATM   21  H   UNL     1       3.743  25.310  51.293  1.00  0.00     0.171 HD
BRANCH  18  22
HETATM   22  C   UNL     1       3.968  26.163  47.599  1.00  0.00     0.120 C 
HETATM   23  C   UNL     1       2.588  26.073  46.969  1.00  0.00     0.026 C 
ENDBRANCH  18  22
ENDBRANCH   1  16
BRANCH  15  24
HETATM   24  C   UNL     1       6.941  24.889  52.657  1.00  0.00     0.296 C 
HETATM   25  O   UNL     1       7.706  24.942  51.702  1.00  0.00    -0.259 OA
BRANCH  24  26
HETATM   26  O   UNL     1       6.765  23.781  53.436  1.00  0.00    -0.318 OA
BRANCH  26  27
HETATM   27  C   UNL     1       7.960  23.057  53.778  1.00  0.00     0.174 C 
HETATM   28  C   UNL     1       7.941  21.684  53.135  1.00  0.00     0.034 C 
ENDBRANCH  26  27
ENDBRANCH  24  26
ENDBRANCH  15  24
TORSDOF 5
ENDMDL
MODEL 4
REMARK VINA RESULT:      -6.9      1.250      1.968
REMARK  5 active torsions:
REMARK  status: ('A' for Active; 'I' for Inactive)
REMARK    1  A    between atoms: C_2  and  N_3 
REMARK       I    between atoms: N_3  and  C_4 
REMARK       I    between atoms: C_4  and  N_5 
REMARK    2  A    between atoms: N_5  and  C_6 
REMARK    3  A    between atoms: C_20  and  C_21 
REMARK    4  A    between atoms: C_21  and  O_22 
REMARK    5  A    between atoms: O_22  and  C_23 
ROOT
HETATM    1  C   UNL     1       6.164  28.885  56.659  1.00  0.00     0.095 A 
HETATM    2  S   UNL     1       5.084  29.319  55.424  1.00  0.00    -0.073 SA
HETATM    3  C   UNL     1       5.699  28.162  54.345  1.00  0.00     0.027 A 
HETATM    4  C   UNL     1       6.654  27.365  54.950  1.00  0.00    -0.021 A 
HETATM    5  C   UNL     1       7.314  26.231  54.207  1.00  0.00     0.079 C 
HETATM    6  C   UNL     1       6.496  25.755  52.980  1.00  0.00     0.124 C 
HETATM    7  C   UNL     1       5.312  24.869  53.384  1.00  0.00     0.046 C 
HETATM    8  C   UNL     1       7.406  24.963  52.026  1.00  0.00     0.046 C 
HETATM    9  N   UNL     1       5.995  26.956  52.183  1.00  0.00    -0.054 N 
HETATM   10  H   UNL     1       6.828  27.408  51.785  1.00  0.00     0.279 HD
HETATM   11  H   UNL     1       5.448  26.640  51.374  1.00  0.00     0.279 HD
HETATM   12  C   UNL     1       5.219  28.056  52.918  1.00  0.00     0.153 C 
HETATM   13  C   UNL     1       5.513  29.352  52.135  1.00  0.00     0.052 C 
HETATM   14  C   UNL     1       3.720  27.737  52.813  1.00  0.00     0.052 C 
HETATM   15  C   UNL     1       6.953  27.794  56.312  1.00  0.00     0.081 A 
ENDROOT
BRANCH   1  16
HETATM   16  N   UNL     1       6.158  29.577  57.860  1.00  0.00    -0.302 N 
HETATM   17  C   UNL     1       7.089  30.506  58.287  1.00  0.00     0.321 C 
HETATM   18  N   UNL     1       6.723  31.025  59.516  1.00  0.00    -0.343 N 
HETATM   19  O   UNL     1       8.123  30.829  57.716  1.00  0.00    -0.247 OA
HETATM   20  H   UNL     1       5.729  31.095  59.679  1.00  0.00     0.164 HD
HETATM   21  H   UNL     1       5.545  29.219  58.582  1.00  0.00     0.171 HD
BRANCH  18  22
HETATM   22  C   UNL     1       7.542  32.036  60.161  1.00  0.00     0.120 C 
HETATM   23  C   UNL     1       8.312  31.484  61.349  1.00  0.00     0.026 C 
ENDBRANCH  18  22
ENDBRANCH   1  16
BRANCH  15  24
HETATM   24  C   UNL     1       7.974  27.178  57.175  1.00  0.00     0.296 C 
HETATM   25  O   UNL     1       9.041  27.727  57.418  1.00  0.00    -0.259 OA
BRANCH  24  26
HETATM   26  O   UNL     1       7.612  25.955  57.666  1.00  0.00    -0.318 OA
BRANCH  26  27
HETATM   27  C   UNL     1       8.603  24.918  57.563  1.00  0.00     0.174 C 
HETATM   28  C   UNL     1       8.059  23.754  56.758  1.00  0.00     0.034 C 
ENDBRANCH  26  27
ENDBRANCH  24  26
ENDBRANCH  15  24
TORSDOF 5
ENDMDL
MODEL 5
REMARK VINA RESULT:      -6.9      3.356      4.967
REMARK  5 active torsions:
REMARK  status: ('A' for Active; 'I' for Inactive)
REMARK    1  A    between atoms: C_2  and  N_3 
REMARK       I    between atoms: N_3  and  C_4 
REMARK       I    between atoms: C_4  and  N_5 
REMARK    2  A    between atoms: N_5  and  C_6 
REMARK    3  A    between atoms: C_20  and  C_21 
REMARK    4  A    between atoms: C_21  and  O_22 
REMARK    5  A    between atoms: O_22  and  C_23 
ROOT
HETATM    1  C   UNL     1       5.425  32.692  59.801  1.00  0.00     0.095 A 
HETATM    2  S   UNL     1       4.241  32.352  58.633  1.00  0.00    -0.073 SA
HETATM    3  C   UNL     1       5.302  31.426  57.685  1.00  0.00     0.027 A 
HETATM    4  C   UNL     1       6.532  31.278  58.302  1.00  0.00    -0.021 A 
HETATM    5  C   UNL     1       7.628  30.455  57.676  1.00  0.00     0.079 C 
HETATM    6  C   UNL     1       7.101  29.443  56.627  1.00  0.00     0.124 C 
HETATM    7  C   UNL     1       6.477  28.205  57.282  1.00  0.00     0.046 C 
HETATM    8  C   UNL     1       8.255  28.992  55.716  1.00  0.00     0.046 C 
HETATM    9  N   UNL     1       6.081  30.115  55.713  1.00  0.00    -0.054 N 
HETATM   10  H   UNL     1       6.599  30.816  55.167  1.00  0.00     0.279 HD
HETATM   11  H   UNL     1       5.728  29.442  55.022  1.00  0.00     0.279 HD
HETATM   12  C   UNL     1       4.897  30.855  56.348  1.00  0.00     0.153 C 
HETATM   13  C   UNL     1       4.536  31.974  55.351  1.00  0.00     0.052 C 
HETATM   14  C   UNL     1       3.718  29.875  56.449  1.00  0.00     0.052 C 
HETATM   15  C   UNL     1       6.624  32.037  59.544  1.00  0.00     0.081 A 
ENDROOT
BRANCH   1  16
HETATM   16  N   UNL     1       5.122  33.512  60.877  1.00  0.00    -0.302 N 
HETATM   17  C   UNL     1       4.462  33.149  62.036  1.00  0.00     0.321 C 
HETATM   18  N   UNL     1       4.389  34.223  62.905  1.00  0.00    -0.343 N 
HETATM   19  O   UNL     1       3.963  32.061  62.290  1.00  0.00    -0.247 OA
HETATM   20  H   UNL     1       5.166  34.866  62.867  1.00  0.00     0.164 HD
HETATM   21  H   UNL     1       5.192  34.510  60.715  1.00  0.00     0.171 HD
BRANCH  18  22
HETATM   22  C   UNL     1       3.751  34.078  64.202  1.00  0.00     0.120 C 
HETATM   23  C   UNL     1       4.750  33.776  65.306  1.00  0.00     0.026 C 
ENDBRANCH  18  22
ENDBRANCH   1  16
BRANCH  15  24
HETATM   24  C   UNL     1       7.832  32.123  60.381  1.00  0.00     0.296 C 
HETATM   25  O   UNL     1       8.818  32.765  60.041  1.00  0.00    -0.259 OA
BRANCH  24  26
HETATM   26  O   UNL     1       7.739  31.426  61.551  1.00  0.00    -0.318 OA
BRANCH  26  27
HETATM   27  C   UNL     1       8.588  31.877  62.621  1.00  0.00     0.174 C 
HETATM   28  C   UNL     1       7.829  32.832  63.522  1.00  0.00     0.034 C 
ENDBRANCH  26  27
ENDBRANCH  24  26
ENDBRANCH  15  24
TORSDOF 5
ENDMDL
MODEL 6
REMARK VINA RESULT:      -6.9      3.527      7.255
REMARK  5 active torsions:
REMARK  status: ('A' for Active; 'I' for Inactive)
REMARK    1  A    between atoms: C_2  and  N_3 
REMARK       I    between atoms: N_3  and  C_4 
REMARK       I    between atoms: C_4  and  N_5 
REMARK    2  A    between atoms: N_5  and  C_6 
REMARK    3  A    between atoms: C_20  and  C_21 
REMARK    4  A    between atoms: C_21  and  O_22 
REMARK    5  A    between atoms: O_22  and  C_23 
ROOT
HETATM    1  C   UNL     1       6.774  25.054  55.269  1.00  0.00     0.095 A 
HETATM    2  S   UNL     1       7.517  26.119  56.363  1.00  0.00    -0.073 SA
HETATM    3  C   UNL     1       6.736  27.481  55.718  1.00  0.00     0.027 A 
HETATM    4  C   UNL     1       5.824  27.125  54.740  1.00  0.00    -0.021 A 
HETATM    5  C   UNL     1       4.971  28.159  54.051  1.00  0.00     0.079 C 
HETATM    6  C   UNL     1       4.847  29.476  54.858  1.00  0.00     0.124 C 
HETATM    7  C   UNL     1       3.851  29.353  56.016  1.00  0.00     0.046 C 
HETATM    8  C   UNL     1       4.388  30.612  53.928  1.00  0.00     0.046 C 
HETATM    9  N   UNL     1       6.213  29.897  55.392  1.00  0.00    -0.054 N 
HETATM   10  H   UNL     1       6.783  30.142  54.572  1.00  0.00     0.279 HD
HETATM   11  H   UNL     1       6.129  30.767  55.932  1.00  0.00     0.279 HD
HETATM   12  C   UNL     1       7.034  28.881  56.197  1.00  0.00     0.153 C 
HETATM   13  C   UNL     1       8.507  29.256  55.940  1.00  0.00     0.052 C 
HETATM   14  C   UNL     1       6.719  29.083  57.687  1.00  0.00     0.052 C 
HETATM   15  C   UNL     1       5.851  25.696  54.452  1.00  0.00     0.081 A 
ENDROOT
BRANCH   1  16
HETATM   16  N   UNL     1       7.091  23.704  55.292  1.00  0.00    -0.302 N 
HETATM   17  C   UNL     1       7.968  23.044  54.453  1.00  0.00     0.321 C 
HETATM   18  N   UNL     1       8.068  21.712  54.812  1.00  0.00    -0.343 N 
HETATM   19  O   UNL     1       8.566  23.514  53.494  1.00  0.00    -0.247 OA
HETATM   20  H   UNL     1       7.964  21.519  55.798  1.00  0.00     0.164 HD
HETATM   21  H   UNL     1       6.469  23.106  55.823  1.00  0.00     0.171 HD
BRANCH  18  22
HETATM   22  C   UNL     1       8.947  20.816  54.081  1.00  0.00     0.120 C 
HETATM   23  C   UNL     1       8.322  20.317  52.790  1.00  0.00     0.026 C 
ENDBRANCH  18  22
ENDBRANCH   1  16
BRANCH  15  24
HETATM   24  C   UNL     1       5.039  25.040  53.413  1.00  0.00     0.296 C 
HETATM   25  O   UNL     1       3.831  24.881  53.532  1.00  0.00    -0.259 OA
BRANCH  24  26
HETATM   26  O   UNL     1       5.762  24.635  52.327  1.00  0.00    -0.318 OA
BRANCH  26  27
HETATM   27  C   UNL     1       6.291  25.684  51.498  1.00  0.00     0.174 C 
HETATM   28  C   UNL     1       5.171  26.356  50.728  1.00  0.00     0.034 C 
ENDBRANCH  26  27
ENDBRANCH  24  26
ENDBRANCH  15  24
TORSDOF 5
ENDMDL
MODEL 7
REMARK VINA RESULT:      -6.8      2.351      7.820
REMARK  5 active torsions:
REMARK  status: ('A' for Active; 'I' for Inactive)
REMARK    1  A    between atoms: C_2  and  N_3 
REMARK       I    between atoms: N_3  and  C_4 
REMARK       I    between atoms: C_4  and  N_5 
REMARK    2  A    between atoms: N_5  and  C_6 
REMARK    3  A    between atoms: C_20  and  C_21 
REMARK    4  A    between atoms: C_21  and  O_22 
REMARK    5  A    between atoms: O_22  and  C_23 
ROOT
HETATM    1  C   UNL     1       6.191  31.584  58.488  1.00  0.00     0.095 A 
HETATM    2  S   UNL     1       4.636  31.928  59.075  1.00  0.00    -0.073 SA
HETATM    3  C   UNL     1       5.204  32.342  60.620  1.00  0.00     0.027 A 
HETATM    4  C   UNL     1       6.586  32.328  60.670  1.00  0.00    -0.021 A 
HETATM    5  C   UNL     1       7.328  32.708  61.926  1.00  0.00     0.079 C 
HETATM    6  C   UNL     1       6.473  33.558  62.900  1.00  0.00     0.124 C 
HETATM    7  C   UNL     1       6.374  35.021  62.455  1.00  0.00     0.046 C 
HETATM    8  C   UNL     1       7.089  33.509  64.309  1.00  0.00     0.046 C 
HETATM    9  N   UNL     1       5.075  32.961  63.031  1.00  0.00    -0.054 N 
HETATM   10  H   UNL     1       5.190  32.054  63.503  1.00  0.00     0.279 HD
HETATM   11  H   UNL     1       4.507  33.528  63.672  1.00  0.00     0.279 HD
HETATM   12  C   UNL     1       4.270  32.683  61.756  1.00  0.00     0.153 C 
HETATM   13  C   UNL     1       3.359  31.488  62.104  1.00  0.00     0.052 C 
HETATM   14  C   UNL     1       3.395  33.911  61.463  1.00  0.00     0.052 C 
HETATM   15  C   UNL     1       7.182  31.864  59.423  1.00  0.00     0.081 A 
ENDROOT
BRANCH   1  16
HETATM   16  N   UNL     1       6.356  31.119  57.193  1.00  0.00    -0.302 N 
HETATM   17  C   UNL     1       6.259  29.808  56.764  1.00  0.00     0.321 C 
HETATM   18  N   UNL     1       6.433  29.735  55.394  1.00  0.00    -0.343 N 
HETATM   19  O   UNL     1       6.083  28.816  57.459  1.00  0.00    -0.247 OA
HETATM   20  H   UNL     1       6.104  30.534  54.871  1.00  0.00     0.164 HD
HETATM   21  H   UNL     1       6.799  31.754  56.540  1.00  0.00     0.171 HD
BRANCH  18  22
HETATM   22  C   UNL     1       6.356  28.457  54.709  1.00  0.00     0.120 C 
HETATM   23  C   UNL     1       7.679  28.060  54.075  1.00  0.00     0.026 C 
ENDBRANCH  18  22
ENDBRANCH   1  16
BRANCH  15  24
HETATM   24  C   UNL     1       8.626  31.681  59.206  1.00  0.00     0.296 C 
HETATM   25  O   UNL     1       9.429  32.594  59.353  1.00  0.00    -0.259 OA
BRANCH  24  26
HETATM   26  O   UNL     1       8.969  30.413  58.831  1.00  0.00    -0.318 OA
BRANCH  26  27
HETATM   27  C   UNL     1       9.978  30.310  57.812  1.00  0.00     0.174 C 
HETATM   28  C   UNL     1       9.810  29.016  57.039  1.00  0.00     0.034 C 
ENDBRANCH  26  27
ENDBRANCH  24  26
ENDBRANCH  15  24
TORSDOF 5
ENDMDL
MODEL 8
REMARK VINA RESULT:      -6.7      2.111      2.600
REMARK  5 active torsions:
REMARK  status: ('A' for Active; 'I' for Inactive)
REMARK    1  A    between atoms: C_2  and  N_3 
REMARK       I    between atoms: N_3  and  C_4 
REMARK       I    between atoms: C_4  and  N_5 
REMARK    2  A    between atoms: N_5  and  C_6 
REMARK    3  A    between atoms: C_20  and  C_21 
REMARK    4  A    between atoms: C_21  and  O_22 
REMARK    5  A    between atoms: O_22  and  C_23 
ROOT
HETATM    1  C   UNL     1       6.379  29.012  55.348  1.00  0.00     0.095 A 
HETATM    2  S   UNL     1       5.720  28.081  54.090  1.00  0.00    -0.073 SA
HETATM    3  C   UNL     1       6.672  26.726  54.463  1.00  0.00     0.027 A 
HETATM    4  C   UNL     1       7.417  26.932  55.610  1.00  0.00    -0.021 A 
HETATM    5  C   UNL     1       8.307  25.853  56.170  1.00  0.00     0.079 C 
HETATM    6  C   UNL     1       7.922  24.435  55.677  1.00  0.00     0.124 C 
HETATM    7  C   UNL     1       6.699  23.879  56.415  1.00  0.00     0.046 C 
HETATM    8  C   UNL     1       9.106  23.474  55.886  1.00  0.00     0.046 C 
HETATM    9  N   UNL     1       7.657  24.454  54.175  1.00  0.00    -0.054 N 
HETATM   10  H   UNL     1       8.558  24.654  53.723  1.00  0.00     0.279 HD
HETATM   11  H   UNL     1       7.396  23.515  53.850  1.00  0.00     0.279 HD
HETATM   12  C   UNL     1       6.659  25.476  53.616  1.00  0.00     0.153 C 
HETATM   13  C   UNL     1       7.142  25.771  52.182  1.00  0.00     0.052 C 
HETATM   14  C   UNL     1       5.276  24.811  53.552  1.00  0.00     0.052 C 
HETATM   15  C   UNL     1       7.268  28.285  56.132  1.00  0.00     0.081 A 
ENDROOT
BRANCH   1  16
HETATM   16  N   UNL     1       5.982  30.329  55.517  1.00  0.00    -0.302 N 
HETATM   17  C   UNL     1       5.079  30.810  56.446  1.00  0.00     0.321 C 
HETATM   18  N   UNL     1       4.975  32.186  56.350  1.00  0.00    -0.343 N 
HETATM   19  O   UNL     1       4.414  30.153  57.236  1.00  0.00    -0.247 OA
HETATM   20  H   UNL     1       5.817  32.667  56.069  1.00  0.00     0.164 HD
HETATM   21  H   UNL     1       6.201  30.965  54.760  1.00  0.00     0.171 HD
BRANCH  18  22
HETATM   22  C   UNL     1       4.094  32.922  57.240  1.00  0.00     0.120 C 
HETATM   23  C   UNL     1       4.838  33.529  58.418  1.00  0.00     0.026 C 
ENDBRANCH  18  22
ENDBRANCH   1  16
BRANCH  15  24
HETATM   24  C   UNL     1       7.990  28.812  57.302  1.00  0.00     0.296 C 
HETATM   25  O   UNL     1       7.883  28.313  58.415  1.00  0.00    -0.259 OA
BRANCH  24  26
HETATM   26  O   UNL     1       8.776  29.893  57.020  1.00  0.00    -0.318 OA
BRANCH  26  27
HETATM   27  C   UNL     1       9.990  29.617  56.299  1.00  0.00     0.174 C 
HETATM   28  C   UNL     1      11.191  29.832  57.199  1.00  0.00     0.034 C 
ENDBRANCH  26  27
ENDBRANCH  24  26
ENDBRANCH  15  24
TORSDOF 5
ENDMDL
MODEL 9
REMARK VINA RESULT:      -6.7      2.445      3.430
REMARK  5 active torsions:
REMARK  status: ('A' for Active; 'I' for Inactive)
REMARK    1  A    between atoms: C_2  and  N_3 
REMARK       I    between atoms: N_3  and  C_4 
REMARK       I    between atoms: C_4  and  N_5 
REMARK    2  A    between atoms: N_5  and  C_6 
REMARK    3  A    between atoms: C_20  and  C_21 
REMARK    4  A    between atoms: C_21  and  O_22 
REMARK    5  A    between atoms: O_22  and  C_23 
ROOT
HETATM    1  C   UNL     1       6.590  31.690  58.768  1.00  0.00     0.095 A 
HETATM    2  S   UNL     1       5.280  32.417  57.971  1.00  0.00    -0.073 SA
HETATM    3  C   UNL     1       5.377  31.364  56.644  1.00  0.00     0.027 A 
HETATM    4  C   UNL     1       6.333  30.384  56.845  1.00  0.00    -0.021 A 
HETATM    5  C   UNL     1       6.572  29.301  55.825  1.00  0.00     0.079 C 
HETATM    6  C   UNL     1       5.374  29.103  54.861  1.00  0.00     0.124 C 
HETATM    7  C   UNL     1       4.235  28.308  55.512  1.00  0.00     0.046 C 
HETATM    8  C   UNL     1       5.841  28.356  53.600  1.00  0.00     0.046 C 
HETATM    9  N   UNL     1       4.854  30.454  54.382  1.00  0.00    -0.054 N 
HETATM   10  H   UNL     1       5.597  30.861  53.798  1.00  0.00     0.279 HD
HETATM   11  H   UNL     1       4.057  30.322  53.748  1.00  0.00     0.279 HD
HETATM   12  C   UNL     1       4.497  31.519  55.426  1.00  0.00     0.153 C 
HETATM   13  C   UNL     1       4.748  32.871  54.729  1.00  0.00     0.052 C 
HETATM   14  C   UNL     1       3.001  31.392  55.750  1.00  0.00     0.052 C 
HETATM   15  C   UNL     1       7.071  30.577  58.088  1.00  0.00     0.081 A 
ENDROOT
BRANCH   1  16
HETATM   16  N   UNL     1       7.034  32.199  59.979  1.00  0.00    -0.302 N 
HETATM   17  C   UNL     1       6.292  32.351  61.136  1.00  0.00     0.321 C 
HETATM   18  N   UNL     1       7.087  32.842  62.156  1.00  0.00    -0.343 N 
HETATM   19  O   UNL     1       5.096  32.134  61.279  1.00  0.00    -0.247 OA
HETATM   20  H   UNL     1       8.054  32.553  62.130  1.00  0.00     0.164 HD
HETATM   21  H   UNL     1       7.911  32.705  59.959  1.00  0.00     0.171 HD
BRANCH  18  22
HETATM   22  C   UNL     1       6.530  33.069  63.479  1.00  0.00     0.120 C 
HETATM   23  C   UNL     1       7.592  33.455  64.494  1.00  0.00     0.026 C 
ENDBRANCH  18  22
ENDBRANCH   1  16
BRANCH  15  24
HETATM   24  C   UNL     1       8.190  29.731  58.533  1.00  0.00     0.296 C 
HETATM   25  O   UNL     1       8.123  28.508  58.538  1.00  0.00    -0.259 OA
BRANCH  24  26
HETATM   26  O   UNL     1       9.288  30.439  58.931  1.00  0.00    -0.318 OA
BRANCH  26  27
HETATM   27  C   UNL     1      10.081  31.015  57.878  1.00  0.00     0.174 C 
HETATM   28  C   UNL     1      10.964  29.954  57.250  1.00  0.00     0.034 C 
ENDBRANCH  26  27
ENDBRANCH  24  26
ENDBRANCH  15  24
TORSDOF 5
ENDMDL
MODEL 10
REMARK VINA RESULT:      -6.7      2.394      3.754
REMARK  5 active torsions:
REMARK  status: ('A' for Active; 'I' for Inactive)
REMARK    1  A    between atoms: C_2  and  N_3 
REMARK       I    between atoms: N_3  and  C_4 
REMARK       I    between atoms: C_4  and  N_5 
REMARK    2  A    between atoms: N_5  and  C_6 
REMARK    3  A    between atoms: C_20  and  C_21 
REMARK    4  A    between atoms: C_21  and  O_22 
REMARK    5  A    between atoms: O_22  and  C_23 
ROOT
HETATM    1  C   UNL     1       7.009  27.599  57.383  1.00  0.00     0.095 A 
HETATM    2  S   UNL     1       7.882  26.145  57.317  1.00  0.00    -0.073 SA
HETATM    3  C   UNL     1       7.073  25.608  55.926  1.00  0.00     0.027 A 
HETATM    4  C   UNL     1       6.212  26.574  55.438  1.00  0.00    -0.021 A 
HETATM    5  C   UNL     1       5.414  26.349  54.179  1.00  0.00     0.079 C 
HETATM    6  C   UNL     1       6.009  25.239  53.276  1.00  0.00     0.124 C 
HETATM    7  C   UNL     1       7.222  25.731  52.479  1.00  0.00     0.046 C 
HETATM    8  C   UNL     1       4.937  24.742  52.290  1.00  0.00     0.046 C 
HETATM    9  N   UNL     1       6.399  24.028  54.118  1.00  0.00    -0.054 N 
HETATM   10  H   UNL     1       5.522  23.632  54.481  1.00  0.00     0.279 HD
HETATM   11  H   UNL     1       6.799  23.295  53.520  1.00  0.00     0.279 HD
HETATM   12  C   UNL     1       7.310  24.240  55.334  1.00  0.00     0.153 C 
HETATM   13  C   UNL     1       6.921  23.128  56.330  1.00  0.00     0.052 C 
HETATM   14  C   UNL     1       8.764  24.025  54.888  1.00  0.00     0.052 C 
HETATM   15  C   UNL     1       6.150  27.749  56.300  1.00  0.00     0.081 A 
ENDROOT
BRANCH   1  16
HETATM   16  N   UNL     1       7.228  28.493  58.420  1.00  0.00    -0.302 N 
HETATM   17  C   UNL     1       8.240  29.431  58.507  1.00  0.00     0.321 C 
HETATM   18  N   UNL     1       8.105  30.179  59.663  1.00  0.00    -0.343 N 
HETATM   19  O   UNL     1       9.166  29.591  57.722  1.00  0.00    -0.247 OA
HETATM   20  H   UNL     1       7.157  30.331  59.974  1.00  0.00     0.164 HD
HETATM   21  H   UNL     1       6.741  28.303  59.287  1.00  0.00     0.171 HD
BRANCH  18  22
HETATM   22  C   UNL     1       9.047  31.242  59.965  1.00  0.00     0.120 C 
HETATM   23  C   UNL     1       9.388  31.310  61.444  1.00  0.00     0.026 C 
ENDBRANCH  18  22
ENDBRANCH   1  16
BRANCH  15  24
HETATM   24  C   UNL     1       5.271  28.907  56.070  1.00  0.00     0.296 C 
HETATM   25  O   UNL     1       4.051  28.806  56.047  1.00  0.00    -0.259 OA
BRANCH  24  26
HETATM   26  O   UNL     1       5.946  30.080  55.890  1.00  0.00    -0.318 OA
BRANCH  26  27
HETATM   27  C   UNL     1       5.214  31.280  56.198  1.00  0.00     0.174 C 
HETATM   28  C   UNL     1       5.380  31.630  57.664  1.00  0.00     0.034 C 
ENDBRANCH  26  27
ENDBRANCH  24  26
ENDBRANCH  15  24
TORSDOF 5
ENDMDL
