MODEL 1
REMARK VINA RESULT:      -9.7      0.000      0.000
REMARK  4 active torsions:
REMARK  status: ('A' for Active; 'I' for Inactive)
REMARK    1  A    between atoms: O_2  and  C_3 
REMARK    2  A    between atoms: C_3  and  C_4 
REMARK    3  A    between atoms: C_12  and  N_13 
REMARK       I    between atoms: N_13  and  C_14 
REMARK    4  A    between atoms: C_14  and  C_15 
ROOT
HETATM    1  N   UNL     1       6.943  26.428  56.988  1.00  0.00    -0.323 N 
HETATM    2  C   UNL     1       7.403  25.848  55.824  1.00  0.00     0.258 C 
HETATM    3  O   UNL     1       7.523  26.435  54.752  1.00  0.00    -0.267 OA
HETATM    4  H   UNL     1       6.925  25.839  57.811  1.00  0.00     0.169 HD
ENDROOT
BRANCH   1   5
HETATM    5  C   UNL     1       6.492  27.751  57.187  1.00  0.00     0.036 A 
HETATM    6  C   UNL     1       5.217  28.203  56.840  1.00  0.00     0.032 A 
HETATM    7  C   UNL     1       4.817  29.528  57.069  1.00  0.00     0.034 A 
HETATM    8  C   UNL     1       5.747  30.384  57.660  1.00  0.00     0.063 A 
HETATM    9  N   UNL     1       5.671  31.702  58.010  1.00  0.00    -0.277 N 
HETATM   10  C   UNL     1       7.026  29.982  58.019  1.00  0.00     0.031 A 
HETATM   11  N   UNL     1       6.791  32.193  58.563  1.00  0.00    -0.167 NA
HETATM   12  H   UNL     1       4.879  32.324  57.898  1.00  0.00     0.189 HD
HETATM   13  C   UNL     1       7.643  31.147  58.575  1.00  0.00     0.164 A 
HETATM   14  C   UNL     1       7.403  28.643  57.780  1.00  0.00     0.046 A 
BRANCH  13  15
HETATM   15  C   UNL     1       9.015  31.244  59.099  1.00  0.00     0.314 C 
HETATM   16  O   UNL     1       9.820  32.095  58.731  1.00  0.00    -0.257 OA
BRANCH  15  17
HETATM   17  O   UNL     1       9.301  30.290  60.039  1.00  0.00    -0.321 OA
HETATM   18  C   UNL     1       9.016  30.681  61.380  1.00  0.00     0.213 C 
ENDBRANCH  15  17
ENDBRANCH  13  15
ENDBRANCH   1   5
BRANCH   2  19
HETATM   19  C   UNL     1       7.779  24.427  55.927  1.00  0.00     0.063 A 
HETATM   20  C   UNL     1       7.847  23.357  54.961  1.00  0.00     0.046 A 
HETATM   21  C   UNL     1       8.288  22.209  55.632  1.00  0.00     0.046 A 
HETATM   22  C   UNL     1       7.591  23.221  53.579  1.00  0.00     0.130 A 
HETATM   23  C   UNL     1       8.477  20.973  54.998  1.00  0.00     0.030 A 
HETATM   24  N   UNL     1       8.479  22.553  56.948  1.00  0.00    -0.364 N 
HETATM   25  C   UNL     1       8.211  20.889  53.629  1.00  0.00     0.005 A 
HETATM   26  C   UNL     1       7.771  22.002  52.923  1.00  0.00     0.043 A 
HETATM   27  H   UNL     1       8.798  21.920  57.669  1.00  0.00     0.165 HD
HETATM   28  C   UNL     1       8.183  23.870  57.133  1.00  0.00     0.106 A 
HETATM   29  F   UNL     1       7.160  24.268  52.858  1.00  0.00    -0.205 F 
ENDBRANCH   2  19
TORSDOF 4
ENDMDL
MODEL 2
REMARK VINA RESULT:      -9.7      0.623      1.109
REMARK  4 active torsions:
REMARK  status: ('A' for Active; 'I' for Inactive)
REMARK    1  A    between atoms: O_2  and  C_3 
REMARK    2  A    between atoms: C_3  and  C_4 
REMARK    3  A    between atoms: C_12  and  N_13 
REMARK       I    between atoms: N_13  and  C_14 
REMARK    4  A    between atoms: C_14  and  C_15 
ROOT
HETATM    1  N   UNL     1       7.017  26.068  56.800  1.00  0.00    -0.323 N 
HETATM    2  C   UNL     1       7.459  25.450  55.648  1.00  0.00     0.258 C 
HETATM    3  O   UNL     1       7.581  26.005  54.560  1.00  0.00    -0.267 OA
HETATM    4  H   UNL     1       6.996  25.502  57.639  1.00  0.00     0.169 HD
ENDROOT
BRANCH   1   5
HETATM    5  C   UNL     1       6.589  27.403  56.966  1.00  0.00     0.036 A 
HETATM    6  C   UNL     1       5.387  27.907  56.466  1.00  0.00     0.032 A 
HETATM    7  C   UNL     1       5.005  29.241  56.669  1.00  0.00     0.034 A 
HETATM    8  C   UNL     1       5.878  30.054  57.393  1.00  0.00     0.063 A 
HETATM    9  N   UNL     1       5.802  31.368  57.757  1.00  0.00    -0.277 N 
HETATM   10  C   UNL     1       7.086  29.600  57.906  1.00  0.00     0.031 A 
HETATM   11  N   UNL     1       6.856  31.808  58.461  1.00  0.00    -0.167 NA
HETATM   12  H   UNL     1       5.053  32.020  57.556  1.00  0.00     0.189 HD
HETATM   13  C   UNL     1       7.664  30.732  58.562  1.00  0.00     0.164 A 
HETATM   14  C   UNL     1       7.445  28.252  57.691  1.00  0.00     0.046 A 
BRANCH  13  15
HETATM   15  C   UNL     1       8.959  30.771  59.261  1.00  0.00     0.314 C 
HETATM   16  O   UNL     1       9.163  30.214  60.336  1.00  0.00    -0.257 OA
BRANCH  15  17
HETATM   17  O   UNL     1       9.910  31.492  58.591  1.00  0.00    -0.321 OA
HETATM   18  C   UNL     1      10.594  30.762  57.574  1.00  0.00     0.213 C 
ENDBRANCH  15  17
ENDBRANCH  13  15
ENDBRANCH   1   5
BRANCH   2  19
HETATM   19  C   UNL     1       7.813  24.026  55.787  1.00  0.00     0.063 A 
HETATM   20  C   UNL     1       7.882  22.935  54.845  1.00  0.00     0.046 A 
HETATM   21  C   UNL     1       8.295  21.796  55.548  1.00  0.00     0.046 A 
HETATM   22  C   UNL     1       7.647  22.774  53.462  1.00  0.00     0.130 A 
HETATM   23  C   UNL     1       8.476  20.544  54.942  1.00  0.00     0.030 A 
HETATM   24  N   UNL     1       8.469  22.164  56.859  1.00  0.00    -0.364 N 
HETATM   25  C   UNL     1       8.233  20.435  53.571  1.00  0.00     0.005 A 
HETATM   26  C   UNL     1       7.821  21.539  52.834  1.00  0.00     0.043 A 
HETATM   27  H   UNL     1       8.767  21.542  57.598  1.00  0.00     0.165 HD
HETATM   28  C   UNL     1       8.189  23.489  57.012  1.00  0.00     0.106 A 
HETATM   29  F   UNL     1       7.243  23.811  52.712  1.00  0.00    -0.205 F 
ENDBRANCH   2  19
TORSDOF 4
ENDMDL
MODEL 3
REMARK VINA RESULT:      -9.5      1.753      2.210
REMARK  4 active torsions:
REMARK  status: ('A' for Active; 'I' for Inactive)
REMARK    1  A    between atoms: O_2  and  C_3 
REMARK    2  A    between atoms: C_3  and  C_4 
REMARK    3  A    between atoms: C_12  and  N_13 
REMARK       I    between atoms: N_13  and  C_14 
REMARK    4  A    between atoms: C_14  and  C_15 
ROOT
HETATM    1  N   UNL     1       6.780  26.937  55.437  1.00  0.00    -0.323 N 
HETATM    2  C   UNL     1       7.478  25.794  55.769  1.00  0.00     0.258 C 
HETATM    3  O   UNL     1       7.921  25.546  56.887  1.00  0.00    -0.267 OA
HETATM    4  H   UNL     1       6.440  27.001  54.486  1.00  0.00     0.169 HD
ENDROOT
BRANCH   1   5
HETATM    5  C   UNL     1       6.470  28.041  56.261  1.00  0.00     0.036 A 
HETATM    6  C   UNL     1       5.172  28.413  56.617  1.00  0.00     0.032 A 
HETATM    7  C   UNL     1       4.921  29.514  57.447  1.00  0.00     0.034 A 
HETATM    8  C   UNL     1       6.025  30.232  57.909  1.00  0.00     0.063 A 
HETATM    9  N   UNL     1       6.120  31.329  58.716  1.00  0.00    -0.277 N 
HETATM   10  C   UNL     1       7.333  29.904  57.579  1.00  0.00     0.031 A 
HETATM   11  N   UNL     1       7.376  31.745  58.939  1.00  0.00    -0.167 NA
HETATM   12  H   UNL     1       5.360  31.843  59.149  1.00  0.00     0.189 HD
HETATM   13  C   UNL     1       8.143  30.880  58.243  1.00  0.00     0.164 A 
HETATM   14  C   UNL     1       7.559  28.789  56.744  1.00  0.00     0.046 A 
BRANCH  13  15
HETATM   15  C   UNL     1       9.611  30.973  58.202  1.00  0.00     0.314 C 
HETATM   16  O   UNL     1      10.224  32.033  58.297  1.00  0.00    -0.257 OA
BRANCH  15  17
HETATM   17  O   UNL     1      10.222  29.757  58.049  1.00  0.00    -0.321 OA
HETATM   18  C   UNL     1      11.117  29.684  56.942  1.00  0.00     0.213 C 
ENDBRANCH  15  17
ENDBRANCH  13  15
ENDBRANCH   1   5
BRANCH   2  19
HETATM   19  C   UNL     1       7.666  24.825  54.675  1.00  0.00     0.063 A 
HETATM   20  C   UNL     1       7.772  23.386  54.646  1.00  0.00     0.046 A 
HETATM   21  C   UNL     1       7.929  23.001  53.308  1.00  0.00     0.046 A 
HETATM   22  C   UNL     1       7.748  22.348  55.603  1.00  0.00     0.130 A 
HETATM   23  C   UNL     1       8.059  21.665  52.903  1.00  0.00     0.030 A 
HETATM   24  N   UNL     1       7.923  24.146  52.550  1.00  0.00    -0.364 N 
HETATM   25  C   UNL     1       8.028  20.674  53.887  1.00  0.00     0.005 A 
HETATM   26  C   UNL     1       7.874  21.009  55.227  1.00  0.00     0.043 A 
HETATM   27  H   UNL     1       8.018  24.171  51.543  1.00  0.00     0.165 HD
HETATM   28  C   UNL     1       7.763  25.235  53.352  1.00  0.00     0.106 A 
HETATM   29  F   UNL     1       7.607  22.626  56.908  1.00  0.00    -0.205 F 
ENDBRANCH   2  19
TORSDOF 4
ENDMDL
MODEL 4
REMARK VINA RESULT:      -9.2      4.800      7.237
REMARK  4 active torsions:
REMARK  status: ('A' for Active; 'I' for Inactive)
REMARK    1  A    between atoms: O_2  and  C_3 
REMARK    2  A    between atoms: C_3  and  C_4 
REMARK    3  A    between atoms: C_12  and  N_13 
REMARK       I    between atoms: N_13  and  C_14 
REMARK    4  A    between atoms: C_14  and  C_15 
ROOT
HETATM    1  N   UNL     1       5.810  25.585  53.507  1.00  0.00    -0.323 N 
HETATM    2  C   UNL     1       6.946  25.646  54.288  1.00  0.00     0.258 C 
HETATM    3  O   UNL     1       7.613  26.660  54.472  1.00  0.00    -0.267 OA
HETATM    4  H   UNL     1       5.335  24.692  53.467  1.00  0.00     0.169 HD
ENDROOT
BRANCH   1   5
HETATM    5  C   UNL     1       5.214  26.616  52.749  1.00  0.00     0.036 A 
HETATM    6  C   UNL     1       4.735  27.810  53.293  1.00  0.00     0.032 A 
HETATM    7  C   UNL     1       4.161  28.807  52.492  1.00  0.00     0.034 A 
HETATM    8  C   UNL     1       4.084  28.561  51.120  1.00  0.00     0.063 A 
HETATM    9  N   UNL     1       3.594  29.313  50.091  1.00  0.00    -0.277 N 
HETATM   10  C   UNL     1       4.542  27.389  50.534  1.00  0.00     0.031 A 
HETATM   11  N   UNL     1       3.691  28.730  48.886  1.00  0.00    -0.167 NA
HETATM   12  H   UNL     1       3.177  30.236  50.146  1.00  0.00     0.189 HD
HETATM   13  C   UNL     1       4.272  27.539  49.137  1.00  0.00     0.164 A 
HETATM   14  C   UNL     1       5.119  26.403  51.362  1.00  0.00     0.046 A 
BRANCH  13  15
HETATM   15  C   UNL     1       4.565  26.558  48.080  1.00  0.00     0.314 C 
HETATM   16  O   UNL     1       5.411  26.736  47.208  1.00  0.00    -0.257 OA
BRANCH  15  17
HETATM   17  O   UNL     1       3.799  25.426  48.169  1.00  0.00    -0.321 OA
HETATM   18  C   UNL     1       2.797  25.313  47.161  1.00  0.00     0.213 C 
ENDBRANCH  15  17
ENDBRANCH  13  15
ENDBRANCH   1   5
BRANCH   2  19
HETATM   19  C   UNL     1       7.338  24.384  54.939  1.00  0.00     0.063 A 
HETATM   20  C   UNL     1       7.690  23.082  54.426  1.00  0.00     0.046 A 
HETATM   21  C   UNL     1       7.989  22.262  55.522  1.00  0.00     0.046 A 
HETATM   22  C   UNL     1       7.799  22.492  53.148  1.00  0.00     0.130 A 
HETATM   23  C   UNL     1       8.381  20.922  55.395  1.00  0.00     0.030 A 
HETATM   24  N   UNL     1       7.827  23.020  56.656  1.00  0.00    -0.364 N 
HETATM   25  C   UNL     1       8.475  20.384  54.109  1.00  0.00     0.005 A 
HETATM   26  C   UNL     1       8.188  21.160  52.993  1.00  0.00     0.043 A 
HETATM   27  H   UNL     1       7.976  22.686  57.599  1.00  0.00     0.165 HD
HETATM   28  C   UNL     1       7.443  24.283  56.321  1.00  0.00     0.106 A 
HETATM   29  F   UNL     1       7.526  23.202  52.042  1.00  0.00    -0.205 F 
ENDBRANCH   2  19
TORSDOF 4
ENDMDL
MODEL 5
REMARK VINA RESULT:      -9.0      2.729      3.733
REMARK  4 active torsions:
REMARK  status: ('A' for Active; 'I' for Inactive)
REMARK    1  A    between atoms: O_2  and  C_3 
REMARK    2  A    between atoms: C_3  and  C_4 
REMARK    3  A    between atoms: C_12  and  N_13 
REMARK       I    between atoms: N_13  and  C_14 
REMARK    4  A    between atoms: C_14  and  C_15 
ROOT
HETATM    1  N   UNL     1       7.426  26.265  55.729  1.00  0.00    -0.323 N 
HETATM    2  C   UNL     1       6.970  24.999  56.035  1.00  0.00     0.258 C 
HETATM    3  O   UNL     1       6.363  24.704  57.060  1.00  0.00    -0.267 OA
HETATM    4  H   UNL     1       7.882  26.378  54.833  1.00  0.00     0.169 HD
ENDROOT
BRANCH   1   5
HETATM    5  C   UNL     1       7.335  27.438  56.509  1.00  0.00     0.036 A 
HETATM    6  C   UNL     1       8.333  27.878  57.381  1.00  0.00     0.032 A 
HETATM    7  C   UNL     1       8.195  29.057  58.126  1.00  0.00     0.034 A 
HETATM    8  C   UNL     1       7.014  29.782  57.964  1.00  0.00     0.063 A 
HETATM    9  N   UNL     1       6.581  30.947  58.529  1.00  0.00    -0.277 N 
HETATM   10  C   UNL     1       5.992  29.384  57.113  1.00  0.00     0.031 A 
HETATM   11  N   UNL     1       5.364  31.341  58.121  1.00  0.00    -0.167 NA
HETATM   12  H   UNL     1       7.071  31.525  59.203  1.00  0.00     0.189 HD
HETATM   13  C   UNL     1       4.980  30.387  57.247  1.00  0.00     0.164 A 
HETATM   14  C   UNL     1       6.157  28.194  56.372  1.00  0.00     0.046 A 
BRANCH  13  15
HETATM   15  C   UNL     1       3.682  30.419  56.554  1.00  0.00     0.314 C 
HETATM   16  O   UNL     1       2.603  30.439  57.140  1.00  0.00    -0.257 OA
BRANCH  15  17
HETATM   17  O   UNL     1       3.802  30.425  55.190  1.00  0.00    -0.321 OA
HETATM   18  C   UNL     1       4.234  31.668  54.642  1.00  0.00     0.213 C 
ENDBRANCH  15  17
ENDBRANCH  13  15
ENDBRANCH   1   5
BRANCH   2  19
HETATM   19  C   UNL     1       7.241  23.964  55.020  1.00  0.00     0.063 A 
HETATM   20  C   UNL     1       7.781  22.629  55.101  1.00  0.00     0.046 A 
HETATM   21  C   UNL     1       7.796  22.101  53.803  1.00  0.00     0.046 A 
HETATM   22  C   UNL     1       8.259  21.789  56.130  1.00  0.00     0.130 A 
HETATM   23  C   UNL     1       8.254  20.810  53.505  1.00  0.00     0.030 A 
HETATM   24  N   UNL     1       7.293  23.063  52.964  1.00  0.00    -0.364 N 
HETATM   25  C   UNL     1       8.717  20.016  54.557  1.00  0.00     0.005 A 
HETATM   26  C   UNL     1       8.721  20.499  55.860  1.00  0.00     0.043 A 
HETATM   27  H   UNL     1       7.185  22.958  51.963  1.00  0.00     0.165 HD
HETATM   28  C   UNL     1       6.956  24.174  53.677  1.00  0.00     0.106 A 
HETATM   29  F   UNL     1       8.286  22.216  57.402  1.00  0.00    -0.205 F 
ENDBRANCH   2  19
TORSDOF 4
ENDMDL
MODEL 6
REMARK VINA RESULT:      -8.9      4.888     10.262
REMARK  4 active torsions:
REMARK  status: ('A' for Active; 'I' for Inactive)
REMARK    1  A    between atoms: O_2  and  C_3 
REMARK    2  A    between atoms: C_3  and  C_4 
REMARK    3  A    between atoms: C_12  and  N_13 
REMARK       I    between atoms: N_13  and  C_14 
REMARK    4  A    between atoms: C_14  and  C_15 
ROOT
HETATM    1  N   UNL     1       7.091  32.024  60.700  1.00  0.00    -0.323 N 
HETATM    2  C   UNL     1       6.950  31.715  62.037  1.00  0.00     0.258 C 
HETATM    3  O   UNL     1       7.694  30.965  62.663  1.00  0.00    -0.267 OA
HETATM    4  H   UNL     1       6.427  32.684  60.314  1.00  0.00     0.169 HD
ENDROOT
BRANCH   1   5
HETATM    5  C   UNL     1       8.053  31.538  59.788  1.00  0.00     0.036 A 
HETATM    6  C   UNL     1       9.268  32.172  59.520  1.00  0.00     0.032 A 
HETATM    7  C   UNL     1      10.193  31.640  58.611  1.00  0.00     0.034 A 
HETATM    8  C   UNL     1       9.854  30.443  57.979  1.00  0.00     0.063 A 
HETATM    9  N   UNL     1      10.521  29.681  57.063  1.00  0.00    -0.277 N 
HETATM   10  C   UNL     1       8.657  29.778  58.209  1.00  0.00     0.031 A 
HETATM   11  N   UNL     1       9.861  28.578  56.676  1.00  0.00    -0.167 NA
HETATM   12  H   UNL     1      11.434  29.859  56.661  1.00  0.00     0.189 HD
HETATM   13  C   UNL     1       8.705  28.620  57.370  1.00  0.00     0.164 A 
HETATM   14  C   UNL     1       7.744  30.333  59.131  1.00  0.00     0.046 A 
BRANCH  13  15
HETATM   15  C   UNL     1       7.662  27.589  57.243  1.00  0.00     0.314 C 
HETATM   16  O   UNL     1       6.740  27.657  56.436  1.00  0.00    -0.257 OA
BRANCH  15  17
HETATM   17  O   UNL     1       7.828  26.547  58.116  1.00  0.00    -0.321 OA
HETATM   18  C   UNL     1       8.289  25.340  57.512  1.00  0.00     0.213 C 
ENDBRANCH  15  17
ENDBRANCH  13  15
ENDBRANCH   1   5
BRANCH   2  19
HETATM   19  C   UNL     1       5.821  32.367  62.724  1.00  0.00     0.063 A 
HETATM   20  C   UNL     1       5.713  33.087  63.970  1.00  0.00     0.046 A 
HETATM   21  C   UNL     1       4.381  33.499  64.106  1.00  0.00     0.046 A 
HETATM   22  C   UNL     1       6.596  33.451  65.011  1.00  0.00     0.130 A 
HETATM   23  C   UNL     1       3.913  34.235  65.204  1.00  0.00     0.030 A 
HETATM   24  N   UNL     1       3.700  33.053  63.001  1.00  0.00    -0.364 N 
HETATM   25  C   UNL     1       4.825  34.571  66.207  1.00  0.00     0.005 A 
HETATM   26  C   UNL     1       6.156  34.184  66.114  1.00  0.00     0.043 A 
HETATM   27  H   UNL     1       2.714  33.206  62.829  1.00  0.00     0.165 HD
HETATM   28  C   UNL     1       4.547  32.382  62.171  1.00  0.00     0.106 A 
HETATM   29  F   UNL     1       7.889  33.093  64.965  1.00  0.00    -0.205 F 
ENDBRANCH   2  19
TORSDOF 4
ENDMDL
MODEL 7
REMARK VINA RESULT:      -8.8      2.475      3.267
REMARK  4 active torsions:
REMARK  status: ('A' for Active; 'I' for Inactive)
REMARK    1  A    between atoms: O_2  and  C_3 
REMARK    2  A    between atoms: C_3  and  C_4 
REMARK    3  A    between atoms: C_12  and  N_13 
REMARK       I    between atoms: N_13  and  C_14 
REMARK    4  A    between atoms: C_14  and  C_15 
ROOT
HETATM    1  N   UNL     1       7.597  27.421  55.959  1.00  0.00    -0.323 N 
HETATM    2  C   UNL     1       7.165  26.161  56.317  1.00  0.00     0.258 C 
HETATM    3  O   UNL     1       6.885  25.817  57.462  1.00  0.00    -0.267 OA
HETATM    4  H   UNL     1       7.761  27.581  54.973  1.00  0.00     0.169 HD
ENDROOT
BRANCH   1   5
HETATM    5  C   UNL     1       7.841  28.531  56.796  1.00  0.00     0.036 A 
HETATM    6  C   UNL     1       9.093  28.855  57.322  1.00  0.00     0.032 A 
HETATM    7  C   UNL     1       9.281  29.977  58.142  1.00  0.00     0.034 A 
HETATM    8  C   UNL     1       8.162  30.765  58.416  1.00  0.00     0.063 A 
HETATM    9  N   UNL     1       8.013  31.899  59.160  1.00  0.00    -0.277 N 
HETATM   10  C   UNL     1       6.897  30.481  57.920  1.00  0.00     0.031 A 
HETATM   11  N   UNL     1       6.759  32.378  59.194  1.00  0.00    -0.167 NA
HETATM   12  H   UNL     1       8.731  32.399  59.673  1.00  0.00     0.189 HD
HETATM   13  C   UNL     1       6.052  31.514  58.436  1.00  0.00     0.164 A 
HETATM   14  C   UNL     1       6.735  29.348  57.094  1.00  0.00     0.046 A 
BRANCH  13  15
HETATM   15  C   UNL     1       4.606  31.659  58.204  1.00  0.00     0.314 C 
HETATM   16  O   UNL     1       4.005  31.082  57.302  1.00  0.00    -0.257 OA
BRANCH  15  17
HETATM   17  O   UNL     1       4.000  32.501  59.098  1.00  0.00    -0.321 OA
HETATM   18  C   UNL     1       3.297  31.839  60.147  1.00  0.00     0.213 C 
ENDBRANCH  15  17
ENDBRANCH  13  15
ENDBRANCH   1   5
BRANCH   2  19
HETATM   19  C   UNL     1       7.030  25.197  55.210  1.00  0.00     0.063 A 
HETATM   20  C   UNL     1       7.761  24.007  54.850  1.00  0.00     0.046 A 
HETATM   21  C   UNL     1       7.170  23.481  53.693  1.00  0.00     0.046 A 
HETATM   22  C   UNL     1       8.864  23.296  55.374  1.00  0.00     0.130 A 
HETATM   23  C   UNL     1       7.623  22.314  53.062  1.00  0.00     0.030 A 
HETATM   24  N   UNL     1       6.128  24.308  53.354  1.00  0.00    -0.364 N 
HETATM   25  C   UNL     1       8.716  21.646  53.619  1.00  0.00     0.005 A 
HETATM   26  C   UNL     1       9.334  22.131  54.765  1.00  0.00     0.043 A 
HETATM   27  H   UNL     1       5.519  24.173  52.558  1.00  0.00     0.165 HD
HETATM   28  C   UNL     1       6.033  25.330  54.251  1.00  0.00     0.106 A 
HETATM   29  F   UNL     1       9.494  23.731  56.476  1.00  0.00    -0.205 F 
ENDBRANCH   2  19
TORSDOF 4
ENDMDL
MODEL 8
REMARK VINA RESULT:      -8.7      4.462      7.255
REMARK  4 active torsions:
REMARK  status: ('A' for Active; 'I' for Inactive)
REMARK    1  A    between atoms: O_2  and  C_3 
REMARK    2  A    between atoms: C_3  and  C_4 
REMARK    3  A    between atoms: C_12  and  N_13 
REMARK       I    between atoms: N_13  and  C_14 
REMARK    4  A    between atoms: C_14  and  C_15 
ROOT
HETATM    1  N   UNL     1       7.458  31.069  60.640  1.00  0.00    -0.323 N 
HETATM    2  C   UNL     1       8.158  31.425  59.506  1.00  0.00     0.258 C 
HETATM    3  O   UNL     1       8.744  32.493  59.353  1.00  0.00    -0.267 OA
HETATM    4  H   UNL     1       7.049  30.143  60.648  1.00  0.00     0.169 HD
ENDROOT
BRANCH   1   5
HETATM    5  C   UNL     1       7.237  31.833  61.806  1.00  0.00     0.036 A 
HETATM    6  C   UNL     1       8.206  32.065  62.785  1.00  0.00     0.032 A 
HETATM    7  C   UNL     1       7.935  32.841  63.921  1.00  0.00     0.034 A 
HETATM    8  C   UNL     1       6.653  33.378  64.039  1.00  0.00     0.063 A 
HETATM    9  N   UNL     1       6.083  34.162  65.001  1.00  0.00    -0.277 N 
HETATM   10  C   UNL     1       5.656  33.173  63.095  1.00  0.00     0.031 A 
HETATM   11  N   UNL     1       4.802  34.482  64.767  1.00  0.00    -0.167 NA
HETATM   12  H   UNL     1       6.519  34.514  65.847  1.00  0.00     0.189 HD
HETATM   13  C   UNL     1       4.516  33.879  63.594  1.00  0.00     0.164 A 
HETATM   14  C   UNL     1       5.954  32.390  61.959  1.00  0.00     0.046 A 
BRANCH  13  15
HETATM   15  C   UNL     1       3.191  33.963  62.957  1.00  0.00     0.314 C 
HETATM   16  O   UNL     1       2.158  33.571  63.493  1.00  0.00    -0.257 OA
BRANCH  15  17
HETATM   17  O   UNL     1       3.230  34.524  61.709  1.00  0.00    -0.321 OA
HETATM   18  C   UNL     1       2.661  33.715  60.682  1.00  0.00     0.213 C 
ENDBRANCH  15  17
ENDBRANCH  13  15
ENDBRANCH   1   5
BRANCH   2  19
HETATM   19  C   UNL     1       8.189  30.413  58.434  1.00  0.00     0.063 A 
HETATM   20  C   UNL     1       7.158  29.803  57.631  1.00  0.00     0.046 A 
HETATM   21  C   UNL     1       7.781  28.909  56.751  1.00  0.00     0.046 A 
HETATM   22  C   UNL     1       5.752  29.906  57.535  1.00  0.00     0.130 A 
HETATM   23  C   UNL     1       7.080  28.140  55.811  1.00  0.00     0.030 A 
HETATM   24  N   UNL     1       9.130  28.963  57.001  1.00  0.00    -0.364 N 
HETATM   25  C   UNL     1       5.691  28.277  55.755  1.00  0.00     0.005 A 
HETATM   26  C   UNL     1       5.029  29.152  56.609  1.00  0.00     0.043 A 
HETATM   27  H   UNL     1       9.830  28.420  56.512  1.00  0.00     0.165 HD
HETATM   28  C   UNL     1       9.384  29.856  57.998  1.00  0.00     0.106 A 
HETATM   29  F   UNL     1       5.072  30.734  58.344  1.00  0.00    -0.205 F 
ENDBRANCH   2  19
TORSDOF 4
ENDMDL
MODEL 9
REMARK VINA RESULT:      -8.7      5.075      7.966
REMARK  4 active torsions:
REMARK  status: ('A' for Active; 'I' for Inactive)
REMARK    1  A    between atoms: O_2  and  C_3 
REMARK    2  A    between atoms: C_3  and  C_4 
REMARK    3  A    between atoms: C_12  and  N_13 
REMARK       I    between atoms: N_13  and  C_14 
REMARK    4  A    between atoms: C_14  and  C_15 
ROOT
HETATM    1  N   UNL     1       7.035  31.642  60.961  1.00  0.00    -0.323 N 
HETATM    2  C   UNL     1       7.849  31.955  59.891  1.00  0.00     0.258 C 
HETATM    3  O   UNL     1       8.650  32.886  59.871  1.00  0.00    -0.267 OA
HETATM    4  H   UNL     1       6.444  30.827  60.858  1.00  0.00     0.169 HD
ENDROOT
BRANCH   1   5
HETATM    5  C   UNL     1       6.919  32.316  62.196  1.00  0.00     0.036 A 
HETATM    6  C   UNL     1       7.949  32.412  63.135  1.00  0.00     0.032 A 
HETATM    7  C   UNL     1       7.782  33.103  64.343  1.00  0.00     0.034 A 
HETATM    8  C   UNL     1       6.541  33.696  64.577  1.00  0.00     0.063 A 
HETATM    9  N   UNL     1       6.068  34.425  65.630  1.00  0.00    -0.277 N 
HETATM   10  C   UNL     1       5.487  33.624  63.676  1.00  0.00     0.031 A 
HETATM   11  N   UNL     1       4.796  34.832  65.494  1.00  0.00    -0.167 NA
HETATM   12  H   UNL     1       6.566  34.680  66.475  1.00  0.00     0.189 HD
HETATM   13  C   UNL     1       4.416  34.345  64.294  1.00  0.00     0.164 A 
HETATM   14  C   UNL     1       5.681  32.926  62.465  1.00  0.00     0.046 A 
BRANCH  13  15
HETATM   15  C   UNL     1       3.068  34.554  63.741  1.00  0.00     0.314 C 
HETATM   16  O   UNL     1       2.138  33.772  63.917  1.00  0.00    -0.257 OA
BRANCH  15  17
HETATM   17  O   UNL     1       2.959  35.709  63.014  1.00  0.00    -0.321 OA
HETATM   18  C   UNL     1       2.806  35.508  61.610  1.00  0.00     0.213 C 
ENDBRANCH  15  17
ENDBRANCH  13  15
ENDBRANCH   1   5
BRANCH   2  19
HETATM   19  C   UNL     1       7.724  31.071  58.718  1.00  0.00     0.063 A 
HETATM   20  C   UNL     1       8.688  30.522  57.795  1.00  0.00     0.046 A 
HETATM   21  C   UNL     1       7.989  29.728  56.877  1.00  0.00     0.046 A 
HETATM   22  C   UNL     1      10.088  30.598  57.628  1.00  0.00     0.130 A 
HETATM   23  C   UNL     1       8.613  29.030  55.833  1.00  0.00     0.030 A 
HETATM   24  N   UNL     1       6.659  29.787  57.214  1.00  0.00    -0.364 N 
HETATM   25  C   UNL     1      10.001  29.135  55.709  1.00  0.00     0.005 A 
HETATM   26  C   UNL     1      10.735  29.912  56.598  1.00  0.00     0.043 A 
HETATM   27  H   UNL     1       5.917  29.306  56.722  1.00  0.00     0.165 HD
HETATM   28  C   UNL     1       6.491  30.579  58.310  1.00  0.00     0.106 A 
HETATM   29  F   UNL     1      10.836  31.340  58.459  1.00  0.00    -0.205 F 
ENDBRANCH   2  19
TORSDOF 4
ENDMDL
MODEL 10
REMARK VINA RESULT:      -8.6      4.947      7.636
REMARK  4 active torsions:
REMARK  status: ('A' for Active; 'I' for Inactive)
REMARK    1  A    between atoms: O_2  and  C_3 
REMARK    2  A    between atoms: C_3  and  C_4 
REMARK    3  A    between atoms: C_12  and  N_13 
REMARK       I    between atoms: N_13  and  C_14 
REMARK    4  A    between atoms: C_14  and  C_15 
ROOT
HETATM    1  N   UNL     1       6.655  25.892  51.571  1.00  0.00    -0.323 N 
HETATM    2  C   UNL     1       5.375  25.839  51.059  1.00  0.00     0.258 C 
HETATM    3  O   UNL     1       4.492  25.087  51.462  1.00  0.00    -0.267 OA
HETATM    4  H   UNL     1       7.276  26.583  51.169  1.00  0.00     0.169 HD
ENDROOT
BRANCH   1   5
HETATM    5  C   UNL     1       7.219  25.104  52.598  1.00  0.00     0.036 A 
HETATM    6  C   UNL     1       7.783  23.842  52.396  1.00  0.00     0.032 A 
HETATM    7  C   UNL     1       8.339  23.106  53.452  1.00  0.00     0.034 A 
HETATM    8  C   UNL     1       8.307  23.683  54.722  1.00  0.00     0.063 A 
HETATM    9  N   UNL     1       8.756  23.236  55.932  1.00  0.00    -0.277 N 
HETATM   10  C   UNL     1       7.754  24.931  54.973  1.00  0.00     0.031 A 
HETATM   11  N   UNL     1       8.540  24.085  56.949  1.00  0.00    -0.167 NA
HETATM   12  H   UNL     1       9.219  22.357  56.131  1.00  0.00     0.189 HD
HETATM   13  C   UNL     1       7.919  25.138  56.379  1.00  0.00     0.164 A 
HETATM   14  C   UNL     1       7.204  25.654  53.893  1.00  0.00     0.046 A 
BRANCH  13  15
HETATM   15  C   UNL     1       7.487  26.318  57.146  1.00  0.00     0.314 C 
HETATM   16  O   UNL     1       8.261  27.040  57.767  1.00  0.00    -0.257 OA
BRANCH  15  17
HETATM   17  O   UNL     1       6.135  26.527  57.094  1.00  0.00    -0.321 OA
HETATM   18  C   UNL     1       5.750  27.900  57.107  1.00  0.00     0.213 C 
ENDBRANCH  15  17
ENDBRANCH  13  15
ENDBRANCH   1   5
BRANCH   2  19
HETATM   19  C   UNL     1       5.091  26.780  49.961  1.00  0.00     0.063 A 
HETATM   20  C   UNL     1       5.197  28.214  49.846  1.00  0.00     0.046 A 
HETATM   21  C   UNL     1       4.799  28.564  48.549  1.00  0.00     0.046 A 
HETATM   22  C   UNL     1       5.593  29.273  50.692  1.00  0.00     0.130 A 
HETATM   23  C   UNL     1       4.783  29.886  48.081  1.00  0.00     0.030 A 
HETATM   24  N   UNL     1       4.461  27.404  47.897  1.00  0.00    -0.364 N 
HETATM   25  C   UNL     1       5.185  30.899  48.955  1.00  0.00     0.005 A 
HETATM   26  C   UNL     1       5.587  30.598  50.251  1.00  0.00     0.043 A 
HETATM   27  H   UNL     1       4.137  27.353  46.941  1.00  0.00     0.165 HD
HETATM   28  C   UNL     1       4.634  26.337  48.726  1.00  0.00     0.106 A 
HETATM   29  F   UNL     1       5.984  29.030  51.953  1.00  0.00    -0.205 F 
ENDBRANCH   2  19
TORSDOF 4
ENDMDL
