MODEL 1
REMARK VINA RESULT:      -9.1      0.000      0.000
REMARK  7 active torsions:
REMARK  status: ('A' for Active; 'I' for Inactive)
REMARK    1  A    between atoms: C_7  and  C_8 
REMARK    2  A    between atoms: C_8  and  C_9 
REMARK    3  A    between atoms: C_9  and  C_10 
REMARK    4  A    between atoms: C_10  and  O_11 
REMARK    5  A    between atoms: C_13  and  C_14 
REMARK    6  A    between atoms: C_21  and  C_22 
REMARK       I    between atoms: C_22  and  N_23 
REMARK    7  A    between atoms: N_23  and  C_24 
ROOT
HETATM    1  C   UNL     1      10.922  29.715  56.666  1.00  0.00     0.070 C 
HETATM    2  C   UNL     1       9.680  30.119  57.420  1.00  0.00     0.037 C 
HETATM    3  N   UNL     1       9.819  31.220  58.258  1.00  0.00    -0.192 N 
HETATM    4  C   UNL     1       8.891  31.571  59.169  1.00  0.00     0.726 A 
HETATM    5  N   UNL     1       7.686  30.924  59.189  1.00  0.00    -0.083 N 
HETATM    6  N   UNL     1       6.915  31.350  60.212  1.00  0.00    -0.140 NA
HETATM    7  C   UNL     1       7.709  32.285  60.752  1.00  0.00     0.166 A 
HETATM    8  N   UNL     1       8.928  32.450  60.137  1.00  0.00    -0.046 NA
HETATM    9  C   UNL     1       7.319  29.846  58.263  1.00  0.00     0.202 C 
HETATM   10  C   UNL     1       8.500  29.451  57.382  1.00  0.00     0.062 C 
HETATM   11  H   UNL     1      10.740  31.643  58.332  1.00  0.00     0.184 HD
ENDROOT
BRANCH  10  12
HETATM   12  C   UNL     1       8.259  28.223  56.581  1.00  0.00     0.256 C 
HETATM   13  N   UNL     1       8.196  27.075  57.341  1.00  0.00    -0.323 N 
HETATM   14  H   UNL     1       8.317  27.180  58.340  1.00  0.00     0.169 HD
HETATM   15  O   UNL     1       8.192  28.320  55.363  1.00  0.00    -0.267 OA
BRANCH  13  16
HETATM   16  C   UNL     1       7.979  25.759  56.882  1.00  0.00     0.035 A 
HETATM   17  C   UNL     1       6.938  25.394  56.026  1.00  0.00     0.031 A 
HETATM   18  C   UNL     1       6.786  24.063  55.619  1.00  0.00     0.026 A 
HETATM   19  C   UNL     1       7.672  23.092  56.075  1.00  0.00     0.034 A 
HETATM   20 CL   UNL     1       7.479  21.455  55.581  1.00  0.00    -0.084 Cl
HETATM   21  C   UNL     1       8.713  23.440  56.928  1.00  0.00     0.026 A 
HETATM   22  C   UNL     1       8.868  24.772  57.327  1.00  0.00     0.031 A 
ENDBRANCH  13  16
ENDBRANCH  10  12
BRANCH   9  23
HETATM   23  C   UNL     1       6.098  30.243  57.436  1.00  0.00    -0.025 A 
HETATM   24  C   UNL     1       6.080  31.489  56.784  1.00  0.00     0.052 A 
HETATM   25  C   UNL     1       4.966  31.873  56.044  1.00  0.00     0.117 A 
HETATM   26  F   UNL     1       4.965  33.061  55.425  1.00  0.00    -0.206 F 
HETATM   27  C   UNL     1       3.854  31.047  55.939  1.00  0.00     0.042 A 
HETATM   28  C   UNL     1       3.852  29.814  56.585  1.00  0.00     0.004 A 
HETATM   29  C   UNL     1       4.965  29.414  57.332  1.00  0.00     0.010 A 
ENDBRANCH   9  23
BRANCH   7  30
HETATM   30  C   UNL     1       7.308  33.083  61.939  1.00  0.00     0.085 C 
BRANCH  30  31
HETATM   31  C   UNL     1       6.864  32.228  63.122  1.00  0.00     0.034 C 
BRANCH  31  32
HETATM   32  C   UNL     1       5.348  32.155  63.267  1.00  0.00     0.164 C 
BRANCH  32  33
HETATM   33  O   UNL     1       4.930  30.795  63.241  1.00  0.00    -0.401 OA
HETATM   34  H   UNL     1       4.985  30.453  64.150  1.00  0.00     0.209 HD
ENDBRANCH  32  33
ENDBRANCH  31  32
ENDBRANCH  30  31
ENDBRANCH   7  30
TORSDOF 7
ENDMDL
MODEL 2
REMARK VINA RESULT:      -8.6      4.247      5.823
REMARK  7 active torsions:
REMARK  status: ('A' for Active; 'I' for Inactive)
REMARK    1  A    between atoms: C_7  and  C_8 
REMARK    2  A    between atoms: C_8  and  C_9 
REMARK    3  A    between atoms: C_9  and  C_10 
REMARK    4  A    between atoms: C_10  and  O_11 
REMARK    5  A    between atoms: C_13  and  C_14 
REMARK    6  A    between atoms: C_21  and  C_22 
REMARK       I    between atoms: C_22  and  N_23 
REMARK    7  A    between atoms: N_23  and  C_24 
ROOT
HETATM    1  C   UNL     1       3.158  30.972  55.646  1.00  0.00     0.070 C 
HETATM    2  C   UNL     1       4.459  30.341  56.078  1.00  0.00     0.037 C 
HETATM    3  N   UNL     1       4.975  30.800  57.285  1.00  0.00    -0.192 N 
HETATM    4  C   UNL     1       6.226  30.520  57.702  1.00  0.00     0.726 A 
HETATM    5  N   UNL     1       6.987  29.627  57.000  1.00  0.00    -0.083 N 
HETATM    6  N   UNL     1       8.231  29.529  57.514  1.00  0.00    -0.140 NA
HETATM    7  C   UNL     1       8.141  30.372  58.553  1.00  0.00     0.166 A 
HETATM    8  N   UNL     1       6.923  30.996  58.701  1.00  0.00    -0.046 NA
HETATM    9  C   UNL     1       6.528  28.929  55.793  1.00  0.00     0.202 C 
HETATM   10  C   UNL     1       5.160  29.437  55.350  1.00  0.00     0.062 C 
HETATM   11  H   UNL     1       4.471  31.542  57.763  1.00  0.00     0.184 HD
ENDROOT
BRANCH  10  12
HETATM   12  C   UNL     1       4.741  28.931  54.017  1.00  0.00     0.256 C 
HETATM   13  N   UNL     1       5.613  29.267  53.004  1.00  0.00    -0.323 N 
HETATM   14  H   UNL     1       6.427  29.809  53.261  1.00  0.00     0.169 HD
HETATM   15  O   UNL     1       3.679  28.330  53.924  1.00  0.00    -0.267 OA
BRANCH  13  16
HETATM   16  C   UNL     1       5.500  28.936  51.638  1.00  0.00     0.035 A 
HETATM   17  C   UNL     1       5.528  29.875  50.603  1.00  0.00     0.031 A 
HETATM   18  C   UNL     1       5.405  29.467  49.270  1.00  0.00     0.026 A 
HETATM   19  C   UNL     1       5.245  28.118  48.968  1.00  0.00     0.034 A 
HETATM   20 CL   UNL     1       5.085  27.619  47.329  1.00  0.00    -0.084 Cl
HETATM   21  C   UNL     1       5.215  27.172  49.987  1.00  0.00     0.026 A 
HETATM   22  C   UNL     1       5.347  27.580  51.318  1.00  0.00     0.031 A 
ENDBRANCH  13  16
ENDBRANCH  10  12
BRANCH   9  23
HETATM   23  C   UNL     1       6.531  27.417  56.015  1.00  0.00    -0.025 A 
HETATM   24  C   UNL     1       7.418  26.613  55.279  1.00  0.00     0.052 A 
HETATM   25  C   UNL     1       7.417  25.233  55.454  1.00  0.00     0.117 A 
HETATM   26  F   UNL     1       8.272  24.479  54.750  1.00  0.00    -0.206 F 
HETATM   27  C   UNL     1       6.544  24.623  56.346  1.00  0.00     0.042 A 
HETATM   28  C   UNL     1       5.653  25.405  57.076  1.00  0.00     0.004 A 
HETATM   29  C   UNL     1       5.643  26.793  56.910  1.00  0.00     0.010 A 
ENDBRANCH   9  23
BRANCH   7  30
HETATM   30  C   UNL     1       9.276  30.625  59.476  1.00  0.00     0.085 C 
BRANCH  30  31
HETATM   31  C   UNL     1       9.027  31.784  60.438  1.00  0.00     0.034 C 
BRANCH  31  32
HETATM   32  C   UNL     1       8.691  31.322  61.851  1.00  0.00     0.164 C 
BRANCH  32  33
HETATM   33  O   UNL     1       7.363  30.812  61.883  1.00  0.00    -0.401 OA
HETATM   34  H   UNL     1       7.315  30.077  61.249  1.00  0.00     0.209 HD
ENDBRANCH  32  33
ENDBRANCH  31  32
ENDBRANCH  30  31
ENDBRANCH   7  30
TORSDOF 7
ENDMDL
MODEL 3
REMARK VINA RESULT:      -8.6      3.801      8.070
REMARK  7 active torsions:
REMARK  status: ('A' for Active; 'I' for Inactive)
REMARK    1  A    between atoms: C_7  and  C_8 
REMARK    2  A    between atoms: C_8  and  C_9 
REMARK    3  A    between atoms: C_9  and  C_10 
REMARK    4  A    between atoms: C_10  and  O_11 
REMARK    5  A    between atoms: C_13  and  C_14 
REMARK    6  A    between atoms: C_21  and  C_22 
REMARK       I    between atoms: C_22  and  N_23 
REMARK    7  A    between atoms: N_23  and  C_24 
ROOT
HETATM    1  C   UNL     1       3.552  31.314  56.197  1.00  0.00     0.070 C 
HETATM    2  C   UNL     1       4.590  30.267  56.517  1.00  0.00     0.037 C 
HETATM    3  N   UNL     1       4.435  29.049  55.863  1.00  0.00    -0.192 N 
HETATM    4  C   UNL     1       5.124  27.942  56.201  1.00  0.00     0.726 A 
HETATM    5  N   UNL     1       6.131  28.028  57.122  1.00  0.00    -0.083 N 
HETATM    6  N   UNL     1       6.655  26.814  57.394  1.00  0.00    -0.140 NA
HETATM    7  C   UNL     1       5.934  26.039  56.572  1.00  0.00     0.166 A 
HETATM    8  N   UNL     1       4.987  26.698  55.821  1.00  0.00    -0.046 NA
HETATM    9  C   UNL     1       6.529  29.274  57.787  1.00  0.00     0.202 C 
HETATM   10  C   UNL     1       5.586  30.417  57.426  1.00  0.00     0.062 C 
HETATM   11  H   UNL     1       3.627  28.939  55.257  1.00  0.00     0.184 HD
ENDROOT
BRANCH  10  12
HETATM   12  C   UNL     1       5.803  31.645  58.234  1.00  0.00     0.256 C 
HETATM   13  N   UNL     1       5.610  31.453  59.585  1.00  0.00    -0.323 N 
HETATM   14  H   UNL     1       5.347  30.523  59.883  1.00  0.00     0.169 HD
HETATM   15  O   UNL     1       6.071  32.689  57.655  1.00  0.00    -0.267 OA
BRANCH  13  16
HETATM   16  C   UNL     1       5.739  32.414  60.610  1.00  0.00     0.035 A 
HETATM   17  C   UNL     1       6.875  32.550  61.412  1.00  0.00     0.031 A 
HETATM   18  C   UNL     1       6.924  33.527  62.414  1.00  0.00     0.026 A 
HETATM   19  C   UNL     1       5.834  34.367  62.620  1.00  0.00     0.034 A 
HETATM   20 CL   UNL     1       5.893  35.560  63.857  1.00  0.00    -0.084 Cl
HETATM   21  C   UNL     1       4.696  34.243  61.829  1.00  0.00     0.026 A 
HETATM   22  C   UNL     1       4.652  33.272  60.824  1.00  0.00     0.031 A 
ENDBRANCH  13  16
ENDBRANCH  10  12
BRANCH   9  23
HETATM   23  C   UNL     1       7.984  29.612  57.465  1.00  0.00    -0.025 A 
HETATM   24  C   UNL     1       8.468  29.410  56.161  1.00  0.00     0.052 A 
HETATM   25  C   UNL     1       9.796  29.693  55.858  1.00  0.00     0.117 A 
HETATM   26  F   UNL     1      10.242  29.499  54.609  1.00  0.00    -0.206 F 
HETATM   27  C   UNL     1      10.668  30.171  56.828  1.00  0.00     0.042 A 
HETATM   28  C   UNL     1      10.206  30.368  58.127  1.00  0.00     0.004 A 
HETATM   29  C   UNL     1       8.874  30.088  58.446  1.00  0.00     0.010 A 
ENDBRANCH   9  23
BRANCH   7  30
HETATM   30  C   UNL     1       6.134  24.571  56.479  1.00  0.00     0.085 C 
BRANCH  30  31
HETATM   31  C   UNL     1       7.505  24.180  55.933  1.00  0.00     0.034 C 
BRANCH  31  32
HETATM   32  C   UNL     1       8.399  23.529  56.983  1.00  0.00     0.164 C 
BRANCH  32  33
HETATM   33  O   UNL     1       8.625  24.442  58.051  1.00  0.00    -0.401 OA
HETATM   34  H   UNL     1       9.574  24.417  58.263  1.00  0.00     0.209 HD
ENDBRANCH  32  33
ENDBRANCH  31  32
ENDBRANCH  30  31
ENDBRANCH   7  30
TORSDOF 7
ENDMDL
MODEL 4
REMARK VINA RESULT:      -8.4      4.028      5.327
REMARK  7 active torsions:
REMARK  status: ('A' for Active; 'I' for Inactive)
REMARK    1  A    between atoms: C_7  and  C_8 
REMARK    2  A    between atoms: C_8  and  C_9 
REMARK    3  A    between atoms: C_9  and  C_10 
REMARK    4  A    between atoms: C_10  and  O_11 
REMARK    5  A    between atoms: C_13  and  C_14 
REMARK    6  A    between atoms: C_21  and  C_22 
REMARK       I    between atoms: C_22  and  N_23 
REMARK    7  A    between atoms: N_23  and  C_24 
ROOT
HETATM    1  C   UNL     1       8.359  27.809  57.248  1.00  0.00     0.070 C 
HETATM    2  C   UNL     1       7.168  28.246  56.432  1.00  0.00     0.037 C 
HETATM    3  N   UNL     1       6.880  29.606  56.473  1.00  0.00    -0.192 N 
HETATM    4  C   UNL     1       5.732  30.127  55.999  1.00  0.00     0.726 A 
HETATM    5  N   UNL     1       4.863  29.328  55.307  1.00  0.00    -0.083 N 
HETATM    6  N   UNL     1       3.737  29.995  54.977  1.00  0.00    -0.140 NA
HETATM    7  C   UNL     1       4.009  31.210  55.476  1.00  0.00     0.166 A 
HETATM    8  N   UNL     1       5.226  31.328  56.107  1.00  0.00    -0.046 NA
HETATM    9  C   UNL     1       5.097  27.906  55.034  1.00  0.00     0.202 C 
HETATM   10  C   UNL     1       6.354  27.409  55.742  1.00  0.00     0.062 C 
HETATM   11  H   UNL     1       7.456  30.192  57.071  1.00  0.00     0.184 HD
ENDROOT
BRANCH  10  12
HETATM   12  C   UNL     1       6.524  25.933  55.686  1.00  0.00     0.256 C 
HETATM   13  N   UNL     1       7.496  25.527  54.798  1.00  0.00    -0.323 N 
HETATM   14  H   UNL     1       7.984  26.252  54.288  1.00  0.00     0.169 HD
HETATM   15  O   UNL     1       5.784  25.231  56.362  1.00  0.00    -0.267 OA
BRANCH  13  16
HETATM   16  C   UNL     1       7.895  24.204  54.518  1.00  0.00     0.035 A 
HETATM   17  C   UNL     1       8.709  23.440  55.359  1.00  0.00     0.031 A 
HETATM   18  C   UNL     1       9.066  22.133  55.007  1.00  0.00     0.026 A 
HETATM   19  C   UNL     1       8.615  21.588  53.808  1.00  0.00     0.034 A 
HETATM   20 CL   UNL     1       9.062  19.985  53.373  1.00  0.00    -0.084 Cl
HETATM   21  C   UNL     1       7.805  22.336  52.961  1.00  0.00     0.026 A 
HETATM   22  C   UNL     1       7.442  23.639  53.318  1.00  0.00     0.031 A 
ENDBRANCH  13  16
ENDBRANCH  10  12
BRANCH   9  23
HETATM   23  C   UNL     1       5.152  27.650  53.529  1.00  0.00    -0.025 A 
HETATM   24  C   UNL     1       4.811  26.381  53.030  1.00  0.00     0.052 A 
HETATM   25  C   UNL     1       4.876  26.128  51.664  1.00  0.00     0.117 A 
HETATM   26  F   UNL     1       4.544  24.915  51.202  1.00  0.00    -0.206 F 
HETATM   27  C   UNL     1       5.282  27.111  50.770  1.00  0.00     0.042 A 
HETATM   28  C   UNL     1       5.632  28.371  51.249  1.00  0.00     0.004 A 
HETATM   29  C   UNL     1       5.571  28.640  52.620  1.00  0.00     0.010 A 
ENDBRANCH   9  23
BRANCH   7  30
HETATM   30  C   UNL     1       3.062  32.349  55.364  1.00  0.00     0.085 C 
BRANCH  30  31
HETATM   31  C   UNL     1       3.168  33.339  56.521  1.00  0.00     0.034 C 
BRANCH  31  32
HETATM   32  C   UNL     1       3.972  34.585  56.164  1.00  0.00     0.164 C 
BRANCH  32  33
HETATM   33  O   UNL     1       5.303  34.449  56.648  1.00  0.00    -0.401 OA
HETATM   34  H   UNL     1       5.766  33.825  56.063  1.00  0.00     0.209 HD
ENDBRANCH  32  33
ENDBRANCH  31  32
ENDBRANCH  30  31
ENDBRANCH   7  30
TORSDOF 7
ENDMDL
MODEL 5
REMARK VINA RESULT:      -8.3      3.604      5.921
REMARK  7 active torsions:
REMARK  status: ('A' for Active; 'I' for Inactive)
REMARK    1  A    between atoms: C_7  and  C_8 
REMARK    2  A    between atoms: C_8  and  C_9 
REMARK    3  A    between atoms: C_9  and  C_10 
REMARK    4  A    between atoms: C_10  and  O_11 
REMARK    5  A    between atoms: C_13  and  C_14 
REMARK    6  A    between atoms: C_21  and  C_22 
REMARK       I    between atoms: C_22  and  N_23 
REMARK    7  A    between atoms: N_23  and  C_24 
ROOT
HETATM    1  C   UNL     1       2.684  31.215  59.932  1.00  0.00     0.070 C 
HETATM    2  C   UNL     1       3.735  31.965  60.712  1.00  0.00     0.037 C 
HETATM    3  N   UNL     1       3.358  32.374  61.987  1.00  0.00    -0.192 N 
HETATM    4  C   UNL     1       4.078  33.244  62.721  1.00  0.00     0.726 A 
HETATM    5  N   UNL     1       5.311  33.640  62.281  1.00  0.00    -0.083 N 
HETATM    6  N   UNL     1       5.851  34.568  63.099  1.00  0.00    -0.140 NA
HETATM    7  C   UNL     1       4.898  34.661  64.037  1.00  0.00     0.166 A 
HETATM    8  N   UNL     1       3.796  33.861  63.840  1.00  0.00    -0.046 NA
HETATM    9  C   UNL     1       5.925  33.172  61.033  1.00  0.00     0.202 C 
HETATM   10  C   UNL     1       4.955  32.310  60.231  1.00  0.00     0.062 C 
HETATM   11  H   UNL     1       2.405  32.178  62.283  1.00  0.00     0.184 HD
ENDROOT
BRANCH  10  12
HETATM   12  C   UNL     1       5.437  31.989  58.862  1.00  0.00     0.256 C 
HETATM   13  N   UNL     1       5.746  30.658  58.688  1.00  0.00    -0.323 N 
HETATM   14  H   UNL     1       5.618  30.049  59.486  1.00  0.00     0.169 HD
HETATM   15  O   UNL     1       5.564  32.901  58.057  1.00  0.00    -0.267 OA
BRANCH  13  16
HETATM   16  C   UNL     1       6.223  30.040  57.513  1.00  0.00     0.035 A 
HETATM   17  C   UNL     1       5.408  29.666  56.442  1.00  0.00     0.031 A 
HETATM   18  C   UNL     1       5.958  29.052  55.311  1.00  0.00     0.026 A 
HETATM   19  C   UNL     1       7.326  28.804  55.251  1.00  0.00     0.034 A 
HETATM   20 CL   UNL     1       7.999  28.041  53.864  1.00  0.00    -0.084 Cl
HETATM   21  C   UNL     1       8.150  29.170  56.309  1.00  0.00     0.026 A 
HETATM   22  C   UNL     1       7.600  29.791  57.435  1.00  0.00     0.031 A 
ENDBRANCH  13  16
ENDBRANCH  10  12
BRANCH   9  23
HETATM   23  C   UNL     1       7.235  32.440  61.322  1.00  0.00    -0.025 A 
HETATM   24  C   UNL     1       8.346  32.656  60.489  1.00  0.00     0.052 A 
HETATM   25  C   UNL     1       9.538  31.981  60.727  1.00  0.00     0.117 A 
HETATM   26  F   UNL     1      10.591  32.200  59.927  1.00  0.00    -0.206 F 
HETATM   27  C   UNL     1       9.656  31.081  61.779  1.00  0.00     0.042 A 
HETATM   28  C   UNL     1       8.562  30.849  62.608  1.00  0.00     0.004 A 
HETATM   29  C   UNL     1       7.357  31.521  62.381  1.00  0.00     0.010 A 
ENDBRANCH   9  23
BRANCH   7  30
HETATM   30  C   UNL     1       5.015  35.570  65.206  1.00  0.00     0.085 C 
BRANCH  30  31
HETATM   31  C   UNL     1       4.119  35.171  66.375  1.00  0.00     0.034 C 
BRANCH  31  32
HETATM   32  C   UNL     1       4.890  34.525  67.520  1.00  0.00     0.164 C 
BRANCH  32  33
HETATM   33  O   UNL     1       6.226  35.013  67.533  1.00  0.00    -0.401 OA
HETATM   34  H   UNL     1       6.349  35.513  68.358  1.00  0.00     0.209 HD
ENDBRANCH  32  33
ENDBRANCH  31  32
ENDBRANCH  30  31
ENDBRANCH   7  30
TORSDOF 7
ENDMDL
MODEL 6
REMARK VINA RESULT:      -8.3      4.364      8.261
REMARK  7 active torsions:
REMARK  status: ('A' for Active; 'I' for Inactive)
REMARK    1  A    between atoms: C_7  and  C_8 
REMARK    2  A    between atoms: C_8  and  C_9 
REMARK    3  A    between atoms: C_9  and  C_10 
REMARK    4  A    between atoms: C_10  and  O_11 
REMARK    5  A    between atoms: C_13  and  C_14 
REMARK    6  A    between atoms: C_21  and  C_22 
REMARK       I    between atoms: C_22  and  N_23 
REMARK    7  A    between atoms: N_23  and  C_24 
ROOT
HETATM    1  C   UNL     1       4.351  29.093  52.641  1.00  0.00     0.070 C 
HETATM    2  C   UNL     1       5.292  28.323  53.534  1.00  0.00     0.037 C 
HETATM    3  N   UNL     1       5.949  27.254  52.934  1.00  0.00    -0.192 N 
HETATM    4  C   UNL     1       6.637  26.330  53.631  1.00  0.00     0.726 A 
HETATM    5  N   UNL     1       6.839  26.509  54.972  1.00  0.00    -0.083 N 
HETATM    6  N   UNL     1       7.476  25.452  55.519  1.00  0.00    -0.140 NA
HETATM    7  C   UNL     1       7.658  24.681  54.438  1.00  0.00     0.166 A 
HETATM    8  N   UNL     1       7.159  25.189  53.261  1.00  0.00    -0.046 NA
HETATM    9  C   UNL     1       6.350  27.668  55.727  1.00  0.00     0.202 C 
HETATM   10  C   UNL     1       5.472  28.562  54.857  1.00  0.00     0.062 C 
HETATM   11  H   UNL     1       5.724  27.047  51.964  1.00  0.00     0.184 HD
ENDROOT
BRANCH  10  12
HETATM   12  C   UNL     1       4.770  29.628  55.619  1.00  0.00     0.256 C 
HETATM   13  N   UNL     1       5.415  30.845  55.578  1.00  0.00    -0.323 N 
HETATM   14  H   UNL     1       6.276  30.890  55.049  1.00  0.00     0.169 HD
HETATM   15  O   UNL     1       3.754  29.338  56.234  1.00  0.00    -0.267 OA
BRANCH  13  16
HETATM   16  C   UNL     1       5.006  32.047  56.193  1.00  0.00     0.035 A 
HETATM   17  C   UNL     1       4.301  33.058  55.536  1.00  0.00     0.031 A 
HETATM   18  C   UNL     1       3.935  34.226  56.216  1.00  0.00     0.026 A 
HETATM   19  C   UNL     1       4.282  34.389  57.554  1.00  0.00     0.034 A 
HETATM   20 CL   UNL     1       3.840  35.828  58.386  1.00  0.00    -0.084 Cl
HETATM   21  C   UNL     1       4.985  33.391  58.220  1.00  0.00     0.026 A 
HETATM   22  C   UNL     1       5.342  32.221  57.542  1.00  0.00     0.031 A 
ENDBRANCH  13  16
ENDBRANCH  10  12
BRANCH   9  23
HETATM   23  C   UNL     1       7.517  28.439  56.341  1.00  0.00    -0.025 A 
HETATM   24  C   UNL     1       7.479  28.781  57.704  1.00  0.00     0.052 A 
HETATM   25  C   UNL     1       8.525  29.501  58.272  1.00  0.00     0.117 A 
HETATM   26  F   UNL     1       8.477  29.816  59.574  1.00  0.00    -0.206 F 
HETATM   27  C   UNL     1       9.618  29.901  57.513  1.00  0.00     0.042 A 
HETATM   28  C   UNL     1       9.667  29.577  56.160  1.00  0.00     0.004 A 
HETATM   29  C   UNL     1       8.622  28.854  55.575  1.00  0.00     0.010 A 
ENDBRANCH   9  23
BRANCH   7  30
HETATM   30  C   UNL     1       8.343  23.365  54.503  1.00  0.00     0.085 C 
BRANCH  30  31
HETATM   31  C   UNL     1       7.629  22.354  55.396  1.00  0.00     0.034 C 
BRANCH  31  32
HETATM   32  C   UNL     1       8.380  22.071  56.692  1.00  0.00     0.164 C 
BRANCH  32  33
HETATM   33  O   UNL     1       8.296  23.204  57.549  1.00  0.00    -0.401 OA
HETATM   34  H   UNL     1       7.845  22.923  58.364  1.00  0.00     0.209 HD
ENDBRANCH  32  33
ENDBRANCH  31  32
ENDBRANCH  30  31
ENDBRANCH   7  30
TORSDOF 7
ENDMDL
MODEL 7
REMARK VINA RESULT:      -8.2      3.417      4.968
REMARK  7 active torsions:
REMARK  status: ('A' for Active; 'I' for Inactive)
REMARK    1  A    between atoms: C_7  and  C_8 
REMARK    2  A    between atoms: C_8  and  C_9 
REMARK    3  A    between atoms: C_9  and  C_10 
REMARK    4  A    between atoms: C_10  and  O_11 
REMARK    5  A    between atoms: C_13  and  C_14 
REMARK    6  A    between atoms: C_21  and  C_22 
REMARK       I    between atoms: C_22  and  N_23 
REMARK    7  A    between atoms: N_23  and  C_24 
ROOT
HETATM    1  C   UNL     1       4.564  25.801  57.476  1.00  0.00     0.070 C 
HETATM    2  C   UNL     1       5.100  27.118  56.972  1.00  0.00     0.037 C 
HETATM    3  N   UNL     1       4.295  28.226  57.215  1.00  0.00    -0.192 N 
HETATM    4  C   UNL     1       4.504  29.426  56.639  1.00  0.00     0.726 A 
HETATM    5  N   UNL     1       5.635  29.631  55.898  1.00  0.00    -0.083 N 
HETATM    6  N   UNL     1       5.639  30.858  55.336  1.00  0.00    -0.140 NA
HETATM    7  C   UNL     1       4.488  31.355  55.810  1.00  0.00     0.166 A 
HETATM    8  N   UNL     1       3.766  30.506  56.616  1.00  0.00    -0.046 NA
HETATM    9  C   UNL     1       6.668  28.612  55.679  1.00  0.00     0.202 C 
HETATM   10  C   UNL     1       6.246  27.266  56.261  1.00  0.00     0.062 C 
HETATM   11  H   UNL     1       3.401  28.068  57.671  1.00  0.00     0.184 HD
ENDROOT
BRANCH  10  12
HETATM   12  C   UNL     1       7.146  26.146  55.881  1.00  0.00     0.256 C 
HETATM   13  N   UNL     1       6.567  25.249  55.010  1.00  0.00    -0.323 N 
HETATM   14  H   UNL     1       5.615  25.436  54.724  1.00  0.00     0.169 HD
HETATM   15  O   UNL     1       8.257  26.087  56.390  1.00  0.00    -0.267 OA
BRANCH  13  16
HETATM   16  C   UNL     1       7.156  24.089  54.465  1.00  0.00     0.035 A 
HETATM   17  C   UNL     1       7.587  23.982  53.140  1.00  0.00     0.031 A 
HETATM   18  C   UNL     1       8.158  22.793  52.673  1.00  0.00     0.026 A 
HETATM   19  C   UNL     1       8.293  21.703  53.528  1.00  0.00     0.034 A 
HETATM   20 CL   UNL     1       8.987  20.239  52.949  1.00  0.00    -0.084 Cl
HETATM   21  C   UNL     1       7.868  21.795  54.849  1.00  0.00     0.026 A 
HETATM   22  C   UNL     1       7.305  22.986  55.316  1.00  0.00     0.031 A 
ENDBRANCH  13  16
ENDBRANCH  10  12
BRANCH   9  23
HETATM   23  C   UNL     1       8.009  29.080  56.241  1.00  0.00    -0.025 A 
HETATM   24  C   UNL     1       8.109  29.420  57.601  1.00  0.00     0.052 A 
HETATM   25  C   UNL     1       9.319  29.868  58.122  1.00  0.00     0.117 A 
HETATM   26  F   UNL     1       9.400  30.184  59.421  1.00  0.00    -0.206 F 
HETATM   27  C   UNL     1      10.444  29.996  57.316  1.00  0.00     0.042 A 
HETATM   28  C   UNL     1      10.360  29.672  55.965  1.00  0.00     0.004 A 
HETATM   29  C   UNL     1       9.150  29.220  55.428  1.00  0.00     0.010 A 
ENDBRANCH   9  23
BRANCH   7  30
HETATM   30  C   UNL     1       4.016  32.725  55.483  1.00  0.00     0.085 C 
BRANCH  30  31
HETATM   31  C   UNL     1       4.370  33.758  56.549  1.00  0.00     0.034 C 
BRANCH  31  32
HETATM   32  C   UNL     1       3.208  34.068  57.485  1.00  0.00     0.164 C 
BRANCH  32  33
HETATM   33  O   UNL     1       3.072  33.023  58.441  1.00  0.00    -0.401 OA
HETATM   34  H   UNL     1       2.855  33.433  59.296  1.00  0.00     0.209 HD
ENDBRANCH  32  33
ENDBRANCH  31  32
ENDBRANCH  30  31
ENDBRANCH   7  30
TORSDOF 7
ENDMDL
MODEL 8
REMARK VINA RESULT:      -8.1      5.358      8.896
REMARK  7 active torsions:
REMARK  status: ('A' for Active; 'I' for Inactive)
REMARK    1  A    between atoms: C_7  and  C_8 
REMARK    2  A    between atoms: C_8  and  C_9 
REMARK    3  A    between atoms: C_9  and  C_10 
REMARK    4  A    between atoms: C_10  and  O_11 
REMARK    5  A    between atoms: C_13  and  C_14 
REMARK    6  A    between atoms: C_21  and  C_22 
REMARK       I    between atoms: C_22  and  N_23 
REMARK    7  A    between atoms: N_23  and  C_24 
ROOT
HETATM    1  C   UNL     1       5.118  27.156  50.261  1.00  0.00     0.070 C 
HETATM    2  C   UNL     1       5.752  26.651  51.533  1.00  0.00     0.037 C 
HETATM    3  N   UNL     1       6.679  25.626  51.375  1.00  0.00    -0.192 N 
HETATM    4  C   UNL     1       7.161  24.907  52.407  1.00  0.00     0.726 A 
HETATM    5  N   UNL     1       6.860  25.280  53.688  1.00  0.00    -0.083 N 
HETATM    6  N   UNL     1       7.361  24.406  54.586  1.00  0.00    -0.140 NA
HETATM    7  C   UNL     1       7.986  23.542  53.774  1.00  0.00     0.166 A 
HETATM    8  N   UNL     1       7.888  23.820  52.430  1.00  0.00    -0.046 NA
HETATM    9  C   UNL     1       6.027  26.439  54.030  1.00  0.00     0.202 C 
HETATM   10  C   UNL     1       5.430  27.077  52.780  1.00  0.00     0.062 C 
HETATM   11  H   UNL     1       6.830  25.268  50.436  1.00  0.00     0.184 HD
ENDROOT
BRANCH  10  12
HETATM   12  C   UNL     1       4.407  28.114  53.072  1.00  0.00     0.256 C 
HETATM   13  N   UNL     1       4.922  29.390  53.140  1.00  0.00    -0.323 N 
HETATM   14  H   UNL     1       5.918  29.491  52.989  1.00  0.00     0.169 HD
HETATM   15  O   UNL     1       3.253  27.759  53.272  1.00  0.00    -0.267 OA
BRANCH  13  16
HETATM   16  C   UNL     1       4.215  30.583  53.397  1.00  0.00     0.035 A 
HETATM   17  C   UNL     1       3.457  31.261  52.440  1.00  0.00     0.031 A 
HETATM   18  C   UNL     1       2.787  32.445  52.773  1.00  0.00     0.026 A 
HETATM   19  C   UNL     1       2.880  32.957  54.063  1.00  0.00     0.034 A 
HETATM   20 CL   UNL     1       2.063  34.415  54.469  1.00  0.00    -0.084 Cl
HETATM   21  C   UNL     1       3.631  32.292  55.027  1.00  0.00     0.026 A 
HETATM   22  C   UNL     1       4.293  31.106  54.695  1.00  0.00     0.031 A 
ENDBRANCH  13  16
ENDBRANCH  10  12
BRANCH   9  23
HETATM   23  C   UNL     1       6.823  27.445  54.860  1.00  0.00    -0.025 A 
HETATM   24  C   UNL     1       6.363  27.804  56.139  1.00  0.00     0.052 A 
HETATM   25  C   UNL     1       7.066  28.734  56.898  1.00  0.00     0.117 A 
HETATM   26  F   UNL     1       6.618  29.063  58.117  1.00  0.00    -0.206 F 
HETATM   27  C   UNL     1       8.223  29.329  56.411  1.00  0.00     0.042 A 
HETATM   28  C   UNL     1       8.687  28.992  55.143  1.00  0.00     0.004 A 
HETATM   29  C   UNL     1       7.991  28.057  54.369  1.00  0.00     0.010 A 
ENDBRANCH   9  23
BRANCH   7  30
HETATM   30  C   UNL     1       8.727  22.360  54.284  1.00  0.00     0.085 C 
BRANCH  30  31
HETATM   31  C   UNL     1       7.897  21.480  55.215  1.00  0.00     0.034 C 
BRANCH  31  32
HETATM   32  C   UNL     1       8.682  20.991  56.427  1.00  0.00     0.164 C 
BRANCH  32  33
HETATM   33  O   UNL     1       9.616  19.997  56.021  1.00  0.00    -0.401 OA
HETATM   34  H   UNL     1      10.228  19.849  56.762  1.00  0.00     0.209 HD
ENDBRANCH  32  33
ENDBRANCH  31  32
ENDBRANCH  30  31
ENDBRANCH   7  30
TORSDOF 7
ENDMDL
MODEL 9
REMARK VINA RESULT:      -8.0      3.220      4.086
REMARK  7 active torsions:
REMARK  status: ('A' for Active; 'I' for Inactive)
REMARK    1  A    between atoms: C_7  and  C_8 
REMARK    2  A    between atoms: C_8  and  C_9 
REMARK    3  A    between atoms: C_9  and  C_10 
REMARK    4  A    between atoms: C_10  and  O_11 
REMARK    5  A    between atoms: C_13  and  C_14 
REMARK    6  A    between atoms: C_21  and  C_22 
REMARK       I    between atoms: C_22  and  N_23 
REMARK    7  A    between atoms: N_23  and  C_24 
ROOT
HETATM    1  C   UNL     1       8.379  27.313  57.485  1.00  0.00     0.070 C 
HETATM    2  C   UNL     1       7.180  28.080  56.984  1.00  0.00     0.037 C 
HETATM    3  N   UNL     1       7.093  29.401  57.411  1.00  0.00    -0.192 N 
HETATM    4  C   UNL     1       5.985  30.151  57.254  1.00  0.00     0.726 A 
HETATM    5  N   UNL     1       4.942  29.668  56.512  1.00  0.00    -0.083 N 
HETATM    6  N   UNL     1       3.892  30.516  56.527  1.00  0.00    -0.140 NA
HETATM    7  C   UNL     1       4.386  31.514  57.274  1.00  0.00     0.166 A 
HETATM    8  N   UNL     1       5.669  31.326  57.735  1.00  0.00    -0.046 NA
HETATM    9  C   UNL     1       4.942  28.355  55.856  1.00  0.00     0.202 C 
HETATM   10  C   UNL     1       6.185  27.553  56.228  1.00  0.00     0.062 C 
HETATM   11  H   UNL     1       7.807  29.739  58.050  1.00  0.00     0.184 HD
ENDROOT
BRANCH  10  12
HETATM   12  C   UNL     1       6.138  26.139  55.774  1.00  0.00     0.256 C 
HETATM   13  N   UNL     1       7.236  25.764  55.032  1.00  0.00    -0.323 N 
HETATM   14  H   UNL     1       7.945  26.469  54.874  1.00  0.00     0.169 HD
HETATM   15  O   UNL     1       5.148  25.470  56.040  1.00  0.00    -0.267 OA
BRANCH  13  16
HETATM   16  C   UNL     1       7.489  24.499  54.463  1.00  0.00     0.035 A 
HETATM   17  C   UNL     1       7.614  24.271  53.090  1.00  0.00     0.031 A 
HETATM   18  C   UNL     1       7.860  22.982  52.603  1.00  0.00     0.026 A 
HETATM   19  C   UNL     1       7.976  21.915  53.489  1.00  0.00     0.034 A 
HETATM   20 CL   UNL     1       8.271  20.330  52.888  1.00  0.00    -0.084 Cl
HETATM   21  C   UNL     1       7.854  22.126  54.858  1.00  0.00     0.026 A 
HETATM   22  C   UNL     1       7.616  23.415  55.343  1.00  0.00     0.031 A 
ENDBRANCH  13  16
ENDBRANCH  10  12
BRANCH   9  23
HETATM   23  C   UNL     1       4.796  28.513  54.343  1.00  0.00    -0.025 A 
HETATM   24  C   UNL     1       3.512  28.531  53.771  1.00  0.00     0.052 A 
HETATM   25  C   UNL     1       3.364  28.653  52.393  1.00  0.00     0.117 A 
HETATM   26  F   UNL     1       2.134  28.673  51.862  1.00  0.00    -0.206 F 
HETATM   27  C   UNL     1       4.470  28.751  51.558  1.00  0.00     0.042 A 
HETATM   28  C   UNL     1       5.749  28.725  52.108  1.00  0.00     0.004 A 
HETATM   29  C   UNL     1       5.913  28.604  53.492  1.00  0.00     0.010 A 
ENDBRANCH   9  23
BRANCH   7  30
HETATM   30  C   UNL     1       3.603  32.735  57.592  1.00  0.00     0.085 C 
BRANCH  30  31
HETATM   31  C   UNL     1       4.229  33.586  58.695  1.00  0.00     0.034 C 
BRANCH  31  32
HETATM   32  C   UNL     1       3.433  33.554  59.994  1.00  0.00     0.164 C 
BRANCH  32  33
HETATM   33  O   UNL     1       2.561  32.429  59.993  1.00  0.00    -0.401 OA
HETATM   34  H   UNL     1       3.114  31.629  60.028  1.00  0.00     0.209 HD
ENDBRANCH  32  33
ENDBRANCH  31  32
ENDBRANCH  30  31
ENDBRANCH   7  30
TORSDOF 7
ENDMDL
MODEL 10
REMARK VINA RESULT:      -7.9      2.448      2.703
REMARK  7 active torsions:
REMARK  status: ('A' for Active; 'I' for Inactive)
REMARK    1  A    between atoms: C_7  and  C_8 
REMARK    2  A    between atoms: C_8  and  C_9 
REMARK    3  A    between atoms: C_9  and  C_10 
REMARK    4  A    between atoms: C_10  and  O_11 
REMARK    5  A    between atoms: C_13  and  C_14 
REMARK    6  A    between atoms: C_21  and  C_22 
REMARK       I    between atoms: C_22  and  N_23 
REMARK    7  A    between atoms: N_23  and  C_24 
ROOT
HETATM    1  C   UNL     1      10.614  29.660  56.341  1.00  0.00     0.070 C 
HETATM    2  C   UNL     1       9.595  30.100  57.363  1.00  0.00     0.037 C 
HETATM    3  N   UNL     1      10.035  31.053  58.276  1.00  0.00    -0.192 N 
HETATM    4  C   UNL     1       9.343  31.382  59.384  1.00  0.00     0.726 A 
HETATM    5  N   UNL     1       8.082  30.884  59.564  1.00  0.00    -0.083 N 
HETATM    6  N   UNL     1       7.573  31.254  60.759  1.00  0.00    -0.140 NA
HETATM    7  C   UNL     1       8.575  32.006  61.237  1.00  0.00     0.166 A 
HETATM    8  N   UNL     1       9.676  32.110  60.418  1.00  0.00    -0.046 NA
HETATM    9  C   UNL     1       7.408  29.995  58.612  1.00  0.00     0.202 C 
HETATM   10  C   UNL     1       8.345  29.588  57.479  1.00  0.00     0.062 C 
HETATM   11  H   UNL     1      11.006  31.350  58.217  1.00  0.00     0.184 HD
ENDROOT
BRANCH  10  12
HETATM   12  C   UNL     1       7.794  28.518  56.607  1.00  0.00     0.256 C 
HETATM   13  N   UNL     1       7.311  28.987  55.405  1.00  0.00    -0.323 N 
HETATM   14  H   UNL     1       7.378  29.983  55.240  1.00  0.00     0.169 HD
HETATM   15  O   UNL     1       7.767  27.371  57.030  1.00  0.00    -0.267 OA
BRANCH  13  16
HETATM   16  C   UNL     1       6.730  28.230  54.366  1.00  0.00     0.035 A 
HETATM   17  C   UNL     1       5.410  28.381  53.934  1.00  0.00     0.031 A 
HETATM   18  C   UNL     1       4.906  27.586  52.898  1.00  0.00     0.026 A 
HETATM   19  C   UNL     1       5.720  26.632  52.295  1.00  0.00     0.034 A 
HETATM   20 CL   UNL     1       5.096  25.649  51.028  1.00  0.00    -0.084 Cl
HETATM   21  C   UNL     1       7.036  26.469  52.715  1.00  0.00     0.026 A 
HETATM   22  C   UNL     1       7.540  27.270  53.744  1.00  0.00     0.031 A 
ENDBRANCH  13  16
ENDBRANCH  10  12
BRANCH   9  23
HETATM   23  C   UNL     1       6.127  30.643  58.087  1.00  0.00    -0.025 A 
HETATM   24  C   UNL     1       6.093  32.032  57.876  1.00  0.00     0.052 A 
HETATM   25  C   UNL     1       4.928  32.640  57.419  1.00  0.00     0.117 A 
HETATM   26  F   UNL     1       4.911  33.965  57.218  1.00  0.00    -0.206 F 
HETATM   27  C   UNL     1       3.781  31.897  57.170  1.00  0.00     0.042 A 
HETATM   28  C   UNL     1       3.796  30.521  57.382  1.00  0.00     0.004 A 
HETATM   29  C   UNL     1       4.960  29.897  57.842  1.00  0.00     0.010 A 
ENDBRANCH   9  23
BRANCH   7  30
HETATM   30  C   UNL     1       8.508  32.676  62.561  1.00  0.00     0.085 C 
BRANCH  30  31
HETATM   31  C   UNL     1       7.083  32.859  63.075  1.00  0.00     0.034 C 
BRANCH  31  32
HETATM   32  C   UNL     1       6.387  34.075  62.477  1.00  0.00     0.164 C 
BRANCH  32  33
HETATM   33  O   UNL     1       5.564  33.667  61.389  1.00  0.00    -0.401 OA
HETATM   34  H   UNL     1       5.711  32.716  61.250  1.00  0.00     0.209 HD
ENDBRANCH  32  33
ENDBRANCH  31  32
ENDBRANCH  30  31
ENDBRANCH   7  30
TORSDOF 7
ENDMDL
