MODEL 1
REMARK VINA RESULT:      -9.6      0.000      0.000
REMARK  13 active torsions:
REMARK  status: ('A' for Active; 'I' for Inactive)
REMARK    1  A    between atoms: C_2  and  O_3 
REMARK    2  A    between atoms: O_3  and  C_4 
REMARK    3  A    between atoms: C_5  and  O_6 
REMARK    4  A    between atoms: C_9  and  C_10 
REMARK    5  A    between atoms: N_11  and  C_12 
REMARK    6  A    between atoms: C_12  and  C_13 
REMARK    7  A    between atoms: C_13  and  N_14 
REMARK    8  A    between atoms: C_20  and  O_21 
REMARK    9  A    between atoms: C_22  and  C_23 
REMARK   10  A    between atoms: C_23  and  C_24 
REMARK   11  A    between atoms: C_28  and  O_29 
REMARK   12  A    between atoms: O_29  and  C_30 
REMARK   13  A    between atoms: C_30  and  C_31 
ROOT
HETATM    1  C   UNL     1       7.040  26.583  54.203  1.00  0.00     0.161 A 
HETATM    2  N   UNL     1       6.654  25.290  54.758  1.00  0.00    -0.332 N 
HETATM    3  C   UNL     1       6.999  25.210  56.097  1.00  0.00     0.278 A 
HETATM    4  O   UNL     1       6.838  24.260  56.841  1.00  0.00    -0.265 OA
HETATM    5  C   UNL     1       7.658  26.476  56.475  1.00  0.00     0.146 A 
HETATM    6  C   UNL     1       7.719  27.231  55.370  1.00  0.00     0.059 A 
ENDROOT
BRANCH   6   7
HETATM    7  C   UNL     1       8.345  28.574  55.308  1.00  0.00     0.194 C 
HETATM    8  O   UNL     1       8.970  28.954  54.328  1.00  0.00    -0.287 OA
BRANCH   7   9
HETATM    9  C   UNL     1       8.261  29.421  56.529  1.00  0.00     0.021 A 
HETATM   10  C   UNL     1       9.411  29.720  57.280  1.00  0.00    -0.045 A 
HETATM   11  C   UNL     1      10.793  29.341  56.828  1.00  0.00     0.049 C 
HETATM   12  C   UNL     1       9.256  30.419  58.488  1.00  0.00     0.044 A 
HETATM   13  C   UNL     1       7.994  30.794  58.949  1.00  0.00     0.069 A 
HETATM   14  C   UNL     1       6.869  30.568  58.159  1.00  0.00     0.038 A 
HETATM   15  C   UNL     1       7.004  29.892  56.945  1.00  0.00     0.019 A 
BRANCH  13  16
HETATM   16  O   UNL     1       7.967  31.422  60.161  1.00  0.00    -0.347 OA
BRANCH  16  17
HETATM   17  C   UNL     1       6.925  32.387  60.312  1.00  0.00     0.214 C 
BRANCH  17  18
HETATM   18  C   UNL     1       6.973  32.917  61.724  1.00  0.00    -0.034 A 
HETATM   19  C   UNL     1       7.864  32.363  62.654  1.00  0.00     0.009 A 
HETATM   20  C   UNL     1       7.900  32.836  63.967  1.00  0.00     0.001 A 
HETATM   21  C   UNL     1       7.044  33.861  64.364  1.00  0.00     0.000 A 
HETATM   22  C   UNL     1       6.148  34.414  63.450  1.00  0.00     0.001 A 
HETATM   23  C   UNL     1       6.113  33.944  62.135  1.00  0.00     0.009 A 
ENDBRANCH  17  18
ENDBRANCH  16  17
ENDBRANCH  13  16
ENDBRANCH   7   9
ENDBRANCH   6   7
BRANCH   1  24
HETATM   24  C   UNL     1       5.822  27.330  53.695  1.00  0.00    -0.028 A 
HETATM   25  C   UNL     1       4.956  28.021  54.561  1.00  0.00     0.012 A 
HETATM   26  C   UNL     1       3.826  28.676  54.066  1.00  0.00     0.040 A 
HETATM   27  C   UNL     1       3.550  28.658  52.698  1.00  0.00     0.099 A 
HETATM   28  C   UNL     1       4.417  28.012  51.812  1.00  0.00     0.102 A 
HETATM   29  C   UNL     1       5.537  27.341  52.321  1.00  0.00     0.049 A 
BRANCH  27  30
HETATM   30  O   UNL     1       2.403  29.250  52.254  1.00  0.00    -0.358 OA
HETATM   31  H   UNL     1       2.606  29.850  51.516  1.00  0.00     0.218 HD
ENDBRANCH  27  30
BRANCH  28  32
HETATM   32  O   UNL     1       4.293  27.916  50.453  1.00  0.00    -0.349 OA
BRANCH  32  33
HETATM   33  C   UNL     1       4.874  26.760  49.841  1.00  0.00     0.171 C 
HETATM   34  C   UNL     1       3.901  26.244  48.795  1.00  0.00     0.034 C 
ENDBRANCH  32  33
ENDBRANCH  28  32
ENDBRANCH   1  24
BRANCH   5  35
HETATM   35  O   UNL     1       8.163  26.716  57.714  1.00  0.00    -0.355 OA
HETATM   36  H   UNL     1       8.526  25.875  58.051  1.00  0.00     0.218 HD
ENDBRANCH   5  35
BRANCH   2  37
HETATM   37  C   UNL     1       6.579  24.079  53.939  1.00  0.00     0.155 C 
BRANCH  37  38
HETATM   38  C   UNL     1       7.935  23.427  53.639  1.00  0.00     0.254 C 
BRANCH  38  39
HETATM   39  N   UNL     1       8.034  22.039  54.238  1.00  0.00    -0.077 N 
HETATM   40  H   UNL     1       7.163  21.895  54.768  1.00  0.00     0.279 HD
HETATM   41  C   UNL     1       8.077  20.983  53.167  1.00  0.00     0.269 C 
HETATM   42  C   UNL     1       9.168  21.882  55.215  1.00  0.00     0.269 C 
ENDBRANCH  38  39
ENDBRANCH  37  38
ENDBRANCH   2  37
TORSDOF 13
ENDMDL
MODEL 2
REMARK VINA RESULT:      -9.4      1.738      4.648
REMARK  13 active torsions:
REMARK  status: ('A' for Active; 'I' for Inactive)
REMARK    1  A    between atoms: C_2  and  O_3 
REMARK    2  A    between atoms: O_3  and  C_4 
REMARK    3  A    between atoms: C_5  and  O_6 
REMARK    4  A    between atoms: C_9  and  C_10 
REMARK    5  A    between atoms: N_11  and  C_12 
REMARK    6  A    between atoms: C_12  and  C_13 
REMARK    7  A    between atoms: C_13  and  N_14 
REMARK    8  A    between atoms: C_20  and  O_21 
REMARK    9  A    between atoms: C_22  and  C_23 
REMARK   10  A    between atoms: C_23  and  C_24 
REMARK   11  A    between atoms: C_28  and  O_29 
REMARK   12  A    between atoms: O_29  and  C_30 
REMARK   13  A    between atoms: C_30  and  C_31 
ROOT
HETATM    1  C   UNL     1       6.828  26.585  55.577  1.00  0.00     0.161 A 
HETATM    2  N   UNL     1       6.367  26.852  54.218  1.00  0.00    -0.332 N 
HETATM    3  C   UNL     1       7.096  27.882  53.648  1.00  0.00     0.278 A 
HETATM    4  O   UNL     1       6.946  28.362  52.539  1.00  0.00    -0.265 OA
HETATM    5  C   UNL     1       8.078  28.353  54.645  1.00  0.00     0.146 A 
HETATM    6  C   UNL     1       7.879  27.636  55.759  1.00  0.00     0.059 A 
ENDROOT
BRANCH   6   7
HETATM    7  C   UNL     1       8.635  27.822  57.020  1.00  0.00     0.194 C 
HETATM    8  O   UNL     1       9.227  26.902  57.566  1.00  0.00    -0.287 OA
BRANCH   7   9
HETATM    9  C   UNL     1       8.576  29.167  57.657  1.00  0.00     0.021 A 
HETATM   10  C   UNL     1       9.726  29.969  57.758  1.00  0.00    -0.045 A 
HETATM   11  C   UNL     1      11.030  29.597  57.111  1.00  0.00     0.049 C 
HETATM   12  C   UNL     1       9.640  31.172  58.476  1.00  0.00     0.044 A 
HETATM   13  C   UNL     1       8.450  31.562  59.093  1.00  0.00     0.069 A 
HETATM   14  C   UNL     1       7.295  30.804  58.917  1.00  0.00     0.038 A 
HETATM   15  C   UNL     1       7.355  29.613  58.191  1.00  0.00     0.019 A 
BRANCH  13  16
HETATM   16  O   UNL     1       8.505  32.726  59.806  1.00  0.00    -0.347 OA
BRANCH  16  17
HETATM   17  C   UNL     1       9.035  32.594  61.126  1.00  0.00     0.214 C 
BRANCH  17  18
HETATM   18  C   UNL     1       7.925  32.870  62.109  1.00  0.00    -0.034 A 
HETATM   19  C   UNL     1       6.671  33.299  61.654  1.00  0.00     0.009 A 
HETATM   20  C   UNL     1       5.645  33.574  62.560  1.00  0.00     0.001 A 
HETATM   21  C   UNL     1       5.865  33.429  63.928  1.00  0.00     0.000 A 
HETATM   22  C   UNL     1       7.111  33.010  64.393  1.00  0.00     0.001 A 
HETATM   23  C   UNL     1       8.137  32.731  63.488  1.00  0.00     0.009 A 
ENDBRANCH  17  18
ENDBRANCH  16  17
ENDBRANCH  13  16
ENDBRANCH   7   9
ENDBRANCH   6   7
BRANCH   1  24
HETATM   24  C   UNL     1       7.340  25.162  55.695  1.00  0.00    -0.028 A 
HETATM   25  C   UNL     1       7.370  24.479  56.923  1.00  0.00     0.012 A 
HETATM   26  C   UNL     1       7.874  23.179  57.004  1.00  0.00     0.040 A 
HETATM   27  C   UNL     1       8.346  22.539  55.858  1.00  0.00     0.099 A 
HETATM   28  C   UNL     1       8.291  23.182  54.618  1.00  0.00     0.102 A 
HETATM   29  C   UNL     1       7.802  24.494  54.551  1.00  0.00     0.049 A 
BRANCH  27  30
HETATM   30  O   UNL     1       8.894  21.296  55.982  1.00  0.00    -0.358 OA
HETATM   31  H   UNL     1       9.312  21.205  56.856  1.00  0.00     0.218 HD
ENDBRANCH  27  30
BRANCH  28  32
HETATM   32  O   UNL     1       8.701  22.689  53.410  1.00  0.00    -0.349 OA
BRANCH  32  33
HETATM   33  C   UNL     1       7.795  21.802  52.743  1.00  0.00     0.171 C 
HETATM   34  C   UNL     1       8.396  20.407  52.776  1.00  0.00     0.034 C 
ENDBRANCH  32  33
ENDBRANCH  28  32
ENDBRANCH   1  24
BRANCH   5  35
HETATM   35  O   UNL     1       8.930  29.389  54.426  1.00  0.00    -0.355 OA
HETATM   36  H   UNL     1       9.195  29.357  53.487  1.00  0.00     0.218 HD
ENDBRANCH   5  35
BRANCH   2  37
HETATM   37  C   UNL     1       4.988  26.600  53.797  1.00  0.00     0.155 C 
BRANCH  37  38
HETATM   38  C   UNL     1       4.854  25.866  52.456  1.00  0.00     0.254 C 
BRANCH  38  39
HETATM   39  N   UNL     1       4.836  26.832  51.288  1.00  0.00    -0.077 N 
HETATM   40  H   UNL     1       5.775  27.253  51.253  1.00  0.00     0.279 HD
HETATM   41  C   UNL     1       4.628  26.111  49.985  1.00  0.00     0.269 C 
HETATM   42  C   UNL     1       3.859  27.964  51.456  1.00  0.00     0.269 C 
ENDBRANCH  38  39
ENDBRANCH  37  38
ENDBRANCH   2  37
TORSDOF 13
ENDMDL
MODEL 3
REMARK VINA RESULT:      -9.3      1.906      3.289
REMARK  13 active torsions:
REMARK  status: ('A' for Active; 'I' for Inactive)
REMARK    1  A    between atoms: C_2  and  O_3 
REMARK    2  A    between atoms: O_3  and  C_4 
REMARK    3  A    between atoms: C_5  and  O_6 
REMARK    4  A    between atoms: C_9  and  C_10 
REMARK    5  A    between atoms: N_11  and  C_12 
REMARK    6  A    between atoms: C_12  and  C_13 
REMARK    7  A    between atoms: C_13  and  N_14 
REMARK    8  A    between atoms: C_20  and  O_21 
REMARK    9  A    between atoms: C_22  and  C_23 
REMARK   10  A    between atoms: C_23  and  C_24 
REMARK   11  A    between atoms: C_28  and  O_29 
REMARK   12  A    between atoms: O_29  and  C_30 
REMARK   13  A    between atoms: C_30  and  C_31 
ROOT
HETATM    1  C   UNL     1       6.390  27.537  54.920  1.00  0.00     0.161 A 
HETATM    2  N   UNL     1       5.813  26.298  55.433  1.00  0.00    -0.332 N 
HETATM    3  C   UNL     1       6.368  25.971  56.659  1.00  0.00     0.278 A 
HETATM    4  O   UNL     1       6.123  24.990  57.337  1.00  0.00    -0.265 OA
HETATM    5  C   UNL     1       7.370  27.002  56.996  1.00  0.00     0.146 A 
HETATM    6  C   UNL     1       7.407  27.862  55.971  1.00  0.00     0.059 A 
ENDROOT
BRANCH   6   7
HETATM    7  C   UNL     1       8.315  29.032  55.893  1.00  0.00     0.194 C 
HETATM    8  O   UNL     1       8.978  29.275  54.894  1.00  0.00    -0.287 OA
BRANCH   7   9
HETATM    9  C   UNL     1       8.462  29.862  57.119  1.00  0.00     0.021 A 
HETATM   10  C   UNL     1       9.727  30.088  57.690  1.00  0.00    -0.045 A 
HETATM   11  C   UNL     1      11.002  29.643  57.032  1.00  0.00     0.049 C 
HETATM   12  C   UNL     1       9.793  30.774  58.914  1.00  0.00     0.044 A 
HETATM   13  C   UNL     1       8.637  31.209  59.563  1.00  0.00     0.069 A 
HETATM   14  C   UNL     1       7.396  31.055  58.949  1.00  0.00     0.038 A 
HETATM   15  C   UNL     1       7.310  30.393  57.724  1.00  0.00     0.019 A 
BRANCH  13  16
HETATM   16  O   UNL     1       8.827  31.817  60.771  1.00  0.00    -0.347 OA
BRANCH  16  17
HETATM   17  C   UNL     1       8.037  31.289  61.837  1.00  0.00     0.214 C 
BRANCH  17  18
HETATM   18  C   UNL     1       7.442  32.445  62.601  1.00  0.00    -0.034 A 
HETATM   19  C   UNL     1       6.536  33.312  61.974  1.00  0.00     0.009 A 
HETATM   20  C   UNL     1       5.997  34.395  62.669  1.00  0.00     0.001 A 
HETATM   21  C   UNL     1       6.361  34.626  63.994  1.00  0.00     0.000 A 
HETATM   22  C   UNL     1       7.267  33.776  64.625  1.00  0.00     0.001 A 
HETATM   23  C   UNL     1       7.805  32.690  63.932  1.00  0.00     0.009 A 
ENDBRANCH  17  18
ENDBRANCH  16  17
ENDBRANCH  13  16
ENDBRANCH   7   9
ENDBRANCH   6   7
BRANCH   1  24
HETATM   24  C   UNL     1       5.315  28.592  54.744  1.00  0.00    -0.028 A 
HETATM   25  C   UNL     1       5.046  29.182  53.496  1.00  0.00     0.012 A 
HETATM   26  C   UNL     1       4.069  30.172  53.372  1.00  0.00     0.040 A 
HETATM   27  C   UNL     1       3.339  30.580  54.490  1.00  0.00     0.099 A 
HETATM   28  C   UNL     1       3.560  29.980  55.732  1.00  0.00     0.102 A 
HETATM   29  C   UNL     1       4.557  29.002  55.851  1.00  0.00     0.049 A 
BRANCH  27  30
HETATM   30  O   UNL     1       2.439  31.595  54.348  1.00  0.00    -0.358 OA
HETATM   31  H   UNL     1       2.792  32.407  54.752  1.00  0.00     0.218 HD
ENDBRANCH  27  30
BRANCH  28  32
HETATM   32  O   UNL     1       2.925  30.258  56.911  1.00  0.00    -0.349 OA
BRANCH  32  33
HETATM   33  C   UNL     1       3.740  30.773  57.970  1.00  0.00     0.171 C 
HETATM   34  C   UNL     1       3.904  32.267  57.753  1.00  0.00     0.034 C 
ENDBRANCH  32  33
ENDBRANCH  28  32
ENDBRANCH   1  24
BRANCH   5  35
HETATM   35  O   UNL     1       8.136  26.962  58.118  1.00  0.00    -0.355 OA
HETATM   36  H   UNL     1       9.018  26.632  57.860  1.00  0.00     0.218 HD
ENDBRANCH   5  35
BRANCH   2  37
HETATM   37  C   UNL     1       5.300  25.251  54.549  1.00  0.00     0.155 C 
BRANCH  37  38
HETATM   38  C   UNL     1       6.376  24.322  53.969  1.00  0.00     0.254 C 
BRANCH  38  39
HETATM   39  N   UNL     1       6.623  24.599  52.500  1.00  0.00    -0.077 N 
HETATM   40  H   UNL     1       6.575  23.687  52.026  1.00  0.00     0.279 HD
HETATM   41  C   UNL     1       5.535  25.457  51.915  1.00  0.00     0.269 C 
HETATM   42  C   UNL     1       7.988  25.165  52.214  1.00  0.00     0.269 C 
ENDBRANCH  38  39
ENDBRANCH  37  38
ENDBRANCH   2  37
TORSDOF 13
ENDMDL
MODEL 4
REMARK VINA RESULT:      -9.3      5.450      9.468
REMARK  13 active torsions:
REMARK  status: ('A' for Active; 'I' for Inactive)
REMARK    1  A    between atoms: C_2  and  O_3 
REMARK    2  A    between atoms: O_3  and  C_4 
REMARK    3  A    between atoms: C_5  and  O_6 
REMARK    4  A    between atoms: C_9  and  C_10 
REMARK    5  A    between atoms: N_11  and  C_12 
REMARK    6  A    between atoms: C_12  and  C_13 
REMARK    7  A    between atoms: C_13  and  N_14 
REMARK    8  A    between atoms: C_20  and  O_21 
REMARK    9  A    between atoms: C_22  and  C_23 
REMARK   10  A    between atoms: C_23  and  C_24 
REMARK   11  A    between atoms: C_28  and  O_29 
REMARK   12  A    between atoms: O_29  and  C_30 
REMARK   13  A    between atoms: C_30  and  C_31 
ROOT
HETATM    1  C   UNL     1       3.572  29.353  49.793  1.00  0.00     0.161 A 
HETATM    2  N   UNL     1       4.511  30.287  49.180  1.00  0.00    -0.332 N 
HETATM    3  C   UNL     1       5.644  30.426  49.964  1.00  0.00     0.278 A 
HETATM    4  O   UNL     1       6.602  31.146  49.749  1.00  0.00    -0.265 OA
HETATM    5  C   UNL     1       5.478  29.578  51.161  1.00  0.00     0.146 A 
HETATM    6  C   UNL     1       4.269  29.010  51.074  1.00  0.00     0.059 A 
ENDROOT
BRANCH   6   7
HETATM    7  C   UNL     1       3.691  28.108  52.100  1.00  0.00     0.194 C 
HETATM    8  O   UNL     1       2.529  28.201  52.467  1.00  0.00    -0.287 OA
BRANCH   7   9
HETATM    9  C   UNL     1       4.612  27.130  52.741  1.00  0.00     0.021 A 
HETATM   10  C   UNL     1       5.014  27.288  54.079  1.00  0.00    -0.045 A 
HETATM   11  C   UNL     1       4.437  28.345  54.977  1.00  0.00     0.049 C 
HETATM   12  C   UNL     1       5.979  26.407  54.594  1.00  0.00     0.044 A 
HETATM   13  C   UNL     1       6.543  25.408  53.800  1.00  0.00     0.069 A 
HETATM   14  C   UNL     1       6.078  25.206  52.502  1.00  0.00     0.038 A 
HETATM   15  C   UNL     1       5.106  26.059  51.978  1.00  0.00     0.019 A 
BRANCH  13  16
HETATM   16  O   UNL     1       7.508  24.648  54.398  1.00  0.00    -0.347 OA
BRANCH  16  17
HETATM   17  C   UNL     1       7.012  23.635  55.274  1.00  0.00     0.214 C 
BRANCH  17  18
HETATM   18  C   UNL     1       7.643  22.322  54.881  1.00  0.00    -0.034 A 
HETATM   19  C   UNL     1       7.862  22.022  53.529  1.00  0.00     0.009 A 
HETATM   20  C   UNL     1       8.428  20.802  53.158  1.00  0.00     0.001 A 
HETATM   21  C   UNL     1       8.774  19.868  54.132  1.00  0.00     0.000 A 
HETATM   22  C   UNL     1       8.553  20.151  55.479  1.00  0.00     0.001 A 
HETATM   23  C   UNL     1       7.990  21.373  55.852  1.00  0.00     0.009 A 
ENDBRANCH  17  18
ENDBRANCH  16  17
ENDBRANCH  13  16
ENDBRANCH   7   9
ENDBRANCH   6   7
BRANCH   1  24
HETATM   24  C   UNL     1       3.327  28.168  48.879  1.00  0.00    -0.028 A 
HETATM   25  C   UNL     1       4.347  27.261  48.542  1.00  0.00     0.012 A 
HETATM   26  C   UNL     1       4.096  26.196  47.674  1.00  0.00     0.040 A 
HETATM   27  C   UNL     1       2.820  26.015  47.138  1.00  0.00     0.099 A 
HETATM   28  C   UNL     1       1.780  26.879  47.489  1.00  0.00     0.102 A 
HETATM   29  C   UNL     1       2.046  27.957  48.344  1.00  0.00     0.049 A 
BRANCH  27  30
HETATM   30  O   UNL     1       2.625  25.004  46.242  1.00  0.00    -0.358 OA
HETATM   31  H   UNL     1       3.162  25.162  45.446  1.00  0.00     0.218 HD
ENDBRANCH  27  30
BRANCH  28  32
HETATM   32  O   UNL     1       0.481  26.829  47.062  1.00  0.00    -0.349 OA
BRANCH  32  33
HETATM   33  C   UNL     1      -0.019  27.998  46.405  1.00  0.00     0.171 C 
HETATM   34  C   UNL     1      -0.581  27.576  45.058  1.00  0.00     0.034 C 
ENDBRANCH  32  33
ENDBRANCH  28  32
ENDBRANCH   1  24
BRANCH   5  35
HETATM   35  O   UNL     1       6.392  29.512  52.165  1.00  0.00    -0.355 OA
HETATM   36  H   UNL     1       5.905  29.559  53.010  1.00  0.00     0.218 HD
ENDBRANCH   5  35
BRANCH   2  37
HETATM   37  C   UNL     1       4.071  31.382  48.314  1.00  0.00     0.155 C 
BRANCH  37  38
HETATM   38  C   UNL     1       2.926  32.228  48.888  1.00  0.00     0.254 C 
BRANCH  38  39
HETATM   39  N   UNL     1       1.645  32.047  48.099  1.00  0.00    -0.077 N 
HETATM   40  H   UNL     1       1.300  32.994  47.893  1.00  0.00     0.279 HD
HETATM   41  C   UNL     1       1.907  31.377  46.778  1.00  0.00     0.269 C 
HETATM   42  C   UNL     1       0.557  31.347  48.868  1.00  0.00     0.269 C 
ENDBRANCH  38  39
ENDBRANCH  37  38
ENDBRANCH   2  37
TORSDOF 13
ENDMDL
MODEL 5
REMARK VINA RESULT:      -9.1      2.540      5.753
REMARK  13 active torsions:
REMARK  status: ('A' for Active; 'I' for Inactive)
REMARK    1  A    between atoms: C_2  and  O_3 
REMARK    2  A    between atoms: O_3  and  C_4 
REMARK    3  A    between atoms: C_5  and  O_6 
REMARK    4  A    between atoms: C_9  and  C_10 
REMARK    5  A    between atoms: N_11  and  C_12 
REMARK    6  A    between atoms: C_12  and  C_13 
REMARK    7  A    between atoms: C_13  and  N_14 
REMARK    8  A    between atoms: C_20  and  O_21 
REMARK    9  A    between atoms: C_22  and  C_23 
REMARK   10  A    between atoms: C_23  and  C_24 
REMARK   11  A    between atoms: C_28  and  O_29 
REMARK   12  A    between atoms: O_29  and  C_30 
REMARK   13  A    between atoms: C_30  and  C_31 
ROOT
HETATM    1  C   UNL     1       6.463  28.728  56.848  1.00  0.00     0.161 A 
HETATM    2  N   UNL     1       6.322  27.415  56.225  1.00  0.00    -0.332 N 
HETATM    3  C   UNL     1       5.526  27.494  55.094  1.00  0.00     0.278 A 
HETATM    4  O   UNL     1       5.195  26.577  54.365  1.00  0.00    -0.265 OA
HETATM    5  C   UNL     1       5.090  28.896  54.939  1.00  0.00     0.146 A 
HETATM    6  C   UNL     1       5.592  29.579  55.976  1.00  0.00     0.059 A 
ENDROOT
BRANCH   6   7
HETATM    7  C   UNL     1       5.356  31.022  56.220  1.00  0.00     0.194 C 
HETATM    8  O   UNL     1       5.430  31.853  55.326  1.00  0.00    -0.287 OA
BRANCH   7   9
HETATM    9  C   UNL     1       5.110  31.443  57.627  1.00  0.00     0.021 A 
HETATM   10  C   UNL     1       3.871  31.202  58.245  1.00  0.00    -0.045 A 
HETATM   11  C   UNL     1       2.787  30.389  57.596  1.00  0.00     0.049 C 
HETATM   12  C   UNL     1       3.652  31.729  59.529  1.00  0.00     0.044 A 
HETATM   13  C   UNL     1       4.629  32.489  60.174  1.00  0.00     0.069 A 
HETATM   14  C   UNL     1       5.883  32.651  59.589  1.00  0.00     0.038 A 
HETATM   15  C   UNL     1       6.127  32.119  58.322  1.00  0.00     0.019 A 
BRANCH  13  16
HETATM   16  O   UNL     1       4.280  32.990  61.395  1.00  0.00    -0.347 OA
BRANCH  16  17
HETATM   17  C   UNL     1       4.431  32.074  62.482  1.00  0.00     0.214 C 
BRANCH  17  18
HETATM   18  C   UNL     1       5.383  32.683  63.482  1.00  0.00    -0.034 A 
HETATM   19  C   UNL     1       6.768  32.571  63.295  1.00  0.00     0.009 A 
HETATM   20  C   UNL     1       7.653  33.116  64.227  1.00  0.00     0.001 A 
HETATM   21  C   UNL     1       7.164  33.771  65.355  1.00  0.00     0.000 A 
HETATM   22  C   UNL     1       5.789  33.881  65.555  1.00  0.00     0.001 A 
HETATM   23  C   UNL     1       4.902  33.340  64.623  1.00  0.00     0.009 A 
ENDBRANCH  17  18
ENDBRANCH  16  17
ENDBRANCH  13  16
ENDBRANCH   7   9
ENDBRANCH   6   7
BRANCH   1  24
HETATM   24  C   UNL     1       7.919  29.149  56.878  1.00  0.00    -0.028 A 
HETATM   25  C   UNL     1       8.760  29.010  55.760  1.00  0.00     0.012 A 
HETATM   26  C   UNL     1      10.105  29.381  55.828  1.00  0.00     0.040 A 
HETATM   27  C   UNL     1      10.626  29.906  57.011  1.00  0.00     0.099 A 
HETATM   28  C   UNL     1       9.802  30.092  58.124  1.00  0.00     0.102 A 
HETATM   29  C   UNL     1       8.459  29.697  58.051  1.00  0.00     0.049 A 
BRANCH  27  30
HETATM   30  O   UNL     1      11.959  30.197  57.066  1.00  0.00    -0.358 OA
HETATM   31  H   UNL     1      12.300  30.347  56.167  1.00  0.00     0.218 HD
ENDBRANCH  27  30
BRANCH  28  32
HETATM   32  O   UNL     1      10.157  30.602  59.342  1.00  0.00    -0.349 OA
BRANCH  32  33
HETATM   33  C   UNL     1       9.108  30.736  60.307  1.00  0.00     0.171 C 
HETATM   34  C   UNL     1       9.535  31.780  61.324  1.00  0.00     0.034 C 
ENDBRANCH  32  33
ENDBRANCH  28  32
ENDBRANCH   1  24
BRANCH   5  35
HETATM   35  O   UNL     1       4.259  29.316  53.949  1.00  0.00    -0.355 OA
HETATM   36  H   UNL     1       3.393  29.512  54.357  1.00  0.00     0.218 HD
ENDBRANCH   5  35
BRANCH   2  37
HETATM   37  C   UNL     1       6.392  26.173  56.996  1.00  0.00     0.155 C 
BRANCH  37  38
HETATM   38  C   UNL     1       7.735  25.436  56.897  1.00  0.00     0.254 C 
BRANCH  38  39
HETATM   39  N   UNL     1       7.600  24.126  56.147  1.00  0.00    -0.077 N 
HETATM   40  H   UNL     1       6.606  23.865  56.205  1.00  0.00     0.279 HD
HETATM   41  C   UNL     1       7.927  24.294  54.689  1.00  0.00     0.269 C 
HETATM   42  C   UNL     1       8.382  22.996  56.762  1.00  0.00     0.269 C 
ENDBRANCH  38  39
ENDBRANCH  37  38
ENDBRANCH   2  37
TORSDOF 13
ENDMDL
MODEL 6
REMARK VINA RESULT:      -9.0      2.854      9.149
REMARK  13 active torsions:
REMARK  status: ('A' for Active; 'I' for Inactive)
REMARK    1  A    between atoms: C_2  and  O_3 
REMARK    2  A    between atoms: O_3  and  C_4 
REMARK    3  A    between atoms: C_5  and  O_6 
REMARK    4  A    between atoms: C_9  and  C_10 
REMARK    5  A    between atoms: N_11  and  C_12 
REMARK    6  A    between atoms: C_12  and  C_13 
REMARK    7  A    between atoms: C_13  and  N_14 
REMARK    8  A    between atoms: C_20  and  O_21 
REMARK    9  A    between atoms: C_22  and  C_23 
REMARK   10  A    between atoms: C_23  and  C_24 
REMARK   11  A    between atoms: C_28  and  O_29 
REMARK   12  A    between atoms: O_29  and  C_30 
REMARK   13  A    between atoms: C_30  and  C_31 
ROOT
HETATM    1  C   UNL     1       5.607  30.131  55.122  1.00  0.00     0.161 A 
HETATM    2  N   UNL     1       4.532  30.823  55.825  1.00  0.00    -0.332 N 
HETATM    3  C   UNL     1       3.342  30.718  55.124  1.00  0.00     0.278 A 
HETATM    4  O   UNL     1       2.267  31.203  55.426  1.00  0.00    -0.265 OA
HETATM    5  C   UNL     1       3.604  29.947  53.893  1.00  0.00     0.146 A 
HETATM    6  C   UNL     1       4.912  29.661  53.881  1.00  0.00     0.059 A 
ENDROOT
BRANCH   6   7
HETATM    7  C   UNL     1       5.599  28.927  52.790  1.00  0.00     0.194 C 
HETATM    8  O   UNL     1       5.928  29.472  51.746  1.00  0.00    -0.287 OA
BRANCH   7   9
HETATM    9  C   UNL     1       5.797  27.463  52.976  1.00  0.00     0.021 A 
HETATM   10  C   UNL     1       7.066  26.940  53.278  1.00  0.00    -0.045 A 
HETATM   11  C   UNL     1       8.251  27.814  53.576  1.00  0.00     0.049 C 
HETATM   12  C   UNL     1       7.219  25.544  53.320  1.00  0.00     0.044 A 
HETATM   13  C   UNL     1       6.148  24.691  53.052  1.00  0.00     0.069 A 
HETATM   14  C   UNL     1       4.876  25.218  52.837  1.00  0.00     0.038 A 
HETATM   15  C   UNL     1       4.699  26.602  52.810  1.00  0.00     0.019 A 
BRANCH  13  16
HETATM   16  O   UNL     1       6.434  23.356  53.073  1.00  0.00    -0.347 OA
BRANCH  16  17
HETATM   17  C   UNL     1       7.826  23.042  53.023  1.00  0.00     0.214 C 
BRANCH  17  18
HETATM   18  C   UNL     1       8.149  22.141  54.189  1.00  0.00    -0.034 A 
HETATM   19  C   UNL     1       8.392  20.776  53.980  1.00  0.00     0.009 A 
HETATM   20  C   UNL     1       8.672  19.934  55.057  1.00  0.00     0.001 A 
HETATM   21  C   UNL     1       8.706  20.446  56.352  1.00  0.00     0.000 A 
HETATM   22  C   UNL     1       8.457  21.799  56.574  1.00  0.00     0.001 A 
HETATM   23  C   UNL     1       8.180  22.644  55.497  1.00  0.00     0.009 A 
ENDBRANCH  17  18
ENDBRANCH  16  17
ENDBRANCH  13  16
ENDBRANCH   7   9
ENDBRANCH   6   7
BRANCH   1  24
HETATM   24  C   UNL     1       6.174  29.016  55.980  1.00  0.00    -0.028 A 
HETATM   25  C   UNL     1       5.446  27.846  56.261  1.00  0.00     0.012 A 
HETATM   26  C   UNL     1       5.985  26.850  57.078  1.00  0.00     0.040 A 
HETATM   27  C   UNL     1       7.263  27.004  57.619  1.00  0.00     0.099 A 
HETATM   28  C   UNL     1       8.022  28.139  57.322  1.00  0.00     0.102 A 
HETATM   29  C   UNL     1       7.464  29.142  56.517  1.00  0.00     0.049 A 
BRANCH  27  30
HETATM   30  O   UNL     1       7.734  26.044  58.467  1.00  0.00    -0.358 OA
HETATM   31  H   UNL     1       7.256  25.210  58.318  1.00  0.00     0.218 HD
ENDBRANCH  27  30
BRANCH  28  32
HETATM   32  O   UNL     1       9.284  28.430  57.761  1.00  0.00    -0.349 OA
BRANCH  32  33
HETATM   33  C   UNL     1      10.162  29.047  56.813  1.00  0.00     0.171 C 
HETATM   34  C   UNL     1      10.758  30.284  57.462  1.00  0.00     0.034 C 
ENDBRANCH  32  33
ENDBRANCH  28  32
ENDBRANCH   1  24
BRANCH   5  35
HETATM   35  O   UNL     1       2.657  29.695  52.951  1.00  0.00    -0.355 OA
HETATM   36  H   UNL     1       2.580  30.491  52.391  1.00  0.00     0.218 HD
ENDBRANCH   5  35
BRANCH   2  37
HETATM   37  C   UNL     1       4.781  31.974  56.694  1.00  0.00     0.155 C 
BRANCH  37  38
HETATM   38  C   UNL     1       4.581  31.700  58.190  1.00  0.00     0.254 C 
BRANCH  38  39
HETATM   39  N   UNL     1       5.640  32.383  59.031  1.00  0.00    -0.077 N 
HETATM   40  H   UNL     1       5.788  33.309  58.606  1.00  0.00     0.279 HD
HETATM   41  C   UNL     1       5.157  32.616  60.436  1.00  0.00     0.269 C 
HETATM   42  C   UNL     1       6.971  31.680  59.014  1.00  0.00     0.269 C 
ENDBRANCH  38  39
ENDBRANCH  37  38
ENDBRANCH   2  37
TORSDOF 13
ENDMDL
MODEL 7
REMARK VINA RESULT:      -9.0      6.152     11.631
REMARK  13 active torsions:
REMARK  status: ('A' for Active; 'I' for Inactive)
REMARK    1  A    between atoms: C_2  and  O_3 
REMARK    2  A    between atoms: O_3  and  C_4 
REMARK    3  A    between atoms: C_5  and  O_6 
REMARK    4  A    between atoms: C_9  and  C_10 
REMARK    5  A    between atoms: N_11  and  C_12 
REMARK    6  A    between atoms: C_12  and  C_13 
REMARK    7  A    between atoms: C_13  and  N_14 
REMARK    8  A    between atoms: C_20  and  O_21 
REMARK    9  A    between atoms: C_22  and  C_23 
REMARK   10  A    between atoms: C_23  and  C_24 
REMARK   11  A    between atoms: C_28  and  O_29 
REMARK   12  A    between atoms: O_29  and  C_30 
REMARK   13  A    between atoms: C_30  and  C_31 
ROOT
HETATM    1  C   UNL     1       4.315  35.316  62.041  1.00  0.00     0.161 A 
HETATM    2  N   UNL     1       3.078  35.736  61.390  1.00  0.00    -0.332 N 
HETATM    3  C   UNL     1       1.991  35.063  61.923  1.00  0.00     0.278 A 
HETATM    4  O   UNL     1       0.826  35.165  61.585  1.00  0.00    -0.265 OA
HETATM    5  C   UNL     1       2.491  34.138  62.960  1.00  0.00     0.146 A 
HETATM    6  C   UNL     1       3.825  34.257  62.981  1.00  0.00     0.059 A 
ENDROOT
BRANCH   6   7
HETATM    7  C   UNL     1       4.722  33.469  63.861  1.00  0.00     0.194 C 
HETATM    8  O   UNL     1       4.538  33.383  65.067  1.00  0.00    -0.287 OA
BRANCH   7   9
HETATM    9  C   UNL     1       5.921  32.851  63.231  1.00  0.00     0.021 A 
HETATM   10  C   UNL     1       7.208  33.092  63.740  1.00  0.00    -0.045 A 
HETATM   11  C   UNL     1       7.444  33.850  65.016  1.00  0.00     0.049 C 
HETATM   12  C   UNL     1       8.311  32.585  63.034  1.00  0.00     0.044 A 
HETATM   13  C   UNL     1       8.143  31.872  61.845  1.00  0.00     0.069 A 
HETATM   14  C   UNL     1       6.861  31.567  61.394  1.00  0.00     0.038 A 
HETATM   15  C   UNL     1       5.751  32.046  62.092  1.00  0.00     0.019 A 
BRANCH  13  16
HETATM   16  O   UNL     1       9.292  31.475  61.224  1.00  0.00    -0.347 OA
BRANCH  16  17
HETATM   17  C   UNL     1       9.552  32.124  59.978  1.00  0.00     0.214 C 
BRANCH  17  18
HETATM   18  C   UNL     1       9.578  31.073  58.896  1.00  0.00    -0.034 A 
HETATM   19  C   UNL     1       8.564  30.109  58.826  1.00  0.00     0.009 A 
HETATM   20  C   UNL     1       8.593  29.122  57.839  1.00  0.00     0.001 A 
HETATM   21  C   UNL     1       9.637  29.087  56.917  1.00  0.00     0.000 A 
HETATM   22  C   UNL     1      10.656  30.035  56.982  1.00  0.00     0.001 A 
HETATM   23  C   UNL     1      10.627  31.025  57.967  1.00  0.00     0.009 A 
ENDBRANCH  17  18
ENDBRANCH  16  17
ENDBRANCH  13  16
ENDBRANCH   7   9
ENDBRANCH   6   7
BRANCH   1  24
HETATM   24  C   UNL     1       4.986  36.493  62.721  1.00  0.00    -0.028 A 
HETATM   25  C   UNL     1       4.778  36.789  64.080  1.00  0.00     0.012 A 
HETATM   26  C   UNL     1       5.388  37.898  64.670  1.00  0.00     0.040 A 
HETATM   27  C   UNL     1       6.223  38.722  63.914  1.00  0.00     0.099 A 
HETATM   28  C   UNL     1       6.477  38.427  62.572  1.00  0.00     0.102 A 
HETATM   29  C   UNL     1       5.844  37.323  61.984  1.00  0.00     0.049 A 
BRANCH  27  30
HETATM   30  O   UNL     1       6.750  39.834  64.503  1.00  0.00    -0.358 OA
HETATM   31  H   UNL     1       7.545  40.118  64.018  1.00  0.00     0.218 HD
ENDBRANCH  27  30
BRANCH  28  32
HETATM   32  O   UNL     1       7.275  39.124  61.707  1.00  0.00    -0.349 OA
BRANCH  32  33
HETATM   33  C   UNL     1       6.621  40.087  60.874  1.00  0.00     0.171 C 
HETATM   34  C   UNL     1       7.068  41.470  61.315  1.00  0.00     0.034 C 
ENDBRANCH  32  33
ENDBRANCH  28  32
ENDBRANCH   1  24
BRANCH   5  35
HETATM   35  O   UNL     1       1.689  33.290  63.656  1.00  0.00    -0.355 OA
HETATM   36  H   UNL     1       1.945  33.349  64.597  1.00  0.00     0.218 HD
ENDBRANCH   5  35
BRANCH   2  37
HETATM   37  C   UNL     1       3.047  36.215  60.008  1.00  0.00     0.155 C 
BRANCH  37  38
HETATM   38  C   UNL     1       3.909  35.403  59.032  1.00  0.00     0.254 C 
BRANCH  38  39
HETATM   39  N   UNL     1       3.178  34.175  58.527  1.00  0.00    -0.077 N 
HETATM   40  H   UNL     1       2.190  34.306  58.784  1.00  0.00     0.279 HD
HETATM   41  C   UNL     1       3.234  34.085  57.027  1.00  0.00     0.269 C 
HETATM   42  C   UNL     1       3.630  32.895  59.175  1.00  0.00     0.269 C 
ENDBRANCH  38  39
ENDBRANCH  37  38
ENDBRANCH   2  37
TORSDOF 13
ENDMDL
MODEL 8
REMARK VINA RESULT:      -9.0      4.158     10.435
REMARK  13 active torsions:
REMARK  status: ('A' for Active; 'I' for Inactive)
REMARK    1  A    between atoms: C_2  and  O_3 
REMARK    2  A    between atoms: O_3  and  C_4 
REMARK    3  A    between atoms: C_5  and  O_6 
REMARK    4  A    between atoms: C_9  and  C_10 
REMARK    5  A    between atoms: N_11  and  C_12 
REMARK    6  A    between atoms: C_12  and  C_13 
REMARK    7  A    between atoms: C_13  and  N_14 
REMARK    8  A    between atoms: C_20  and  O_21 
REMARK    9  A    between atoms: C_22  and  C_23 
REMARK   10  A    between atoms: C_23  and  C_24 
REMARK   11  A    between atoms: C_28  and  O_29 
REMARK   12  A    between atoms: O_29  and  C_30 
REMARK   13  A    between atoms: C_30  and  C_31 
ROOT
HETATM    1  C   UNL     1       5.860  33.308  61.083  1.00  0.00     0.161 A 
HETATM    2  N   UNL     1       5.004  33.278  62.265  1.00  0.00    -0.332 N 
HETATM    3  C   UNL     1       3.747  32.792  61.946  1.00  0.00     0.278 A 
HETATM    4  O   UNL     1       2.797  32.665  62.697  1.00  0.00    -0.265 OA
HETATM    5  C   UNL     1       3.726  32.494  60.500  1.00  0.00     0.146 A 
HETATM    6  C   UNL     1       4.923  32.840  60.012  1.00  0.00     0.059 A 
ENDROOT
BRANCH   6   7
HETATM    7  C   UNL     1       5.306  32.736  58.583  1.00  0.00     0.194 C 
HETATM    8  O   UNL     1       5.433  33.722  57.870  1.00  0.00    -0.287 OA
BRANCH   7   9
HETATM    9  C   UNL     1       5.446  31.368  58.014  1.00  0.00     0.021 A 
HETATM   10  C   UNL     1       4.437  30.816  57.205  1.00  0.00    -0.045 A 
HETATM   11  C   UNL     1       3.245  31.607  56.747  1.00  0.00     0.049 C 
HETATM   12  C   UNL     1       4.565  29.478  56.799  1.00  0.00     0.044 A 
HETATM   13  C   UNL     1       5.655  28.702  57.197  1.00  0.00     0.069 A 
HETATM   14  C   UNL     1       6.690  29.281  57.927  1.00  0.00     0.038 A 
HETATM   15  C   UNL     1       6.591  30.615  58.326  1.00  0.00     0.019 A 
BRANCH  13  16
HETATM   16  O   UNL     1       5.641  27.402  56.781  1.00  0.00    -0.347 OA
BRANCH  16  17
HETATM   17  C   UNL     1       6.598  27.089  55.767  1.00  0.00     0.214 C 
BRANCH  17  18
HETATM   18  C   UNL     1       7.239  25.769  56.115  1.00  0.00    -0.034 A 
HETATM   19  C   UNL     1       8.222  25.703  57.112  1.00  0.00     0.009 A 
HETATM   20  C   UNL     1       8.832  24.488  57.426  1.00  0.00     0.001 A 
HETATM   21  C   UNL     1       8.471  23.329  56.743  1.00  0.00     0.000 A 
HETATM   22  C   UNL     1       7.501  23.382  55.744  1.00  0.00     0.001 A 
HETATM   23  C   UNL     1       6.886  24.597  55.432  1.00  0.00     0.009 A 
ENDBRANCH  17  18
ENDBRANCH  16  17
ENDBRANCH  13  16
ENDBRANCH   7   9
ENDBRANCH   6   7
BRANCH   1  24
HETATM   24  C   UNL     1       7.074  32.422  61.282  1.00  0.00    -0.028 A 
HETATM   25  C   UNL     1       7.137  31.461  62.307  1.00  0.00     0.012 A 
HETATM   26  C   UNL     1       8.282  30.680  62.482  1.00  0.00     0.040 A 
HETATM   27  C   UNL     1       9.375  30.839  61.630  1.00  0.00     0.099 A 
HETATM   28  C   UNL     1       9.322  31.760  60.579  1.00  0.00     0.102 A 
HETATM   29  C   UNL     1       8.177  32.553  60.425  1.00  0.00     0.049 A 
BRANCH  27  30
HETATM   30  O   UNL     1      10.502  30.108  61.869  1.00  0.00    -0.358 OA
HETATM   31  H   UNL     1      11.236  30.702  62.105  1.00  0.00     0.218 HD
ENDBRANCH  27  30
BRANCH  28  32
HETATM   32  O   UNL     1      10.298  32.024  59.659  1.00  0.00    -0.349 OA
BRANCH  32  33
HETATM   33  C   UNL     1      10.000  31.687  58.299  1.00  0.00     0.171 C 
HETATM   34  C   UNL     1      10.794  30.443  57.938  1.00  0.00     0.034 C 
ENDBRANCH  32  33
ENDBRANCH  28  32
ENDBRANCH   1  24
BRANCH   5  35
HETATM   35  O   UNL     1       2.625  32.038  59.846  1.00  0.00    -0.355 OA
HETATM   36  H   UNL     1       2.899  31.804  58.938  1.00  0.00     0.218 HD
ENDBRANCH   5  35
BRANCH   2  37
HETATM   37  C   UNL     1       5.176  34.213  63.378  1.00  0.00     0.155 C 
BRANCH  37  38
HETATM   38  C   UNL     1       5.464  33.548  64.731  1.00  0.00     0.254 C 
BRANCH  38  39
HETATM   39  N   UNL     1       4.339  33.781  65.719  1.00  0.00    -0.077 N 
HETATM   40  H   UNL     1       3.824  32.892  65.780  1.00  0.00     0.279 HD
HETATM   41  C   UNL     1       4.872  34.077  67.094  1.00  0.00     0.269 C 
HETATM   42  C   UNL     1       3.350  34.825  65.274  1.00  0.00     0.269 C 
ENDBRANCH  38  39
ENDBRANCH  37  38
ENDBRANCH   2  37
TORSDOF 13
ENDMDL
MODEL 9
REMARK VINA RESULT:      -9.0      2.898      9.462
REMARK  13 active torsions:
REMARK  status: ('A' for Active; 'I' for Inactive)
REMARK    1  A    between atoms: C_2  and  O_3 
REMARK    2  A    between atoms: O_3  and  C_4 
REMARK    3  A    between atoms: C_5  and  O_6 
REMARK    4  A    between atoms: C_9  and  C_10 
REMARK    5  A    between atoms: N_11  and  C_12 
REMARK    6  A    between atoms: C_12  and  C_13 
REMARK    7  A    between atoms: C_13  and  N_14 
REMARK    8  A    between atoms: C_20  and  O_21 
REMARK    9  A    between atoms: C_22  and  C_23 
REMARK   10  A    between atoms: C_23  and  C_24 
REMARK   11  A    between atoms: C_28  and  O_29 
REMARK   12  A    between atoms: O_29  and  C_30 
REMARK   13  A    between atoms: C_30  and  C_31 
ROOT
HETATM    1  C   UNL     1       6.303  29.742  57.487  1.00  0.00     0.161 A 
HETATM    2  N   UNL     1       7.686  30.052  57.836  1.00  0.00    -0.332 N 
HETATM    3  C   UNL     1       8.534  29.761  56.779  1.00  0.00     0.278 A 
HETATM    4  O   UNL     1       9.745  29.882  56.755  1.00  0.00    -0.265 OA
HETATM    5  C   UNL     1       7.717  29.220  55.675  1.00  0.00     0.146 A 
HETATM    6  C   UNL     1       6.452  29.168  56.112  1.00  0.00     0.059 A 
ENDROOT
BRANCH   6   7
HETATM    7  C   UNL     1       5.313  28.645  55.319  1.00  0.00     0.194 C 
HETATM    8  O   UNL     1       4.235  29.220  55.273  1.00  0.00    -0.287 OA
BRANCH   7   9
HETATM    9  C   UNL     1       5.502  27.332  54.642  1.00  0.00     0.021 A 
HETATM   10  C   UNL     1       5.540  26.138  55.383  1.00  0.00    -0.045 A 
HETATM   11  C   UNL     1       5.251  26.091  56.857  1.00  0.00     0.049 C 
HETATM   12  C   UNL     1       5.844  24.944  54.709  1.00  0.00     0.044 A 
HETATM   13  C   UNL     1       6.119  24.936  53.340  1.00  0.00     0.069 A 
HETATM   14  C   UNL     1       5.995  26.110  52.600  1.00  0.00     0.038 A 
HETATM   15  C   UNL     1       5.676  27.304  53.249  1.00  0.00     0.019 A 
BRANCH  13  16
HETATM   16  O   UNL     1       6.450  23.723  52.809  1.00  0.00    -0.347 OA
BRANCH  16  17
HETATM   17  C   UNL     1       7.854  23.498  52.664  1.00  0.00     0.214 C 
BRANCH  17  18
HETATM   18  C   UNL     1       8.248  22.374  53.591  1.00  0.00    -0.034 A 
HETATM   19  C   UNL     1       8.274  21.053  53.125  1.00  0.00     0.009 A 
HETATM   20  C   UNL     1       8.619  20.007  53.982  1.00  0.00     0.001 A 
HETATM   21  C   UNL     1       8.936  20.271  55.313  1.00  0.00     0.000 A 
HETATM   22  C   UNL     1       8.906  21.580  55.790  1.00  0.00     0.001 A 
HETATM   23  C   UNL     1       8.564  22.628  54.933  1.00  0.00     0.009 A 
ENDBRANCH  17  18
ENDBRANCH  16  17
ENDBRANCH  13  16
ENDBRANCH   7   9
ENDBRANCH   6   7
BRANCH   1  24
HETATM   24  C   UNL     1       5.445  30.991  57.553  1.00  0.00    -0.028 A 
HETATM   25  C   UNL     1       5.566  32.031  56.615  1.00  0.00     0.012 A 
HETATM   26  C   UNL     1       4.781  33.181  56.720  1.00  0.00     0.040 A 
HETATM   27  C   UNL     1       3.856  33.305  57.757  1.00  0.00     0.099 A 
HETATM   28  C   UNL     1       3.689  32.268  58.680  1.00  0.00     0.102 A 
HETATM   29  C   UNL     1       4.496  31.127  58.578  1.00  0.00     0.049 A 
BRANCH  27  30
HETATM   30  O   UNL     1       3.152  34.468  57.871  1.00  0.00    -0.358 OA
HETATM   31  H   UNL     1       2.986  34.840  56.987  1.00  0.00     0.218 HD
ENDBRANCH  27  30
BRANCH  28  32
HETATM   32  O   UNL     1       2.823  32.232  59.738  1.00  0.00    -0.349 OA
BRANCH  32  33
HETATM   33  C   UNL     1       3.379  32.518  61.026  1.00  0.00     0.171 C 
HETATM   34  C   UNL     1       2.928  33.910  61.434  1.00  0.00     0.034 C 
ENDBRANCH  32  33
ENDBRANCH  28  32
ENDBRANCH   1  24
BRANCH   5  35
HETATM   35  O   UNL     1       8.241  28.791  54.497  1.00  0.00    -0.355 OA
HETATM   36  H   UNL     1       7.621  28.138  54.119  1.00  0.00     0.218 HD
ENDBRANCH   5  35
BRANCH   2  37
HETATM   37  C   UNL     1       8.176  29.997  59.214  1.00  0.00     0.155 C 
BRANCH  37  38
HETATM   38  C   UNL     1       7.887  31.255  60.044  1.00  0.00     0.254 C 
BRANCH  38  39
HETATM   39  N   UNL     1       7.637  30.920  61.500  1.00  0.00    -0.077 N 
HETATM   40  H   UNL     1       7.047  30.076  61.501  1.00  0.00     0.279 HD
HETATM   41  C   UNL     1       8.916  30.564  62.207  1.00  0.00     0.269 C 
HETATM   42  C   UNL     1       6.873  31.984  62.242  1.00  0.00     0.269 C 
ENDBRANCH  38  39
ENDBRANCH  37  38
ENDBRANCH   2  37
TORSDOF 13
ENDMDL
MODEL 10
REMARK VINA RESULT:      -8.9      3.196     10.236
REMARK  13 active torsions:
REMARK  status: ('A' for Active; 'I' for Inactive)
REMARK    1  A    between atoms: C_2  and  O_3 
REMARK    2  A    between atoms: O_3  and  C_4 
REMARK    3  A    between atoms: C_5  and  O_6 
REMARK    4  A    between atoms: C_9  and  C_10 
REMARK    5  A    between atoms: N_11  and  C_12 
REMARK    6  A    between atoms: C_12  and  C_13 
REMARK    7  A    between atoms: C_13  and  N_14 
REMARK    8  A    between atoms: C_20  and  O_21 
REMARK    9  A    between atoms: C_22  and  C_23 
REMARK   10  A    between atoms: C_23  and  C_24 
REMARK   11  A    between atoms: C_28  and  O_29 
REMARK   12  A    between atoms: O_29  and  C_30 
REMARK   13  A    between atoms: C_30  and  C_31 
ROOT
HETATM    1  C   UNL     1       6.163  30.907  56.941  1.00  0.00     0.161 A 
HETATM    2  N   UNL     1       4.966  31.714  56.724  1.00  0.00    -0.332 N 
HETATM    3  C   UNL     1       3.845  30.907  56.617  1.00  0.00     0.278 A 
HETATM    4  O   UNL     1       2.700  31.265  56.410  1.00  0.00    -0.265 OA
HETATM    5  C   UNL     1       4.281  29.502  56.745  1.00  0.00     0.146 A 
HETATM    6  C   UNL     1       5.613  29.516  56.880  1.00  0.00     0.059 A 
ENDROOT
BRANCH   6   7
HETATM    7  C   UNL     1       6.455  28.300  56.999  1.00  0.00     0.194 C 
HETATM    8  O   UNL     1       7.194  28.113  57.955  1.00  0.00    -0.287 OA
BRANCH   7   9
HETATM    9  C   UNL     1       6.435  27.344  55.858  1.00  0.00     0.021 A 
HETATM   10  C   UNL     1       5.838  26.079  55.988  1.00  0.00    -0.045 A 
HETATM   11  C   UNL     1       5.064  25.671  57.209  1.00  0.00     0.049 C 
HETATM   12  C   UNL     1       5.957  25.172  54.921  1.00  0.00     0.044 A 
HETATM   13  C   UNL     1       6.664  25.505  53.765  1.00  0.00     0.069 A 
HETATM   14  C   UNL     1       7.180  26.790  53.612  1.00  0.00     0.038 A 
HETATM   15  C   UNL     1       7.055  27.712  54.652  1.00  0.00     0.019 A 
BRANCH  13  16
HETATM   16  O   UNL     1       6.754  24.523  52.821  1.00  0.00    -0.347 OA
BRANCH  16  17
HETATM   17  C   UNL     1       8.075  24.028  52.597  1.00  0.00     0.214 C 
BRANCH  17  18
HETATM   18  C   UNL     1       8.256  22.778  53.421  1.00  0.00    -0.034 A 
HETATM   19  C   UNL     1       7.921  21.526  52.885  1.00  0.00     0.009 A 
HETATM   20  C   UNL     1       8.068  20.368  53.650  1.00  0.00     0.001 A 
HETATM   21  C   UNL     1       8.545  20.449  54.956  1.00  0.00     0.000 A 
HETATM   22  C   UNL     1       8.874  21.688  55.502  1.00  0.00     0.001 A 
HETATM   23  C   UNL     1       8.730  22.848  54.738  1.00  0.00     0.009 A 
ENDBRANCH  17  18
ENDBRANCH  16  17
ENDBRANCH  13  16
ENDBRANCH   7   9
ENDBRANCH   6   7
BRANCH   1  24
HETATM   24  C   UNL     1       6.814  31.264  58.263  1.00  0.00    -0.028 A 
HETATM   25  C   UNL     1       8.192  31.101  58.485  1.00  0.00     0.012 A 
HETATM   26  C   UNL     1       8.757  31.412  59.724  1.00  0.00     0.040 A 
HETATM   27  C   UNL     1       7.955  31.901  60.756  1.00  0.00     0.099 A 
HETATM   28  C   UNL     1       6.589  32.110  60.547  1.00  0.00     0.102 A 
HETATM   29  C   UNL     1       6.028  31.775  59.307  1.00  0.00     0.049 A 
BRANCH  27  30
HETATM   30  O   UNL     1       8.525  32.132  61.974  1.00  0.00    -0.358 OA
HETATM   31  H   UNL     1       8.288  31.417  62.589  1.00  0.00     0.218 HD
ENDBRANCH  27  30
BRANCH  28  32
HETATM   32  O   UNL     1       5.677  32.590  61.447  1.00  0.00    -0.349 OA
BRANCH  32  33
HETATM   33  C   UNL     1       5.769  33.982  61.767  1.00  0.00     0.171 C 
HETATM   34  C   UNL     1       5.680  34.125  63.276  1.00  0.00     0.034 C 
ENDBRANCH  32  33
ENDBRANCH  28  32
ENDBRANCH   1  24
BRANCH   5  35
HETATM   35  O   UNL     1       3.434  28.444  56.644  1.00  0.00    -0.355 OA
HETATM   36  H   UNL     1       3.689  27.797  57.330  1.00  0.00     0.218 HD
ENDBRANCH   5  35
BRANCH   2  37
HETATM   37  C   UNL     1       5.011  33.013  56.051  1.00  0.00     0.155 C 
BRANCH  37  38
HETATM   38  C   UNL     1       4.673  34.209  56.950  1.00  0.00     0.254 C 
BRANCH  38  39
HETATM   39  N   UNL     1       3.253  34.133  57.475  1.00  0.00    -0.077 N 
HETATM   40  H   UNL     1       2.913  33.190  57.240  1.00  0.00     0.279 HD
HETATM   41  C   UNL     1       3.217  34.254  58.973  1.00  0.00     0.269 C 
HETATM   42  C   UNL     1       2.314  35.109  56.818  1.00  0.00     0.269 C 
ENDBRANCH  38  39
ENDBRANCH  37  38
ENDBRANCH   2  37
TORSDOF 13
ENDMDL
