MODEL 1
REMARK VINA RESULT:     -10.1      0.000      0.000
REMARK  10 active torsions:
REMARK  status: ('A' for Active; 'I' for Inactive)
REMARK    1  A    between atoms: N_15  and  C_16 
REMARK    2  A    between atoms: C_16  and  C_17 
REMARK    3  A    between atoms: C_17  and  N_18 
REMARK       I    between atoms: N_18  and  C_19 
REMARK    4  A    between atoms: C_19  and  C_20 
REMARK    5  A    between atoms: C_20  and  C_21 
REMARK    6  A    between atoms: C_21  and  C_22 
REMARK    7  A    between atoms: C_24  and  C_25 
REMARK    8  A    between atoms: C_29  and  O_30 
REMARK    9  A    between atoms: C_31  and  C_32 
REMARK   10  A    between atoms: C_38  and  O_39 
ROOT
HETATM    1  C   UNL     1       9.097  31.091  58.652  1.00  0.00     0.142 C 
ENDROOT
BRANCH   1   2
HETATM    2  C   UNL     1       9.545  29.736  58.083  1.00  0.00     0.151 C 
BRANCH   2   3
HETATM    3  N   UNL     1       8.788  29.290  56.898  1.00  0.00    -0.291 N 
HETATM    4  C   UNL     1       9.315  29.359  55.640  1.00  0.00     0.366 A 
HETATM    5  O   UNL     1       8.493  28.732  54.762  1.00  0.00    -0.287 OA
HETATM    6  O   UNL     1      10.354  29.898  55.309  1.00  0.00    -0.238 OA
HETATM    7  C   UNL     1       7.316  28.153  55.421  1.00  0.00     0.126 A 
HETATM    8  C   UNL     1       6.144  28.886  54.736  1.00  0.00     0.082 C 
HETATM    9  C   UNL     1       7.579  28.516  56.928  1.00  0.00     0.166 A 
HETATM   10  C   UNL     1       7.349  26.674  54.979  1.00  0.00     0.082 C 
HETATM   11  C   UNL     1       4.776  28.210  54.843  1.00  0.00     0.122 C 
HETATM   12  N   UNL     1       4.911  26.785  54.359  1.00  0.00    -0.059 N 
HETATM   13  C   UNL     1       3.799  28.901  53.867  1.00  0.00     0.046 C 
HETATM   14  C   UNL     1       4.132  28.245  56.229  1.00  0.00     0.046 C 
HETATM   15  C   UNL     1       6.020  25.898  54.874  1.00  0.00     0.122 C 
HETATM   16  H   UNL     1       5.015  26.833  53.333  1.00  0.00     0.279 HD
HETATM   17  H   UNL     1       4.008  26.302  54.487  1.00  0.00     0.279 HD
HETATM   18  C   UNL     1       6.191  24.784  53.812  1.00  0.00     0.046 C 
HETATM   19  C   UNL     1       5.567  25.198  56.159  1.00  0.00     0.046 C 
HETATM   20  C   UNL     1       7.679  27.345  57.896  1.00  0.00     0.074 C 
BRANCH   9  21
HETATM   21  O   UNL     1       6.579  29.413  57.383  1.00  0.00    -0.368 OA
HETATM   22  H   UNL     1       5.744  28.949  57.182  1.00  0.00     0.212 HD
ENDBRANCH   9  21
ENDBRANCH   2   3
ENDBRANCH   1   2
BRANCH   1  23
HETATM   23  N   UNL     1       8.337  30.990  59.888  1.00  0.00    -0.359 N 
HETATM   24  C   UNL     1       8.815  31.516  61.066  1.00  0.00     0.217 C 
HETATM   25  O   UNL     1       9.902  32.080  61.141  1.00  0.00    -0.274 OA
HETATM   26  H   UNL     1       7.526  30.386  59.922  1.00  0.00     0.162 HD
BRANCH  24  27
HETATM   27  C   UNL     1       7.884  31.379  62.257  1.00  0.00     0.107 C 
BRANCH  27  28
HETATM   28  C   UNL     1       8.064  32.449  63.337  1.00  0.00     0.048 C 
BRANCH  28  29
HETATM   29  C   UNL     1       6.847  33.219  63.813  1.00  0.00    -0.057 A 
HETATM   30  C   UNL     1       6.630  33.568  65.149  1.00  0.00     0.018 A 
HETATM   31  C   UNL     1       5.475  34.250  65.590  1.00  0.00    -0.016 A 
HETATM   32  C   UNL     1       4.554  34.625  64.588  1.00  0.00     0.079 A 
HETATM   33  C   UNL     1       4.734  34.331  63.213  1.00  0.00    -0.016 A 
HETATM   34  C   UNL     1       5.889  33.604  62.865  1.00  0.00     0.018 A 
BRANCH  31  35
HETATM   35  C   UNL     1       5.383  34.628  67.095  1.00  0.00    -0.021 C 
HETATM   36  C   UNL     1       5.014  36.123  67.182  1.00  0.00     0.019 C 
HETATM   37  C   UNL     1       4.351  33.833  67.926  1.00  0.00     0.019 C 
HETATM   38  C   UNL     1       6.737  34.413  67.829  1.00  0.00     0.019 C 
ENDBRANCH  31  35
BRANCH  32  39
HETATM   39  O   UNL     1       3.444  35.346  64.922  1.00  0.00    -0.360 OA
HETATM   40  H   UNL     1       2.679  34.776  64.739  1.00  0.00     0.217 HD
ENDBRANCH  32  39
BRANCH  33  41
HETATM   41  C   UNL     1       3.739  34.812  62.124  1.00  0.00    -0.021 C 
HETATM   42  C   UNL     1       2.352  34.168  62.344  1.00  0.00     0.019 C 
HETATM   43  C   UNL     1       3.506  36.346  62.129  1.00  0.00     0.019 C 
HETATM   44  C   UNL     1       4.261  34.470  60.710  1.00  0.00     0.019 C 
ENDBRANCH  33  41
ENDBRANCH  28  29
ENDBRANCH  27  28
ENDBRANCH  24  27
ENDBRANCH   1  23
TORSDOF 10
ENDMDL
MODEL 2
REMARK VINA RESULT:     -10.1      0.103      2.936
REMARK  10 active torsions:
REMARK  status: ('A' for Active; 'I' for Inactive)
REMARK    1  A    between atoms: N_15  and  C_16 
REMARK    2  A    between atoms: C_16  and  C_17 
REMARK    3  A    between atoms: C_17  and  N_18 
REMARK       I    between atoms: N_18  and  C_19 
REMARK    4  A    between atoms: C_19  and  C_20 
REMARK    5  A    between atoms: C_20  and  C_21 
REMARK    6  A    between atoms: C_21  and  C_22 
REMARK    7  A    between atoms: C_24  and  C_25 
REMARK    8  A    between atoms: C_29  and  O_30 
REMARK    9  A    between atoms: C_31  and  C_32 
REMARK   10  A    between atoms: C_38  and  O_39 
ROOT
HETATM    1  C   UNL     1       9.073  31.117  58.650  1.00  0.00     0.142 C 
ENDROOT
BRANCH   1   2
HETATM    2  C   UNL     1       9.537  29.771  58.074  1.00  0.00     0.151 C 
BRANCH   2   3
HETATM    3  N   UNL     1       8.778  29.318  56.892  1.00  0.00    -0.291 N 
HETATM    4  C   UNL     1       9.305  29.374  55.634  1.00  0.00     0.366 A 
HETATM    5  O   UNL     1       8.482  28.742  54.761  1.00  0.00    -0.287 OA
HETATM    6  O   UNL     1      10.346  29.908  55.299  1.00  0.00    -0.238 OA
HETATM    7  C   UNL     1       7.303  28.173  55.424  1.00  0.00     0.126 A 
HETATM    8  C   UNL     1       6.133  28.904  54.734  1.00  0.00     0.082 C 
HETATM    9  C   UNL     1       7.567  28.548  56.929  1.00  0.00     0.166 A 
HETATM   10  C   UNL     1       7.331  26.691  54.995  1.00  0.00     0.082 C 
HETATM   11  C   UNL     1       4.763  28.233  54.847  1.00  0.00     0.122 C 
HETATM   12  N   UNL     1       4.894  26.804  54.374  1.00  0.00    -0.059 N 
HETATM   13  C   UNL     1       3.788  28.919  53.865  1.00  0.00     0.046 C 
HETATM   14  C   UNL     1       4.119  28.282  56.232  1.00  0.00     0.046 C 
HETATM   15  C   UNL     1       6.000  25.917  54.896  1.00  0.00     0.122 C 
HETATM   16  H   UNL     1       4.998  26.843  53.348  1.00  0.00     0.279 HD
HETATM   17  H   UNL     1       3.989  26.325  54.506  1.00  0.00     0.279 HD
HETATM   18  C   UNL     1       6.167  24.794  53.843  1.00  0.00     0.046 C 
HETATM   19  C   UNL     1       5.545  25.229  56.186  1.00  0.00     0.046 C 
HETATM   20  C   UNL     1       7.663  27.384  57.906  1.00  0.00     0.074 C 
BRANCH   9  21
HETATM   21  O   UNL     1       6.570  29.452  57.376  1.00  0.00    -0.368 OA
HETATM   22  H   UNL     1       5.952  28.885  57.877  1.00  0.00     0.212 HD
ENDBRANCH   9  21
ENDBRANCH   2   3
ENDBRANCH   1   2
BRANCH   1  23
HETATM   23  N   UNL     1       8.314  31.000  59.886  1.00  0.00    -0.359 N 
HETATM   24  C   UNL     1       8.787  31.524  61.067  1.00  0.00     0.217 C 
HETATM   25  O   UNL     1       9.869  32.098  61.145  1.00  0.00    -0.274 OA
HETATM   26  H   UNL     1       7.510  30.387  59.916  1.00  0.00     0.162 HD
BRANCH  24  27
HETATM   27  C   UNL     1       7.859  31.369  62.258  1.00  0.00     0.107 C 
BRANCH  27  28
HETATM   28  C   UNL     1       8.023  32.438  63.341  1.00  0.00     0.048 C 
BRANCH  28  29
HETATM   29  C   UNL     1       6.819  33.272  63.732  1.00  0.00    -0.057 A 
HETATM   30  C   UNL     1       5.848  33.700  62.822  1.00  0.00     0.018 A 
HETATM   31  C   UNL     1       4.751  34.510  63.187  1.00  0.00    -0.016 A 
HETATM   32  C   UNL     1       4.642  34.828  64.558  1.00  0.00     0.079 A 
HETATM   33  C   UNL     1       5.575  34.396  65.536  1.00  0.00    -0.016 A 
HETATM   34  C   UNL     1       6.667  33.634  65.078  1.00  0.00     0.018 A 
BRANCH  31  35
HETATM   35  C   UNL     1       3.713  34.869  62.087  1.00  0.00    -0.021 C 
HETATM   36  C   UNL     1       4.274  34.382  60.735  1.00  0.00     0.019 C 
HETATM   37  C   UNL     1       2.305  34.260  62.266  1.00  0.00     0.019 C 
HETATM   38  C   UNL     1       3.475  36.403  61.996  1.00  0.00     0.019 C 
ENDBRANCH  31  35
BRANCH  32  39
HETATM   39  O   UNL     1       3.574  35.551  65.005  1.00  0.00    -0.360 OA
HETATM   40  H   UNL     1       3.032  35.754  64.225  1.00  0.00     0.217 HD
ENDBRANCH  32  39
BRANCH  33  41
HETATM   41  C   UNL     1       5.396  34.704  67.046  1.00  0.00    -0.021 C 
HETATM   42  C   UNL     1       6.715  34.437  67.806  1.00  0.00     0.019 C 
HETATM   43  C   UNL     1       5.023  36.181  67.339  1.00  0.00     0.019 C 
HETATM   44  C   UNL     1       4.258  33.853  67.651  1.00  0.00     0.019 C 
ENDBRANCH  33  41
ENDBRANCH  28  29
ENDBRANCH  27  28
ENDBRANCH  24  27
ENDBRANCH   1  23
TORSDOF 10
ENDMDL
MODEL 3
REMARK VINA RESULT:      -9.9      1.208      3.627
REMARK  10 active torsions:
REMARK  status: ('A' for Active; 'I' for Inactive)
REMARK    1  A    between atoms: N_15  and  C_16 
REMARK    2  A    between atoms: C_16  and  C_17 
REMARK    3  A    between atoms: C_17  and  N_18 
REMARK       I    between atoms: N_18  and  C_19 
REMARK    4  A    between atoms: C_19  and  C_20 
REMARK    5  A    between atoms: C_20  and  C_21 
REMARK    6  A    between atoms: C_21  and  C_22 
REMARK    7  A    between atoms: C_24  and  C_25 
REMARK    8  A    between atoms: C_29  and  O_30 
REMARK    9  A    between atoms: C_31  and  C_32 
REMARK   10  A    between atoms: C_38  and  O_39 
ROOT
HETATM    1  C   UNL     1       9.673  30.397  59.322  1.00  0.00     0.142 C 
ENDROOT
BRANCH   1   2
HETATM    2  C   UNL     1       9.071  30.801  57.968  1.00  0.00     0.151 C 
BRANCH   2   3
HETATM    3  N   UNL     1       7.845  30.067  57.601  1.00  0.00    -0.291 N 
HETATM    4  C   UNL     1       6.602  30.583  57.831  1.00  0.00     0.366 A 
HETATM    5  O   UNL     1       5.663  29.797  57.248  1.00  0.00    -0.287 OA
HETATM    6  O   UNL     1       6.330  31.586  58.464  1.00  0.00    -0.238 OA
HETATM    7  C   UNL     1       6.256  28.661  56.534  1.00  0.00     0.126 A 
HETATM    8  C   UNL     1       5.648  27.443  57.261  1.00  0.00     0.082 C 
HETATM    9  C   UNL     1       7.793  28.908  56.756  1.00  0.00     0.166 A 
HETATM   10  C   UNL     1       5.665  28.781  55.114  1.00  0.00     0.082 C 
HETATM   11  C   UNL     1       5.683  26.119  56.495  1.00  0.00     0.122 C 
HETATM   12  N   UNL     1       5.055  26.339  55.139  1.00  0.00    -0.059 N 
HETATM   13  C   UNL     1       4.782  25.097  57.222  1.00  0.00     0.046 C 
HETATM   14  C   UNL     1       7.064  25.480  56.349  1.00  0.00     0.046 C 
HETATM   15  C   UNL     1       5.478  27.502  54.272  1.00  0.00     0.122 C 
HETATM   16  H   UNL     1       4.040  26.435  55.298  1.00  0.00     0.279 HD
HETATM   17  H   UNL     1       5.131  25.467  54.591  1.00  0.00     0.279 HD
HETATM   18  C   UNL     1       4.307  27.735  53.286  1.00  0.00     0.046 C 
HETATM   19  C   UNL     1       6.683  27.098  53.418  1.00  0.00     0.046 C 
HETATM   20  C   UNL     1       8.636  29.083  55.500  1.00  0.00     0.074 C 
BRANCH   9  21
HETATM   21  O   UNL     1       8.336  27.857  57.539  1.00  0.00    -0.368 OA
HETATM   22  H   UNL     1       9.078  28.282  58.011  1.00  0.00     0.212 HD
ENDBRANCH   9  21
ENDBRANCH   2   3
ENDBRANCH   1   2
BRANCH   1  23
HETATM   23  N   UNL     1       8.748  30.515  60.439  1.00  0.00    -0.359 N 
HETATM   24  C   UNL     1       9.005  31.359  61.494  1.00  0.00     0.217 C 
HETATM   25  O   UNL     1      10.024  32.038  61.560  1.00  0.00    -0.274 OA
HETATM   26  H   UNL     1       7.987  29.853  60.522  1.00  0.00     0.162 HD
BRANCH  24  27
HETATM   27  C   UNL     1       7.920  31.412  62.555  1.00  0.00     0.107 C 
BRANCH  27  28
HETATM   28  C   UNL     1       8.057  32.565  63.552  1.00  0.00     0.048 C 
BRANCH  28  29
HETATM   29  C   UNL     1       6.817  33.350  63.936  1.00  0.00    -0.057 A 
HETATM   30  C   UNL     1       5.823  33.716  63.024  1.00  0.00     0.018 A 
HETATM   31  C   UNL     1       4.692  34.481  63.381  1.00  0.00    -0.016 A 
HETATM   32  C   UNL     1       4.575  34.818  64.747  1.00  0.00     0.079 A 
HETATM   33  C   UNL     1       5.532  34.447  65.726  1.00  0.00    -0.016 A 
HETATM   34  C   UNL     1       6.656  33.728  65.276  1.00  0.00     0.018 A 
BRANCH  31  35
HETATM   35  C   UNL     1       3.633  34.772  62.282  1.00  0.00    -0.021 C 
HETATM   36  C   UNL     1       4.091  34.065  60.989  1.00  0.00     0.019 C 
HETATM   37  C   UNL     1       2.193  34.306  62.594  1.00  0.00     0.019 C 
HETATM   38  C   UNL     1       3.505  36.293  61.990  1.00  0.00     0.019 C 
ENDBRANCH  31  35
BRANCH  32  39
HETATM   39  O   UNL     1       3.477  35.499  65.187  1.00  0.00    -0.360 OA
HETATM   40  H   UNL     1       3.071  34.951  65.879  1.00  0.00     0.217 HD
ENDBRANCH  32  39
BRANCH  33  41
HETATM   41  C   UNL     1       5.347  34.774  67.232  1.00  0.00    -0.021 C 
HETATM   42  C   UNL     1       4.238  33.885  67.840  1.00  0.00     0.019 C 
HETATM   43  C   UNL     1       6.618  34.518  68.085  1.00  0.00     0.019 C 
HETATM   44  C   UNL     1       4.998  36.265  67.434  1.00  0.00     0.019 C 
ENDBRANCH  33  41
ENDBRANCH  28  29
ENDBRANCH  27  28
ENDBRANCH  24  27
ENDBRANCH   1  23
TORSDOF 10
ENDMDL
MODEL 4
REMARK VINA RESULT:      -9.9      1.218      2.247
REMARK  10 active torsions:
REMARK  status: ('A' for Active; 'I' for Inactive)
REMARK    1  A    between atoms: N_15  and  C_16 
REMARK    2  A    between atoms: C_16  and  C_17 
REMARK    3  A    between atoms: C_17  and  N_18 
REMARK       I    between atoms: N_18  and  C_19 
REMARK    4  A    between atoms: C_19  and  C_20 
REMARK    5  A    between atoms: C_20  and  C_21 
REMARK    6  A    between atoms: C_21  and  C_22 
REMARK    7  A    between atoms: C_24  and  C_25 
REMARK    8  A    between atoms: C_29  and  O_30 
REMARK    9  A    between atoms: C_31  and  C_32 
REMARK   10  A    between atoms: C_38  and  O_39 
ROOT
HETATM    1  C   UNL     1       9.572  30.385  59.317  1.00  0.00     0.142 C 
ENDROOT
BRANCH   1   2
HETATM    2  C   UNL     1       8.966  30.821  57.975  1.00  0.00     0.151 C 
BRANCH   2   3
HETATM    3  N   UNL     1       7.763  30.065  57.574  1.00  0.00    -0.291 N 
HETATM    4  C   UNL     1       6.506  30.568  57.751  1.00  0.00     0.366 A 
HETATM    5  O   UNL     1       5.599  29.761  57.146  1.00  0.00    -0.287 OA
HETATM    6  O   UNL     1       6.198  31.575  58.359  1.00  0.00    -0.238 OA
HETATM    7  C   UNL     1       6.233  28.623  56.470  1.00  0.00     0.126 A 
HETATM    8  C   UNL     1       5.615  27.407  57.190  1.00  0.00     0.082 C 
HETATM    9  C   UNL     1       7.757  28.894  56.744  1.00  0.00     0.166 A 
HETATM   10  C   UNL     1       5.692  28.716  55.027  1.00  0.00     0.082 C 
HETATM   11  C   UNL     1       5.695  26.074  56.446  1.00  0.00     0.122 C 
HETATM   12  N   UNL     1       5.114  26.266  55.064  1.00  0.00    -0.059 N 
HETATM   13  C   UNL     1       4.781  25.050  57.153  1.00  0.00     0.046 C 
HETATM   14  C   UNL     1       7.088  25.452  56.358  1.00  0.00     0.046 C 
HETATM   15  C   UNL     1       5.553  27.423  54.197  1.00  0.00     0.122 C 
HETATM   16  H   UNL     1       4.092  26.351  55.185  1.00  0.00     0.279 HD
HETATM   17  H   UNL     1       5.221  25.389  54.532  1.00  0.00     0.279 HD
HETATM   18  C   UNL     1       4.416  27.628  53.166  1.00  0.00     0.046 C 
HETATM   19  C   UNL     1       6.793  27.025  53.393  1.00  0.00     0.046 C 
HETATM   20  C   UNL     1       8.643  29.064  55.516  1.00  0.00     0.074 C 
BRANCH   9  21
HETATM   21  O   UNL     1       8.285  27.862  57.561  1.00  0.00    -0.368 OA
HETATM   22  H   UNL     1       7.505  27.529  58.045  1.00  0.00     0.212 HD
ENDBRANCH   9  21
ENDBRANCH   2   3
ENDBRANCH   1   2
BRANCH   1  23
HETATM   23  N   UNL     1       8.673  30.544  60.450  1.00  0.00    -0.359 N 
HETATM   24  C   UNL     1       8.985  31.377  61.499  1.00  0.00     0.217 C 
HETATM   25  O   UNL     1      10.034  32.013  61.545  1.00  0.00    -0.274 OA
HETATM   26  H   UNL     1       7.887  29.914  60.549  1.00  0.00     0.162 HD
BRANCH  24  27
HETATM   27  C   UNL     1       7.924  31.478  62.580  1.00  0.00     0.107 C 
BRANCH  27  28
HETATM   28  C   UNL     1       8.086  32.668  63.528  1.00  0.00     0.048 C 
BRANCH  28  29
HETATM   29  C   UNL     1       6.843  33.364  64.047  1.00  0.00    -0.057 A 
HETATM   30  C   UNL     1       6.646  33.688  65.392  1.00  0.00     0.018 A 
HETATM   31  C   UNL     1       5.468  34.300  65.874  1.00  0.00    -0.016 A 
HETATM   32  C   UNL     1       4.498  34.632  64.904  1.00  0.00     0.079 A 
HETATM   33  C   UNL     1       4.654  34.361  63.521  1.00  0.00    -0.016 A 
HETATM   34  C   UNL     1       5.837  33.703  63.131  1.00  0.00     0.018 A 
BRANCH  31  35
HETATM   35  C   UNL     1       5.400  34.658  67.385  1.00  0.00    -0.021 C 
HETATM   36  C   UNL     1       4.968  36.134  67.499  1.00  0.00     0.019 C 
HETATM   37  C   UNL     1       4.426  33.810  68.234  1.00  0.00     0.019 C 
HETATM   38  C   UNL     1       6.780  34.495  68.081  1.00  0.00     0.019 C 
ENDBRANCH  31  35
BRANCH  32  39
HETATM   39  O   UNL     1       3.360  35.286  65.278  1.00  0.00    -0.360 OA
HETATM   40  H   UNL     1       3.428  36.186  64.919  1.00  0.00     0.217 HD
ENDBRANCH  32  39
BRANCH  33  41
HETATM   41  C   UNL     1       3.602  34.796  62.466  1.00  0.00    -0.021 C 
HETATM   42  C   UNL     1       3.435  36.332  62.479  1.00  0.00     0.019 C 
HETATM   43  C   UNL     1       3.986  34.417  61.011  1.00  0.00     0.019 C 
HETATM   44  C   UNL     1       2.241  34.116  62.733  1.00  0.00     0.019 C 
ENDBRANCH  33  41
ENDBRANCH  28  29
ENDBRANCH  27  28
ENDBRANCH  24  27
ENDBRANCH   1  23
TORSDOF 10
ENDMDL
MODEL 5
REMARK VINA RESULT:      -9.7      2.251      4.475
REMARK  10 active torsions:
REMARK  status: ('A' for Active; 'I' for Inactive)
REMARK    1  A    between atoms: N_15  and  C_16 
REMARK    2  A    between atoms: C_16  and  C_17 
REMARK    3  A    between atoms: C_17  and  N_18 
REMARK       I    between atoms: N_18  and  C_19 
REMARK    4  A    between atoms: C_19  and  C_20 
REMARK    5  A    between atoms: C_20  and  C_21 
REMARK    6  A    between atoms: C_21  and  C_22 
REMARK    7  A    between atoms: C_24  and  C_25 
REMARK    8  A    between atoms: C_29  and  O_30 
REMARK    9  A    between atoms: C_31  and  C_32 
REMARK   10  A    between atoms: C_38  and  O_39 
ROOT
HETATM    1  C   UNL     1       4.041  29.976  56.272  1.00  0.00     0.142 C 
ENDROOT
BRANCH   1   2
HETATM    2  C   UNL     1       4.634  28.777  57.026  1.00  0.00     0.151 C 
BRANCH   2   3
HETATM    3  N   UNL     1       5.730  28.089  56.316  1.00  0.00    -0.291 N 
HETATM    4  C   UNL     1       6.987  28.617  56.249  1.00  0.00     0.366 A 
HETATM    5  O   UNL     1       7.836  27.715  55.697  1.00  0.00    -0.287 OA
HETATM    6  O   UNL     1       7.336  29.726  56.608  1.00  0.00    -0.238 OA
HETATM    7  C   UNL     1       7.166  26.452  55.368  1.00  0.00     0.126 A 
HETATM    8  C   UNL     1       7.362  26.346  53.841  1.00  0.00     0.082 C 
HETATM    9  C   UNL     1       5.699  26.727  55.863  1.00  0.00     0.166 A 
HETATM   10  C   UNL     1       8.025  25.391  56.089  1.00  0.00     0.082 C 
HETATM   11  C   UNL     1       7.199  24.949  53.239  1.00  0.00     0.122 C 
HETATM   12  N   UNL     1       8.102  24.000  53.992  1.00  0.00    -0.059 N 
HETATM   13  C   UNL     1       7.719  24.968  51.785  1.00  0.00     0.046 C 
HETATM   14  C   UNL     1       5.769  24.412  53.202  1.00  0.00     0.046 C 
HETATM   15  C   UNL     1       8.098  23.966  55.503  1.00  0.00     0.122 C 
HETATM   16  H   UNL     1       9.067  24.218  53.698  1.00  0.00     0.279 HD
HETATM   17  H   UNL     1       7.952  23.043  53.635  1.00  0.00     0.279 HD
HETATM   18  C   UNL     1       9.455  23.342  55.910  1.00  0.00     0.046 C 
HETATM   19  C   UNL     1       7.018  22.999  55.995  1.00  0.00     0.046 C 
HETATM   20  C   UNL     1       5.161  25.785  56.933  1.00  0.00     0.074 C 
BRANCH   9  21
HETATM   21  O   UNL     1       4.814  26.728  54.755  1.00  0.00    -0.368 OA
HETATM   22  H   UNL     1       4.626  27.675  54.611  1.00  0.00     0.212 HD
ENDBRANCH   9  21
ENDBRANCH   2   3
ENDBRANCH   1   2
BRANCH   1  23
HETATM   23  N   UNL     1       4.556  31.263  56.713  1.00  0.00    -0.359 N 
HETATM   24  C   UNL     1       4.083  31.869  57.854  1.00  0.00     0.217 C 
HETATM   25  O   UNL     1       3.202  31.370  58.547  1.00  0.00    -0.274 OA
HETATM   26  H   UNL     1       5.148  31.798  56.091  1.00  0.00     0.162 HD
BRANCH  24  27
HETATM   27  C   UNL     1       4.756  33.182  58.212  1.00  0.00     0.107 C 
BRANCH  27  28
HETATM   28  C   UNL     1       4.441  33.700  59.617  1.00  0.00     0.048 C 
BRANCH  28  29
HETATM   29  C   UNL     1       5.423  33.418  60.738  1.00  0.00    -0.057 A 
HETATM   30  C   UNL     1       5.284  33.930  62.031  1.00  0.00     0.018 A 
HETATM   31  C   UNL     1       6.224  33.695  63.058  1.00  0.00    -0.016 A 
HETATM   32  C   UNL     1       7.306  32.851  62.730  1.00  0.00     0.079 A 
HETATM   33  C   UNL     1       7.484  32.274  61.447  1.00  0.00    -0.016 A 
HETATM   34  C   UNL     1       6.528  32.599  60.465  1.00  0.00     0.018 A 
BRANCH  31  35
HETATM   35  C   UNL     1       5.922  34.277  64.468  1.00  0.00    -0.021 C 
HETATM   36  C   UNL     1       4.714  33.509  65.044  1.00  0.00     0.019 C 
HETATM   37  C   UNL     1       7.074  34.189  65.493  1.00  0.00     0.019 C 
HETATM   38  C   UNL     1       5.559  35.787  64.404  1.00  0.00     0.019 C 
ENDBRANCH  31  35
BRANCH  32  39
HETATM   39  O   UNL     1       8.224  32.520  63.685  1.00  0.00    -0.360 OA
HETATM   40  H   UNL     1       7.920  31.687  64.082  1.00  0.00     0.217 HD
ENDBRANCH  32  39
BRANCH  33  41
HETATM   41  C   UNL     1       8.647  31.296  61.130  1.00  0.00    -0.021 C 
HETATM   42  C   UNL     1       8.821  30.281  62.283  1.00  0.00     0.019 C 
HETATM   43  C   UNL     1       8.419  30.454  59.847  1.00  0.00     0.019 C 
HETATM   44  C   UNL     1       9.967  32.066  60.901  1.00  0.00     0.019 C 
ENDBRANCH  33  41
ENDBRANCH  28  29
ENDBRANCH  27  28
ENDBRANCH  24  27
ENDBRANCH   1  23
TORSDOF 10
ENDMDL
MODEL 6
REMARK VINA RESULT:      -9.7      1.753      2.452
REMARK  10 active torsions:
REMARK  status: ('A' for Active; 'I' for Inactive)
REMARK    1  A    between atoms: N_15  and  C_16 
REMARK    2  A    between atoms: C_16  and  C_17 
REMARK    3  A    between atoms: C_17  and  N_18 
REMARK       I    between atoms: N_18  and  C_19 
REMARK    4  A    between atoms: C_19  and  C_20 
REMARK    5  A    between atoms: C_20  and  C_21 
REMARK    6  A    between atoms: C_21  and  C_22 
REMARK    7  A    between atoms: C_24  and  C_25 
REMARK    8  A    between atoms: C_29  and  O_30 
REMARK    9  A    between atoms: C_31  and  C_32 
REMARK   10  A    between atoms: C_38  and  O_39 
ROOT
HETATM    1  C   UNL     1       9.070  29.548  57.989  1.00  0.00     0.142 C 
ENDROOT
BRANCH   1   2
HETATM    2  C   UNL     1       7.739  29.748  57.249  1.00  0.00     0.151 C 
BRANCH   2   3
HETATM    3  N   UNL     1       7.687  29.135  55.908  1.00  0.00    -0.291 N 
HETATM    4  C   UNL     1       8.770  29.132  55.076  1.00  0.00     0.366 A 
HETATM    5  O   UNL     1       8.513  28.362  53.990  1.00  0.00    -0.287 OA
HETATM    6  O   UNL     1       9.821  29.723  55.240  1.00  0.00    -0.238 OA
HETATM    7  C   UNL     1       7.181  27.751  54.046  1.00  0.00     0.126 A 
HETATM    8  C   UNL     1       6.488  28.319  52.790  1.00  0.00     0.082 C 
HETATM    9  C   UNL     1       6.645  28.270  55.430  1.00  0.00     0.166 A 
HETATM   10  C   UNL     1       7.468  26.246  53.858  1.00  0.00     0.082 C 
HETATM   11  C   UNL     1       5.268  27.546  52.288  1.00  0.00     0.122 C 
HETATM   12  N   UNL     1       5.664  26.099  52.108  1.00  0.00    -0.059 N 
HETATM   13  C   UNL     1       4.891  28.062  50.882  1.00  0.00     0.046 C 
HETATM   14  C   UNL     1       4.017  27.654  53.160  1.00  0.00     0.046 C 
HETATM   15  C   UNL     1       6.390  25.356  53.205  1.00  0.00     0.122 C 
HETATM   16  H   UNL     1       6.265  26.062  51.270  1.00  0.00     0.279 HD
HETATM   17  H   UNL     1       4.831  25.557  51.831  1.00  0.00     0.279 HD
HETATM   18  C   UNL     1       7.098  24.168  52.508  1.00  0.00     0.046 C 
HETATM   19  C   UNL     1       5.375  24.741  54.172  1.00  0.00     0.046 C 
HETATM   20  C   UNL     1       6.279  27.204  56.454  1.00  0.00     0.074 C 
BRANCH   9  21
HETATM   21  O   UNL     1       5.529  29.120  55.221  1.00  0.00    -0.368 OA
HETATM   22  H   UNL     1       5.591  29.353  54.275  1.00  0.00     0.212 HD
ENDBRANCH   9  21
ENDBRANCH   2   3
ENDBRANCH   1   2
BRANCH   1  23
HETATM   23  N   UNL     1       9.202  30.354  59.193  1.00  0.00    -0.359 N 
HETATM   24  C   UNL     1       9.926  31.524  59.194  1.00  0.00     0.217 C 
HETATM   25  O   UNL     1      10.506  31.940  58.196  1.00  0.00    -0.274 OA
HETATM   26  H   UNL     1       8.898  29.972  60.079  1.00  0.00     0.162 HD
BRANCH  24  27
HETATM   27  C   UNL     1       9.927  32.280  60.511  1.00  0.00     0.107 C 
BRANCH  27  28
HETATM   28  C   UNL     1       9.002  31.699  61.583  1.00  0.00     0.048 C 
BRANCH  28  29
HETATM   29  C   UNL     1       7.665  32.367  61.834  1.00  0.00    -0.057 A 
HETATM   30  C   UNL     1       7.318  32.966  63.049  1.00  0.00     0.018 A 
HETATM   31  C   UNL     1       6.056  33.551  63.288  1.00  0.00    -0.016 A 
HETATM   32  C   UNL     1       5.157  33.558  62.200  1.00  0.00     0.079 A 
HETATM   33  C   UNL     1       5.462  32.997  60.933  1.00  0.00    -0.016 A 
HETATM   34  C   UNL     1       6.724  32.389  60.795  1.00  0.00     0.018 A 
BRANCH  31  35
HETATM   35  C   UNL     1       5.819  34.233  64.665  1.00  0.00    -0.021 C 
HETATM   36  C   UNL     1       7.073  33.992  65.530  1.00  0.00     0.019 C 
HETATM   37  C   UNL     1       5.553  35.754  64.625  1.00  0.00     0.019 C 
HETATM   38  C   UNL     1       4.590  33.632  65.403  1.00  0.00     0.019 C 
ENDBRANCH  31  35
BRANCH  32  39
HETATM   39  O   UNL     1       3.940  34.163  62.328  1.00  0.00    -0.360 OA
HETATM   40  H   UNL     1       3.321  33.657  61.777  1.00  0.00     0.217 HD
ENDBRANCH  32  39
BRANCH  33  41
HETATM   41  C   UNL     1       4.481  33.076  59.733  1.00  0.00    -0.021 C 
HETATM   42  C   UNL     1       3.249  32.178  59.990  1.00  0.00     0.019 C 
HETATM   43  C   UNL     1       3.927  34.502  59.475  1.00  0.00     0.019 C 
HETATM   44  C   UNL     1       5.179  32.651  58.422  1.00  0.00     0.019 C 
ENDBRANCH  33  41
ENDBRANCH  28  29
ENDBRANCH  27  28
ENDBRANCH  24  27
ENDBRANCH   1  23
TORSDOF 10
ENDMDL
MODEL 7
REMARK VINA RESULT:      -9.7      2.282      4.854
REMARK  10 active torsions:
REMARK  status: ('A' for Active; 'I' for Inactive)
REMARK    1  A    between atoms: N_15  and  C_16 
REMARK    2  A    between atoms: C_16  and  C_17 
REMARK    3  A    between atoms: C_17  and  N_18 
REMARK       I    between atoms: N_18  and  C_19 
REMARK    4  A    between atoms: C_19  and  C_20 
REMARK    5  A    between atoms: C_20  and  C_21 
REMARK    6  A    between atoms: C_21  and  C_22 
REMARK    7  A    between atoms: C_24  and  C_25 
REMARK    8  A    between atoms: C_29  and  O_30 
REMARK    9  A    between atoms: C_31  and  C_32 
REMARK   10  A    between atoms: C_38  and  O_39 
ROOT
HETATM    1  C   UNL     1       4.122  29.459  56.572  1.00  0.00     0.142 C 
ENDROOT
BRANCH   1   2
HETATM    2  C   UNL     1       4.857  28.314  57.284  1.00  0.00     0.151 C 
BRANCH   2   3
HETATM    3  N   UNL     1       5.917  27.675  56.480  1.00  0.00    -0.291 N 
HETATM    4  C   UNL     1       7.176  28.198  56.405  1.00  0.00     0.366 A 
HETATM    5  O   UNL     1       7.994  27.335  55.752  1.00  0.00    -0.287 OA
HETATM    6  O   UNL     1       7.550  29.273  56.834  1.00  0.00    -0.238 OA
HETATM    7  C   UNL     1       7.298  26.107  55.352  1.00  0.00     0.126 A 
HETATM    8  C   UNL     1       7.434  26.118  53.816  1.00  0.00     0.082 C 
HETATM    9  C   UNL     1       5.855  26.353  55.925  1.00  0.00     0.166 A 
HETATM   10  C   UNL     1       8.173  24.987  55.954  1.00  0.00     0.082 C 
HETATM   11  C   UNL     1       7.234  24.774  53.114  1.00  0.00     0.122 C 
HETATM   12  N   UNL     1       8.155  23.762  53.755  1.00  0.00    -0.059 N 
HETATM   13  C   UNL     1       7.696  24.902  51.646  1.00  0.00     0.046 C 
HETATM   14  C   UNL     1       5.797  24.251  53.092  1.00  0.00     0.046 C 
HETATM   15  C   UNL     1       8.209  23.611  55.257  1.00  0.00     0.122 C 
HETATM   16  H   UNL     1       9.110  23.995  53.440  1.00  0.00     0.279 HD
HETATM   17  H   UNL     1       7.981  22.837  53.331  1.00  0.00     0.279 HD
HETATM   18  C   UNL     1       9.575  22.947  55.561  1.00  0.00     0.046 C 
HETATM   19  C   UNL     1       7.139  22.617  55.715  1.00  0.00     0.046 C 
HETATM   20  C   UNL     1       5.349  25.335  56.938  1.00  0.00     0.074 C 
BRANCH   9  21
HETATM   21  O   UNL     1       4.927  26.447  54.855  1.00  0.00    -0.368 OA
HETATM   22  H   UNL     1       4.092  26.125  55.246  1.00  0.00     0.212 HD
ENDBRANCH   9  21
ENDBRANCH   2   3
ENDBRANCH   1   2
BRANCH   1  23
HETATM   23  N   UNL     1       4.647  30.780  56.881  1.00  0.00    -0.359 N 
HETATM   24  C   UNL     1       4.107  31.547  57.887  1.00  0.00     0.217 C 
HETATM   25  O   UNL     1       3.153  31.171  58.561  1.00  0.00    -0.274 OA
HETATM   26  H   UNL     1       5.309  31.209  56.247  1.00  0.00     0.162 HD
BRANCH  24  27
HETATM   27  C   UNL     1       4.798  32.878  58.124  1.00  0.00     0.107 C 
BRANCH  27  28
HETATM   28  C   UNL     1       4.545  33.494  59.502  1.00  0.00     0.048 C 
BRANCH  28  29
HETATM   29  C   UNL     1       5.521  33.201  60.624  1.00  0.00    -0.057 A 
HETATM   30  C   UNL     1       6.648  32.387  60.473  1.00  0.00     0.018 A 
HETATM   31  C   UNL     1       7.530  32.087  61.532  1.00  0.00    -0.016 A 
HETATM   32  C   UNL     1       7.252  32.707  62.769  1.00  0.00     0.079 A 
HETATM   33  C   UNL     1       6.145  33.570  62.977  1.00  0.00    -0.016 A 
HETATM   34  C   UNL     1       5.286  33.777  61.880  1.00  0.00     0.018 A 
BRANCH  31  35
HETATM   35  C   UNL     1       8.777  31.214  61.216  1.00  0.00    -0.021 C 
HETATM   36  C   UNL     1       8.517  30.490  59.879  1.00  0.00     0.019 C 
HETATM   37  C   UNL     1      10.117  31.973  61.095  1.00  0.00     0.019 C 
HETATM   38  C   UNL     1       9.025  30.141  62.314  1.00  0.00     0.019 C 
ENDBRANCH  31  35
BRANCH  32  39
HETATM   39  O   UNL     1       8.094  32.522  63.827  1.00  0.00    -0.360 OA
HETATM   40  H   UNL     1       8.645  31.753  63.611  1.00  0.00     0.217 HD
ENDBRANCH  32  39
BRANCH  33  41
HETATM   41  C   UNL     1       5.898  34.292  64.328  1.00  0.00    -0.021 C 
HETATM   42  C   UNL     1       4.762  33.592  65.109  1.00  0.00     0.019 C 
HETATM   43  C   UNL     1       7.131  34.289  65.269  1.00  0.00     0.019 C 
HETATM   44  C   UNL     1       5.544  35.779  64.102  1.00  0.00     0.019 C 
ENDBRANCH  33  41
ENDBRANCH  28  29
ENDBRANCH  27  28
ENDBRANCH  24  27
ENDBRANCH   1  23
TORSDOF 10
ENDMDL
MODEL 8
REMARK VINA RESULT:      -9.7      1.964      3.427
REMARK  10 active torsions:
REMARK  status: ('A' for Active; 'I' for Inactive)
REMARK    1  A    between atoms: N_15  and  C_16 
REMARK    2  A    between atoms: C_16  and  C_17 
REMARK    3  A    between atoms: C_17  and  N_18 
REMARK       I    between atoms: N_18  and  C_19 
REMARK    4  A    between atoms: C_19  and  C_20 
REMARK    5  A    between atoms: C_20  and  C_21 
REMARK    6  A    between atoms: C_21  and  C_22 
REMARK    7  A    between atoms: C_24  and  C_25 
REMARK    8  A    between atoms: C_29  and  O_30 
REMARK    9  A    between atoms: C_31  and  C_32 
REMARK   10  A    between atoms: C_38  and  O_39 
ROOT
HETATM    1  C   UNL     1       8.980  29.662  57.781  1.00  0.00     0.142 C 
ENDROOT
BRANCH   1   2
HETATM    2  C   UNL     1       7.604  29.810  57.115  1.00  0.00     0.151 C 
BRANCH   2   3
HETATM    3  N   UNL     1       6.958  28.533  56.757  1.00  0.00    -0.291 N 
HETATM    4  C   UNL     1       5.654  28.274  57.070  1.00  0.00     0.366 A 
HETATM    5  O   UNL     1       5.261  27.117  56.482  1.00  0.00    -0.287 OA
HETATM    6  O   UNL     1       4.921  28.946  57.772  1.00  0.00    -0.238 OA
HETATM    7  C   UNL     1       6.329  26.513  55.677  1.00  0.00     0.126 A 
HETATM    8  C   UNL     1       6.538  25.143  56.355  1.00  0.00     0.082 C 
HETATM    9  C   UNL     1       7.492  27.558  55.848  1.00  0.00     0.166 A 
HETATM   10  C   UNL     1       5.674  26.325  54.293  1.00  0.00     0.082 C 
HETATM   11  C   UNL     1       7.240  24.077  55.512  1.00  0.00     0.122 C 
HETATM   12  N   UNL     1       6.504  23.951  54.199  1.00  0.00    -0.059 N 
HETATM   13  C   UNL     1       7.096  22.709  56.215  1.00  0.00     0.046 C 
HETATM   14  C   UNL     1       8.731  24.307  55.270  1.00  0.00     0.046 C 
HETATM   15  C   UNL     1       6.161  25.177  53.386  1.00  0.00     0.122 C 
HETATM   16  H   UNL     1       5.615  23.468  54.407  1.00  0.00     0.279 HD
HETATM   17  H   UNL     1       7.007  23.279  53.598  1.00  0.00     0.279 HD
HETATM   18  C   UNL     1       4.989  24.754  52.465  1.00  0.00     0.046 C 
HETATM   19  C   UNL     1       7.329  25.525  52.459  1.00  0.00     0.046 C 
HETATM   20  C   UNL     1       8.013  28.201  54.569  1.00  0.00     0.074 C 
BRANCH   9  21
HETATM   21  O   UNL     1       8.573  26.960  56.544  1.00  0.00    -0.368 OA
HETATM   22  H   UNL     1       9.305  26.986  55.899  1.00  0.00     0.212 HD
ENDBRANCH   9  21
ENDBRANCH   2   3
ENDBRANCH   1   2
BRANCH   1  23
HETATM   23  N   UNL     1       9.118  30.410  59.022  1.00  0.00    -0.359 N 
HETATM   24  C   UNL     1       9.929  31.519  59.101  1.00  0.00     0.217 C 
HETATM   25  O   UNL     1      10.585  31.924  58.147  1.00  0.00    -0.274 OA
HETATM   26  H   UNL     1       8.745  30.021  59.877  1.00  0.00     0.162 HD
BRANCH  24  27
HETATM   27  C   UNL     1       9.927  32.223  60.446  1.00  0.00     0.107 C 
BRANCH  27  28
HETATM   28  C   UNL     1       8.994  31.605  61.491  1.00  0.00     0.048 C 
BRANCH  28  29
HETATM   29  C   UNL     1       7.669  32.284  61.779  1.00  0.00    -0.057 A 
HETATM   30  C   UNL     1       7.355  32.872  63.007  1.00  0.00     0.018 A 
HETATM   31  C   UNL     1       6.104  33.467  63.281  1.00  0.00    -0.016 A 
HETATM   32  C   UNL     1       5.182  33.495  62.213  1.00  0.00     0.079 A 
HETATM   33  C   UNL     1       5.454  32.947  60.933  1.00  0.00    -0.016 A 
HETATM   34  C   UNL     1       6.707  32.328  60.760  1.00  0.00     0.018 A 
BRANCH  31  35
HETATM   35  C   UNL     1       5.904  34.135  64.670  1.00  0.00    -0.021 C 
HETATM   36  C   UNL     1       7.151  33.827  65.523  1.00  0.00     0.019 C 
HETATM   37  C   UNL     1       5.702  35.666  64.658  1.00  0.00     0.019 C 
HETATM   38  C   UNL     1       4.655  33.573  65.406  1.00  0.00     0.019 C 
ENDBRANCH  31  35
BRANCH  32  39
HETATM   39  O   UNL     1       3.975  34.111  62.373  1.00  0.00    -0.360 OA
HETATM   40  H   UNL     1       4.086  35.024  62.061  1.00  0.00     0.217 HD
ENDBRANCH  32  39
BRANCH  33  41
HETATM   41  C   UNL     1       4.448  33.050  59.756  1.00  0.00    -0.021 C 
HETATM   42  C   UNL     1       5.036  32.385  58.490  1.00  0.00     0.019 C 
HETATM   43  C   UNL     1       3.097  32.337  60.028  1.00  0.00     0.019 C 
HETATM   44  C   UNL     1       4.095  34.525  59.460  1.00  0.00     0.019 C 
ENDBRANCH  33  41
ENDBRANCH  28  29
ENDBRANCH  27  28
ENDBRANCH  24  27
ENDBRANCH   1  23
TORSDOF 10
ENDMDL
MODEL 9
REMARK VINA RESULT:      -9.6      3.271     11.647
REMARK  10 active torsions:
REMARK  status: ('A' for Active; 'I' for Inactive)
REMARK    1  A    between atoms: N_15  and  C_16 
REMARK    2  A    between atoms: C_16  and  C_17 
REMARK    3  A    between atoms: C_17  and  N_18 
REMARK       I    between atoms: N_18  and  C_19 
REMARK    4  A    between atoms: C_19  and  C_20 
REMARK    5  A    between atoms: C_20  and  C_21 
REMARK    6  A    between atoms: C_21  and  C_22 
REMARK    7  A    between atoms: C_24  and  C_25 
REMARK    8  A    between atoms: C_29  and  O_30 
REMARK    9  A    between atoms: C_31  and  C_32 
REMARK   10  A    between atoms: C_38  and  O_39 
ROOT
HETATM    1  C   UNL     1       5.121  30.647  57.804  1.00  0.00     0.142 C 
ENDROOT
BRANCH   1   2
HETATM    2  C   UNL     1       5.412  32.151  57.917  1.00  0.00     0.151 C 
BRANCH   2   3
HETATM    3  N   UNL     1       5.172  32.721  59.256  1.00  0.00    -0.291 N 
HETATM    4  C   UNL     1       6.056  32.544  60.282  1.00  0.00     0.366 A 
HETATM    5  O   UNL     1       5.690  33.307  61.342  1.00  0.00    -0.287 OA
HETATM    6  O   UNL     1       7.031  31.816  60.292  1.00  0.00    -0.238 OA
HETATM    7  C   UNL     1       4.489  34.102  61.064  1.00  0.00     0.126 A 
HETATM    8  C   UNL     1       3.488  33.597  62.124  1.00  0.00     0.082 C 
HETATM    9  C   UNL     1       4.180  33.709  59.573  1.00  0.00     0.166 A 
HETATM   10  C   UNL     1       4.929  35.544  61.394  1.00  0.00     0.082 C 
HETATM   11  C   UNL     1       2.305  34.518  62.424  1.00  0.00     0.122 C 
HETATM   12  N   UNL     1       2.845  35.888  62.764  1.00  0.00    -0.059 N 
HETATM   13  C   UNL     1       1.588  34.015  63.695  1.00  0.00     0.046 C 
HETATM   14  C   UNL     1       1.252  34.617  61.319  1.00  0.00     0.046 C 
HETATM   15  C   UNL     1       3.869  36.556  61.876  1.00  0.00     0.122 C 
HETATM   16  H   UNL     1       3.264  35.813  63.704  1.00  0.00     0.279 HD
HETATM   17  H   UNL     1       2.052  36.533  62.905  1.00  0.00     0.279 HD
HETATM   18  C   UNL     1       4.572  37.609  62.768  1.00  0.00     0.046 C 
HETATM   19  C   UNL     1       3.159  37.340  60.768  1.00  0.00     0.046 C 
HETATM   20  C   UNL     1       4.171  34.849  58.563  1.00  0.00     0.074 C 
BRANCH   9  21
HETATM   21  O   UNL     1       2.942  33.020  59.508  1.00  0.00    -0.368 OA
HETATM   22  H   UNL     1       2.526  33.212  60.371  1.00  0.00     0.212 HD
ENDBRANCH   9  21
ENDBRANCH   2   3
ENDBRANCH   1   2
BRANCH   1  23
HETATM   23  N   UNL     1       6.312  29.812  57.835  1.00  0.00    -0.359 N 
HETATM   24  C   UNL     1       6.267  28.489  57.461  1.00  0.00     0.217 C 
HETATM   25  O   UNL     1       5.230  27.942  57.100  1.00  0.00    -0.274 OA
HETATM   26  H   UNL     1       7.147  30.159  58.289  1.00  0.00     0.162 HD
BRANCH  24  27
HETATM   27  C   UNL     1       7.601  27.764  57.496  1.00  0.00     0.107 C 
BRANCH  27  28
HETATM   28  C   UNL     1       7.511  26.275  57.839  1.00  0.00     0.048 C 
BRANCH  28  29
HETATM   29  C   UNL     1       7.520  25.264  56.709  1.00  0.00    -0.057 A 
HETATM   30  C   UNL     1       7.880  23.923  56.877  1.00  0.00     0.018 A 
HETATM   31  C   UNL     1       7.924  22.997  55.812  1.00  0.00    -0.016 A 
HETATM   32  C   UNL     1       7.522  23.482  54.549  1.00  0.00     0.079 A 
HETATM   33  C   UNL     1       7.113  24.821  54.321  1.00  0.00    -0.016 A 
HETATM   34  C   UNL     1       7.146  25.692  55.427  1.00  0.00     0.018 A 
BRANCH  31  35
HETATM   35  C   UNL     1       8.287  21.523  56.145  1.00  0.00    -0.021 C 
HETATM   36  C   UNL     1       7.150  20.628  55.611  1.00  0.00     0.019 C 
HETATM   37  C   UNL     1       9.617  21.007  55.552  1.00  0.00     0.019 C 
HETATM   38  C   UNL     1       8.417  21.291  57.676  1.00  0.00     0.019 C 
ENDBRANCH  31  35
BRANCH  32  39
HETATM   39  O   UNL     1       7.472  22.634  53.480  1.00  0.00    -0.360 OA
HETATM   40  H   UNL     1       6.644  22.134  53.563  1.00  0.00     0.217 HD
ENDBRANCH  32  39
BRANCH  33  41
HETATM   41  C   UNL     1       6.613  25.312  52.937  1.00  0.00    -0.021 C 
HETATM   42  C   UNL     1       5.238  24.686  52.612  1.00  0.00     0.019 C 
HETATM   43  C   UNL     1       6.415  26.849  52.856  1.00  0.00     0.019 C 
HETATM   44  C   UNL     1       7.628  24.959  51.827  1.00  0.00     0.019 C 
ENDBRANCH  33  41
ENDBRANCH  28  29
ENDBRANCH  27  28
ENDBRANCH  24  27
ENDBRANCH   1  23
TORSDOF 10
ENDMDL
MODEL 10
REMARK VINA RESULT:      -9.5      3.058      9.895
REMARK  10 active torsions:
REMARK  status: ('A' for Active; 'I' for Inactive)
REMARK    1  A    between atoms: N_15  and  C_16 
REMARK    2  A    between atoms: C_16  and  C_17 
REMARK    3  A    between atoms: C_17  and  N_18 
REMARK       I    between atoms: N_18  and  C_19 
REMARK    4  A    between atoms: C_19  and  C_20 
REMARK    5  A    between atoms: C_20  and  C_21 
REMARK    6  A    between atoms: C_21  and  C_22 
REMARK    7  A    between atoms: C_24  and  C_25 
REMARK    8  A    between atoms: C_29  and  O_30 
REMARK    9  A    between atoms: C_31  and  C_32 
REMARK   10  A    between atoms: C_38  and  O_39 
ROOT
HETATM    1  C   UNL     1       4.176  36.387  58.345  1.00  0.00     0.142 C 
ENDROOT
BRANCH   1   2
HETATM    2  C   UNL     1       3.636  37.018  59.637  1.00  0.00     0.151 C 
BRANCH   2   3
HETATM    3  N   UNL     1       4.452  36.750  60.836  1.00  0.00    -0.291 N 
HETATM    4  C   UNL     1       5.387  37.639  61.283  1.00  0.00     0.366 A 
HETATM    5  O   UNL     1       5.867  37.236  62.486  1.00  0.00    -0.287 OA
HETATM    6  O   UNL     1       5.771  38.646  60.717  1.00  0.00    -0.238 OA
HETATM    7  C   UNL     1       5.227  36.001  62.952  1.00  0.00     0.126 A 
HETATM    8  C   UNL     1       6.414  35.022  63.070  1.00  0.00     0.082 C 
HETATM    9  C   UNL     1       4.200  35.713  61.797  1.00  0.00     0.166 A 
HETATM   10  C   UNL     1       4.706  36.374  64.356  1.00  0.00     0.082 C 
HETATM   11  C   UNL     1       6.189  33.797  63.958  1.00  0.00     0.122 C 
HETATM   12  N   UNL     1       5.713  34.274  65.311  1.00  0.00    -0.059 N 
HETATM   13  C   UNL     1       7.545  33.101  64.204  1.00  0.00     0.046 C 
HETATM   14  C   UNL     1       5.234  32.744  63.396  1.00  0.00     0.046 C 
HETATM   15  C   UNL     1       4.582  35.269  65.425  1.00  0.00     0.122 C 
HETATM   16  H   UNL     1       6.532  34.694  65.778  1.00  0.00     0.279 HD
HETATM   17  H   UNL     1       5.498  33.452  65.897  1.00  0.00     0.279 HD
HETATM   18  C   UNL     1       4.738  35.921  66.820  1.00  0.00     0.046 C 
HETATM   19  C   UNL     1       3.242  34.527  65.447  1.00  0.00     0.046 C 
HETATM   20  C   UNL     1       2.732  35.655  62.198  1.00  0.00     0.074 C 
BRANCH   9  21
HETATM   21  O   UNL     1       4.551  34.508  61.136  1.00  0.00    -0.368 OA
HETATM   22  H   UNL     1       3.717  34.225  60.715  1.00  0.00     0.212 HD
ENDBRANCH   9  21
ENDBRANCH   2   3
ENDBRANCH   1   2
BRANCH   1  23
HETATM   23  N   UNL     1       3.619  35.075  58.052  1.00  0.00    -0.359 N 
HETATM   24  C   UNL     1       4.261  34.198  57.209  1.00  0.00     0.217 C 
HETATM   25  O   UNL     1       5.319  34.476  56.652  1.00  0.00    -0.274 OA
HETATM   26  H   UNL     1       2.671  34.866  58.338  1.00  0.00     0.162 HD
BRANCH  24  27
HETATM   27  C   UNL     1       3.583  32.850  57.044  1.00  0.00     0.107 C 
BRANCH  27  28
HETATM   28  C   UNL     1       3.846  31.859  58.180  1.00  0.00     0.048 C 
BRANCH  28  29
HETATM   29  C   UNL     1       5.178  31.136  58.227  1.00  0.00    -0.057 A 
HETATM   30  C   UNL     1       6.271  31.582  58.975  1.00  0.00     0.018 A 
HETATM   31  C   UNL     1       7.521  30.926  58.982  1.00  0.00    -0.016 A 
HETATM   32  C   UNL     1       7.603  29.736  58.227  1.00  0.00     0.079 A 
HETATM   33  C   UNL     1       6.519  29.213  57.475  1.00  0.00    -0.016 A 
HETATM   34  C   UNL     1       5.323  29.957  57.483  1.00  0.00     0.018 A 
BRANCH  31  35
HETATM   35  C   UNL     1       8.637  31.495  59.901  1.00  0.00    -0.021 C 
HETATM   36  C   UNL     1       8.094  32.779  60.561  1.00  0.00     0.019 C 
HETATM   37  C   UNL     1       9.129  30.555  61.024  1.00  0.00     0.019 C 
HETATM   38  C   UNL     1       9.917  31.861  59.098  1.00  0.00     0.019 C 
ENDBRANCH  31  35
BRANCH  32  39
HETATM   39  O   UNL     1       8.755  29.005  58.234  1.00  0.00    -0.360 OA
HETATM   40  H   UNL     1       9.427  29.543  57.784  1.00  0.00     0.217 HD
ENDBRANCH  32  39
BRANCH  33  41
HETATM   41  C   UNL     1       6.615  27.868  56.708  1.00  0.00    -0.021 C 
HETATM   42  C   UNL     1       7.470  28.040  55.432  1.00  0.00     0.019 C 
HETATM   43  C   UNL     1       7.285  26.732  57.524  1.00  0.00     0.019 C 
HETATM   44  C   UNL     1       5.210  27.346  56.334  1.00  0.00     0.019 C 
ENDBRANCH  33  41
ENDBRANCH  28  29
ENDBRANCH  27  28
ENDBRANCH  24  27
ENDBRANCH   1  23
TORSDOF 10
ENDMDL
