MODEL 1
REMARK VINA RESULT:      -9.2      0.000      0.000
REMARK  4 active torsions:
REMARK  status: ('A' for Active; 'I' for Inactive)
REMARK       I    between atoms: N_6  and  C_7 
REMARK    1  A    between atoms: C_7  and  C_8 
REMARK    2  A    between atoms: C_9  and  N_10 
REMARK       I    between atoms: N_10  and  C_11 
REMARK    3  A    between atoms: C_11  and  C_12 
REMARK    4  A    between atoms: N_20  and  C_21 
ROOT
HETATM    1  C   UNL     1       5.197  28.305  53.479  1.00  0.00     0.097 A 
HETATM    2  C   UNL     1       6.257  27.928  54.292  1.00  0.00     0.149 A 
HETATM    3  N   UNL     1       6.432  28.950  55.230  1.00  0.00    -0.217 N 
HETATM    4  N   UNL     1       5.436  29.867  55.137  1.00  0.00    -0.177 NA
HETATM    5  C   UNL     1       4.702  29.469  54.104  1.00  0.00     0.160 A 
ENDROOT
BRANCH   2   6
HETATM    6  N   UNL     1       6.963  26.728  54.251  1.00  0.00    -0.306 N 
HETATM    7  C   UNL     1       6.549  25.566  54.980  1.00  0.00     0.258 C 
HETATM    8  O   UNL     1       5.500  25.563  55.607  1.00  0.00    -0.267 OA
HETATM    9  H   UNL     1       7.723  26.655  53.581  1.00  0.00     0.170 HD
BRANCH   7  10
HETATM   10  C   UNL     1       7.329  24.348  54.680  1.00  0.00     0.049 A 
HETATM   11  C   UNL     1       8.334  23.865  55.526  1.00  0.00     0.026 A 
HETATM   12 BR   UNL     1       8.684  24.609  57.235  1.00  0.00    -0.050 Br
HETATM   13  C   UNL     1       9.117  22.780  55.121  1.00  0.00     0.020 A 
HETATM   14  C   UNL     1       8.901  22.186  53.875  1.00  0.00     0.001 A 
HETATM   15  C   UNL     1       7.891  22.659  53.038  1.00  0.00     0.001 A 
HETATM   16  C   UNL     1       7.099  23.734  53.440  1.00  0.00     0.018 A 
ENDBRANCH   7  10
ENDBRANCH   2   6
BRANCH   1  17
HETATM   17  C   UNL     1       4.600  27.567  52.382  1.00  0.00     0.259 C 
HETATM   18  N   UNL     1       4.238  28.270  51.224  1.00  0.00    -0.345 N 
HETATM   19  C   UNL     1       3.437  27.562  50.217  1.00  0.00     0.154 C 
HETATM   20  C   UNL     1       4.940  29.461  50.721  1.00  0.00     0.154 C 
HETATM   21  C   UNL     1       4.290  27.169  48.999  1.00  0.00     0.254 C 
HETATM   22  N   UNL     1       4.953  28.423  48.425  1.00  0.00    -0.072 N 
HETATM   23  C   UNL     1       5.744  28.123  47.184  1.00  0.00     0.269 C 
HETATM   24  H   UNL     1       4.199  29.066  48.143  1.00  0.00     0.279 HD
HETATM   25  C   UNL     1       5.796  29.132  49.479  1.00  0.00     0.254 C 
HETATM   26  O   UNL     1       4.383  26.360  52.477  1.00  0.00    -0.267 OA
ENDBRANCH   1  17
BRANCH   3  27
HETATM   27  C   UNL     1       7.505  29.151  56.152  1.00  0.00     0.060 A 
HETATM   28  C   UNL     1       8.843  29.221  55.738  1.00  0.00     0.031 A 
HETATM   29  C   UNL     1       9.863  29.431  56.673  1.00  0.00     0.002 A 
HETATM   30  C   UNL     1       9.557  29.592  58.020  1.00  0.00     0.000 A 
HETATM   31  C   UNL     1       8.229  29.551  58.439  1.00  0.00     0.002 A 
HETATM   32  C   UNL     1       7.207  29.333  57.513  1.00  0.00     0.031 A 
ENDBRANCH   3  27
TORSDOF 4
ENDMDL
MODEL 2
REMARK VINA RESULT:      -8.8      3.054      6.661
REMARK  4 active torsions:
REMARK  status: ('A' for Active; 'I' for Inactive)
REMARK       I    between atoms: N_6  and  C_7 
REMARK    1  A    between atoms: C_7  and  C_8 
REMARK    2  A    between atoms: C_9  and  N_10 
REMARK       I    between atoms: N_10  and  C_11 
REMARK    3  A    between atoms: C_11  and  C_12 
REMARK    4  A    between atoms: N_20  and  C_21 
ROOT
HETATM    1  C   UNL     1       4.432  29.526  54.457  1.00  0.00     0.097 A 
HETATM    2  C   UNL     1       5.588  28.806  54.728  1.00  0.00     0.149 A 
HETATM    3  N   UNL     1       5.393  27.519  54.217  1.00  0.00    -0.217 N 
HETATM    4  N   UNL     1       4.238  27.451  53.506  1.00  0.00    -0.177 NA
HETATM    5  C   UNL     1       3.682  28.649  53.644  1.00  0.00     0.160 A 
ENDROOT
BRANCH   2   6
HETATM    6  N   UNL     1       6.757  29.283  55.314  1.00  0.00    -0.306 N 
HETATM    7  C   UNL     1       7.022  29.159  56.717  1.00  0.00     0.258 C 
HETATM    8  O   UNL     1       6.255  28.547  57.445  1.00  0.00    -0.267 OA
HETATM    9  H   UNL     1       7.490  29.615  54.693  1.00  0.00     0.170 HD
BRANCH   7  10
HETATM   10  C   UNL     1       8.381  29.575  57.120  1.00  0.00     0.049 A 
HETATM   11  C   UNL     1       8.616  30.557  58.089  1.00  0.00     0.026 A 
HETATM   12 BR   UNL     1       7.229  31.333  59.124  1.00  0.00    -0.050 Br
HETATM   13  C   UNL     1       9.923  30.990  58.331  1.00  0.00     0.020 A 
HETATM   14  C   UNL     1      10.987  30.450  57.606  1.00  0.00     0.001 A 
HETATM   15  C   UNL     1      10.754  29.462  56.649  1.00  0.00     0.001 A 
HETATM   16  C   UNL     1       9.454  29.018  56.409  1.00  0.00     0.018 A 
ENDBRANCH   7  10
ENDBRANCH   2   6
BRANCH   1  17
HETATM   17  C   UNL     1       4.153  30.920  54.748  1.00  0.00     0.259 C 
HETATM   18  N   UNL     1       3.286  31.217  55.809  1.00  0.00    -0.345 N 
HETATM   19  C   UNL     1       2.837  32.609  55.953  1.00  0.00     0.154 C 
HETATM   20  C   UNL     1       3.146  30.400  57.024  1.00  0.00     0.154 C 
HETATM   21  C   UNL     1       3.553  33.310  57.119  1.00  0.00     0.254 C 
HETATM   22  N   UNL     1       3.335  32.502  58.400  1.00  0.00    -0.072 N 
HETATM   23  C   UNL     1       3.948  33.171  59.598  1.00  0.00     0.269 C 
HETATM   24  H   UNL     1       2.321  32.467  58.572  1.00  0.00     0.279 HD
HETATM   25  C   UNL     1       3.827  31.068  58.238  1.00  0.00     0.254 C 
HETATM   26  O   UNL     1       4.636  31.817  54.060  1.00  0.00    -0.267 OA
ENDBRANCH   1  17
BRANCH   3  27
HETATM   27  C   UNL     1       6.183  26.345  54.412  1.00  0.00     0.060 A 
HETATM   28  C   UNL     1       6.070  25.550  55.562  1.00  0.00     0.031 A 
HETATM   29  C   UNL     1       6.855  24.401  55.707  1.00  0.00     0.002 A 
HETATM   30  C   UNL     1       7.741  24.025  54.703  1.00  0.00     0.000 A 
HETATM   31  C   UNL     1       7.842  24.792  53.545  1.00  0.00     0.002 A 
HETATM   32  C   UNL     1       7.069  25.945  53.397  1.00  0.00     0.031 A 
ENDBRANCH   3  27
TORSDOF 4
ENDMDL
MODEL 3
REMARK VINA RESULT:      -8.5      2.277      5.639
REMARK  4 active torsions:
REMARK  status: ('A' for Active; 'I' for Inactive)
REMARK       I    between atoms: N_6  and  C_7 
REMARK    1  A    between atoms: C_7  and  C_8 
REMARK    2  A    between atoms: C_9  and  N_10 
REMARK       I    between atoms: N_10  and  C_11 
REMARK    3  A    between atoms: C_11  and  C_12 
REMARK    4  A    between atoms: N_20  and  C_21 
ROOT
HETATM    1  C   UNL     1       5.521  28.123  51.510  1.00  0.00     0.097 A 
HETATM    2  C   UNL     1       6.303  27.537  52.496  1.00  0.00     0.149 A 
HETATM    3  N   UNL     1       6.338  26.165  52.225  1.00  0.00    -0.217 N 
HETATM    4  N   UNL     1       5.746  25.894  51.034  1.00  0.00    -0.177 NA
HETATM    5  C   UNL     1       5.276  27.062  50.612  1.00  0.00     0.160 A 
ENDROOT
BRANCH   2   6
HETATM    6  N   UNL     1       6.999  28.185  53.513  1.00  0.00    -0.306 N 
HETATM    7  C   UNL     1       6.449  28.376  54.823  1.00  0.00     0.258 C 
HETATM    8  O   UNL     1       5.366  27.895  55.121  1.00  0.00    -0.267 OA
HETATM    9  H   UNL     1       7.974  28.414  53.341  1.00  0.00     0.170 HD
BRANCH   7  10
HETATM   10  C   UNL     1       7.398  28.935  55.807  1.00  0.00     0.049 A 
HETATM   11  C   UNL     1       6.982  29.619  56.955  1.00  0.00     0.026 A 
HETATM   12 BR   UNL     1       5.162  29.747  57.473  1.00  0.00    -0.050 Br
HETATM   13  C   UNL     1       7.933  30.231  57.777  1.00  0.00     0.020 A 
HETATM   14  C   UNL     1       9.290  30.164  57.452  1.00  0.00     0.001 A 
HETATM   15  C   UNL     1       9.705  29.471  56.315  1.00  0.00     0.001 A 
HETATM   16  C   UNL     1       8.763  28.850  55.495  1.00  0.00     0.018 A 
ENDBRANCH   7  10
ENDBRANCH   2   6
BRANCH   1  17
HETATM   17  C   UNL     1       5.213  29.528  51.325  1.00  0.00     0.259 C 
HETATM   18  N   UNL     1       3.964  29.998  51.755  1.00  0.00    -0.345 N 
HETATM   19  C   UNL     1       3.576  31.361  51.365  1.00  0.00     0.154 C 
HETATM   20  C   UNL     1       3.221  29.456  52.903  1.00  0.00     0.154 C 
HETATM   21  C   UNL     1       3.691  32.336  52.548  1.00  0.00     0.254 C 
HETATM   22  N   UNL     1       2.849  31.813  53.713  1.00  0.00    -0.072 N 
HETATM   23  C   UNL     1       2.855  32.758  54.881  1.00  0.00     0.269 C 
HETATM   24  H   UNL     1       1.874  31.758  53.386  1.00  0.00     0.279 HD
HETATM   25  C   UNL     1       3.280  30.408  54.117  1.00  0.00     0.254 C 
HETATM   26  O   UNL     1       6.012  30.283  50.772  1.00  0.00    -0.267 OA
ENDBRANCH   1  17
BRANCH   3  27
HETATM   27  C   UNL     1       6.827  25.099  53.041  1.00  0.00     0.060 A 
HETATM   28  C   UNL     1       6.322  24.849  54.325  1.00  0.00     0.031 A 
HETATM   29  C   UNL     1       6.821  23.787  55.087  1.00  0.00     0.002 A 
HETATM   30  C   UNL     1       7.808  22.955  54.568  1.00  0.00     0.000 A 
HETATM   31  C   UNL     1       8.298  23.179  53.284  1.00  0.00     0.002 A 
HETATM   32  C   UNL     1       7.811  24.243  52.522  1.00  0.00     0.031 A 
ENDBRANCH   3  27
TORSDOF 4
ENDMDL
MODEL 4
REMARK VINA RESULT:      -8.5      1.949      5.007
REMARK  4 active torsions:
REMARK  status: ('A' for Active; 'I' for Inactive)
REMARK       I    between atoms: N_6  and  C_7 
REMARK    1  A    between atoms: C_7  and  C_8 
REMARK    2  A    between atoms: C_9  and  N_10 
REMARK       I    between atoms: N_10  and  C_11 
REMARK    3  A    between atoms: C_11  and  C_12 
REMARK    4  A    between atoms: N_20  and  C_21 
ROOT
HETATM    1  C   UNL     1       4.936  26.541  52.815  1.00  0.00     0.097 A 
HETATM    2  C   UNL     1       5.966  26.258  53.701  1.00  0.00     0.149 A 
HETATM    3  N   UNL     1       6.316  24.918  53.504  1.00  0.00    -0.217 N 
HETATM    4  N   UNL     1       5.660  24.402  52.434  1.00  0.00    -0.177 NA
HETATM    5  C   UNL     1       4.854  25.374  52.025  1.00  0.00     0.160 A 
ENDROOT
BRANCH   2   6
HETATM    6  N   UNL     1       6.601  27.148  54.564  1.00  0.00    -0.306 N 
HETATM    7  C   UNL     1       6.072  27.484  55.852  1.00  0.00     0.258 C 
HETATM    8  O   UNL     1       5.072  26.927  56.280  1.00  0.00    -0.267 OA
HETATM    9  H   UNL     1       7.532  27.466  54.306  1.00  0.00     0.170 HD
BRANCH   7  10
HETATM   10  C   UNL     1       6.968  28.313  56.684  1.00  0.00     0.049 A 
HETATM   11  C   UNL     1       6.536  29.471  57.339  1.00  0.00     0.026 A 
HETATM   12 BR   UNL     1       4.717  30.007  57.388  1.00  0.00    -0.050 Br
HETATM   13  C   UNL     1       7.465  30.276  58.005  1.00  0.00     0.020 A 
HETATM   14  C   UNL     1       8.818  29.928  58.011  1.00  0.00     0.001 A 
HETATM   15  C   UNL     1       9.247  28.767  57.368  1.00  0.00     0.001 A 
HETATM   16  C   UNL     1       8.324  27.954  56.710  1.00  0.00     0.018 A 
ENDBRANCH   7  10
ENDBRANCH   2   6
BRANCH   1  17
HETATM   17  C   UNL     1       4.256  27.804  52.602  1.00  0.00     0.259 C 
HETATM   18  N   UNL     1       4.764  28.680  51.633  1.00  0.00    -0.345 N 
HETATM   19  C   UNL     1       4.209  30.039  51.581  1.00  0.00     0.154 C 
HETATM   20  C   UNL     1       5.450  28.253  50.403  1.00  0.00     0.154 C 
HETATM   21  C   UNL     1       3.257  30.210  50.386  1.00  0.00     0.254 C 
HETATM   22  N   UNL     1       3.998  29.845  49.098  1.00  0.00    -0.072 N 
HETATM   23  C   UNL     1       3.147  30.061  47.878  1.00  0.00     0.269 C 
HETATM   24  H   UNL     1       4.799  30.487  49.013  1.00  0.00     0.279 HD
HETATM   25  C   UNL     1       4.548  28.425  49.162  1.00  0.00     0.254 C 
HETATM   26  O   UNL     1       3.279  28.117  53.280  1.00  0.00    -0.267 OA
ENDBRANCH   1  17
BRANCH   3  27
HETATM   27  C   UNL     1       7.166  24.085  54.294  1.00  0.00     0.060 A 
HETATM   28  C   UNL     1       7.058  24.017  55.691  1.00  0.00     0.031 A 
HETATM   29  C   UNL     1       7.904  23.179  56.425  1.00  0.00     0.002 A 
HETATM   30  C   UNL     1       8.845  22.388  55.774  1.00  0.00     0.000 A 
HETATM   31  C   UNL     1       8.943  22.428  54.386  1.00  0.00     0.002 A 
HETATM   32  C   UNL     1       8.109  23.269  53.647  1.00  0.00     0.031 A 
ENDBRANCH   3  27
TORSDOF 4
ENDMDL
MODEL 5
REMARK VINA RESULT:      -8.4      1.760      2.148
REMARK  4 active torsions:
REMARK  status: ('A' for Active; 'I' for Inactive)
REMARK       I    between atoms: N_6  and  C_7 
REMARK    1  A    between atoms: C_7  and  C_8 
REMARK    2  A    between atoms: C_9  and  N_10 
REMARK       I    between atoms: N_10  and  C_11 
REMARK    3  A    between atoms: C_11  and  C_12 
REMARK    4  A    between atoms: N_20  and  C_21 
ROOT
HETATM    1  C   UNL     1       4.505  29.637  54.163  1.00  0.00     0.097 A 
HETATM    2  C   UNL     1       5.392  29.083  55.076  1.00  0.00     0.149 A 
HETATM    3  N   UNL     1       5.785  30.112  55.937  1.00  0.00    -0.217 N 
HETATM    4  N   UNL     1       5.068  31.240  55.699  1.00  0.00    -0.177 NA
HETATM    5  C   UNL     1       4.304  30.945  54.654  1.00  0.00     0.160 A 
ENDROOT
BRANCH   2   6
HETATM    6  N   UNL     1       5.760  27.744  55.183  1.00  0.00    -0.306 N 
HETATM    7  C   UNL     1       6.823  27.172  54.411  1.00  0.00     0.258 C 
HETATM    8  O   UNL     1       7.509  27.871  53.680  1.00  0.00    -0.267 OA
HETATM    9  H   UNL     1       5.333  27.200  55.928  1.00  0.00     0.170 HD
BRANCH   7  10
HETATM   10  C   UNL     1       7.171  25.786  54.784  1.00  0.00     0.049 A 
HETATM   11  C   UNL     1       6.678  24.671  54.096  1.00  0.00     0.026 A 
HETATM   12 BR   UNL     1       5.661  24.813  52.502  1.00  0.00    -0.050 Br
HETATM   13  C   UNL     1       6.947  23.387  54.579  1.00  0.00     0.020 A 
HETATM   14  C   UNL     1       7.699  23.218  55.745  1.00  0.00     0.001 A 
HETATM   15  C   UNL     1       8.200  24.329  56.423  1.00  0.00     0.001 A 
HETATM   16  C   UNL     1       7.944  25.613  55.941  1.00  0.00     0.018 A 
ENDBRANCH   7  10
ENDBRANCH   2   6
BRANCH   1  17
HETATM   17  C   UNL     1       3.788  28.973  53.091  1.00  0.00     0.259 C 
HETATM   18  N   UNL     1       3.753  29.588  51.832  1.00  0.00    -0.345 N 
HETATM   19  C   UNL     1       2.844  29.027  50.823  1.00  0.00     0.154 C 
HETATM   20  C   UNL     1       4.830  30.428  51.285  1.00  0.00     0.154 C 
HETATM   21  C   UNL     1       3.615  28.230  49.758  1.00  0.00     0.254 C 
HETATM   22  N   UNL     1       4.681  29.131  49.130  1.00  0.00    -0.072 N 
HETATM   23  C   UNL     1       5.425  28.437  48.025  1.00  0.00     0.269 C 
HETATM   24  H   UNL     1       4.192  29.928  48.699  1.00  0.00     0.279 HD
HETATM   25  C   UNL     1       5.626  29.686  50.190  1.00  0.00     0.254 C 
HETATM   26  O   UNL     1       3.193  27.916  53.290  1.00  0.00    -0.267 OA
ENDBRANCH   1  17
BRANCH   3  27
HETATM   27  C   UNL     1       6.830  30.120  56.911  1.00  0.00     0.060 A 
HETATM   28  C   UNL     1       8.082  29.537  56.669  1.00  0.00     0.031 A 
HETATM   29  C   UNL     1       9.082  29.578  57.648  1.00  0.00     0.002 A 
HETATM   30  C   UNL     1       8.849  30.215  58.862  1.00  0.00     0.000 A 
HETATM   31  C   UNL     1       7.618  30.820  59.103  1.00  0.00     0.002 A 
HETATM   32  C   UNL     1       6.613  30.775  58.135  1.00  0.00     0.031 A 
ENDBRANCH   3  27
TORSDOF 4
ENDMDL
MODEL 6
REMARK VINA RESULT:      -8.4      5.839      8.334
REMARK  4 active torsions:
REMARK  status: ('A' for Active; 'I' for Inactive)
REMARK       I    between atoms: N_6  and  C_7 
REMARK    1  A    between atoms: C_7  and  C_8 
REMARK    2  A    between atoms: C_9  and  N_10 
REMARK       I    between atoms: N_10  and  C_11 
REMARK    3  A    between atoms: C_11  and  C_12 
REMARK    4  A    between atoms: N_20  and  C_21 
ROOT
HETATM    1  C   UNL     1       4.292  33.934  60.597  1.00  0.00     0.097 A 
HETATM    2  C   UNL     1       5.141  32.843  60.475  1.00  0.00     0.149 A 
HETATM    3  N   UNL     1       6.168  33.021  61.407  1.00  0.00    -0.217 N 
HETATM    4  N   UNL     1       5.915  34.088  62.206  1.00  0.00    -0.177 NA
HETATM    5  C   UNL     1       4.794  34.615  61.726  1.00  0.00     0.160 A 
ENDROOT
BRANCH   2   6
HETATM    6  N   UNL     1       4.970  31.732  59.652  1.00  0.00    -0.306 N 
HETATM    7  C   UNL     1       5.439  31.696  58.298  1.00  0.00     0.258 C 
HETATM    8  O   UNL     1       6.090  32.623  57.839  1.00  0.00    -0.267 OA
HETATM    9  H   UNL     1       4.609  30.884  60.079  1.00  0.00     0.170 HD
BRANCH   7  10
HETATM   10  C   UNL     1       5.311  30.378  57.643  1.00  0.00     0.049 A 
HETATM   11  C   UNL     1       6.359  29.451  57.597  1.00  0.00     0.026 A 
HETATM   12 BR   UNL     1       7.994  29.701  58.523  1.00  0.00    -0.050 Br
HETATM   13  C   UNL     1       6.209  28.277  56.853  1.00  0.00     0.020 A 
HETATM   14  C   UNL     1       5.024  28.034  56.155  1.00  0.00     0.001 A 
HETATM   15  C   UNL     1       3.975  28.952  56.213  1.00  0.00     0.001 A 
HETATM   16  C   UNL     1       4.113  30.121  56.961  1.00  0.00     0.018 A 
ENDBRANCH   7  10
ENDBRANCH   2   6
BRANCH   1  17
HETATM   17  C   UNL     1       3.058  34.197  59.880  1.00  0.00     0.259 C 
HETATM   18  N   UNL     1       3.001  35.320  59.043  1.00  0.00    -0.345 N 
HETATM   19  C   UNL     1       1.689  35.701  58.501  1.00  0.00     0.154 C 
HETATM   20  C   UNL     1       4.150  35.869  58.307  1.00  0.00     0.154 C 
HETATM   21  C   UNL     1       1.565  35.322  57.017  1.00  0.00     0.254 C 
HETATM   22  N   UNL     1       2.715  35.964  56.238  1.00  0.00    -0.072 N 
HETATM   23  C   UNL     1       2.614  35.696  54.762  1.00  0.00     0.269 C 
HETATM   24  H   UNL     1       2.634  36.984  56.356  1.00  0.00     0.279 HD
HETATM   25  C   UNL     1       4.067  35.540  56.801  1.00  0.00     0.254 C 
HETATM   26  O   UNL     1       2.075  33.474  60.030  1.00  0.00    -0.267 OA
ENDBRANCH   1  17
BRANCH   3  27
HETATM   27  C   UNL     1       7.393  32.299  61.544  1.00  0.00     0.060 A 
HETATM   28  C   UNL     1       7.521  31.200  62.406  1.00  0.00     0.031 A 
HETATM   29  C   UNL     1       8.736  30.514  62.502  1.00  0.00     0.002 A 
HETATM   30  C   UNL     1       9.824  30.902  61.726  1.00  0.00     0.000 A 
HETATM   31  C   UNL     1       9.701  31.975  60.847  1.00  0.00     0.002 A 
HETATM   32  C   UNL     1       8.494  32.671  60.754  1.00  0.00     0.031 A 
ENDBRANCH   3  27
TORSDOF 4
ENDMDL
MODEL 7
REMARK VINA RESULT:      -8.2      8.117     10.274
REMARK  4 active torsions:
REMARK  status: ('A' for Active; 'I' for Inactive)
REMARK       I    between atoms: N_6  and  C_7 
REMARK    1  A    between atoms: C_7  and  C_8 
REMARK    2  A    between atoms: C_9  and  N_10 
REMARK       I    between atoms: N_10  and  C_11 
REMARK    3  A    between atoms: C_11  and  C_12 
REMARK    4  A    between atoms: N_20  and  C_21 
ROOT
HETATM    1  C   UNL     1       2.873  34.394  60.014  1.00  0.00     0.097 A 
HETATM    2  C   UNL     1       3.775  34.407  61.070  1.00  0.00     0.149 A 
HETATM    3  N   UNL     1       3.087  34.896  62.185  1.00  0.00    -0.217 N 
HETATM    4  N   UNL     1       1.765  35.039  61.912  1.00  0.00    -0.177 NA
HETATM    5  C   UNL     1       1.646  34.727  60.627  1.00  0.00     0.160 A 
ENDROOT
BRANCH   2   6
HETATM    6  N   UNL     1       5.088  33.943  61.060  1.00  0.00    -0.306 N 
HETATM    7  C   UNL     1       5.463  32.678  61.619  1.00  0.00     0.258 C 
HETATM    8  O   UNL     1       4.616  31.914  62.057  1.00  0.00    -0.267 OA
HETATM    9  H   UNL     1       5.768  34.476  60.525  1.00  0.00     0.170 HD
BRANCH   7  10
HETATM   10  C   UNL     1       6.866  32.291  61.365  1.00  0.00     0.049 A 
HETATM   11  C   UNL     1       7.878  32.445  62.320  1.00  0.00     0.026 A 
HETATM   12 BR   UNL     1       7.535  32.994  64.102  1.00  0.00    -0.050 Br
HETATM   13  C   UNL     1       9.204  32.175  61.970  1.00  0.00     0.020 A 
HETATM   14  C   UNL     1       9.517  31.759  60.674  1.00  0.00     0.001 A 
HETATM   15  C   UNL     1       8.507  31.593  59.727  1.00  0.00     0.001 A 
HETATM   16  C   UNL     1       7.180  31.851  60.071  1.00  0.00     0.018 A 
ENDBRANCH   7  10
ENDBRANCH   2   6
BRANCH   1  17
HETATM   17  C   UNL     1       3.089  33.935  58.655  1.00  0.00     0.259 C 
HETATM   18  N   UNL     1       3.026  34.876  57.617  1.00  0.00    -0.345 N 
HETATM   19  C   UNL     1       3.022  34.370  56.237  1.00  0.00     0.154 C 
HETATM   20  C   UNL     1       3.412  36.289  57.750  1.00  0.00     0.154 C 
HETATM   21  C   UNL     1       4.384  34.588  55.558  1.00  0.00     0.254 C 
HETATM   22  N   UNL     1       4.745  36.074  55.623  1.00  0.00    -0.072 N 
HETATM   23  C   UNL     1       6.034  36.371  54.909  1.00  0.00     0.269 C 
HETATM   24  H   UNL     1       4.008  36.590  55.123  1.00  0.00     0.279 HD
HETATM   25  C   UNL     1       4.765  36.574  57.063  1.00  0.00     0.254 C 
HETATM   26  O   UNL     1       3.286  32.746  58.414  1.00  0.00    -0.267 OA
ENDBRANCH   1  17
BRANCH   3  27
HETATM   27  C   UNL     1       3.603  35.297  63.456  1.00  0.00     0.060 A 
HETATM   28  C   UNL     1       4.238  36.533  63.648  1.00  0.00     0.031 A 
HETATM   29  C   UNL     1       4.719  36.891  64.912  1.00  0.00     0.002 A 
HETATM   30  C   UNL     1       4.552  36.034  65.995  1.00  0.00     0.000 A 
HETATM   31  C   UNL     1       3.899  34.817  65.821  1.00  0.00     0.002 A 
HETATM   32  C   UNL     1       3.425  34.448  64.560  1.00  0.00     0.031 A 
ENDBRANCH   3  27
TORSDOF 4
ENDMDL
MODEL 8
REMARK VINA RESULT:      -8.2      3.098      6.906
REMARK  4 active torsions:
REMARK  status: ('A' for Active; 'I' for Inactive)
REMARK       I    between atoms: N_6  and  C_7 
REMARK    1  A    between atoms: C_7  and  C_8 
REMARK    2  A    between atoms: C_9  and  N_10 
REMARK       I    between atoms: N_10  and  C_11 
REMARK    3  A    between atoms: C_11  and  C_12 
REMARK    4  A    between atoms: N_20  and  C_21 
ROOT
HETATM    1  C   UNL     1       5.152  28.886  54.807  1.00  0.00     0.097 A 
HETATM    2  C   UNL     1       5.245  27.828  53.913  1.00  0.00     0.149 A 
HETATM    3  N   UNL     1       6.116  26.892  54.479  1.00  0.00    -0.217 N 
HETATM    4  N   UNL     1       6.445  27.245  55.748  1.00  0.00    -0.177 NA
HETATM    5  C   UNL     1       5.859  28.422  55.937  1.00  0.00     0.160 A 
ENDROOT
BRANCH   2   6
HETATM    6  N   UNL     1       4.544  27.673  52.719  1.00  0.00    -0.306 N 
HETATM    7  C   UNL     1       4.971  28.275  51.491  1.00  0.00     0.258 C 
HETATM    8  O   UNL     1       6.027  28.886  51.429  1.00  0.00    -0.267 OA
HETATM    9  H   UNL     1       3.776  27.007  52.711  1.00  0.00     0.170 HD
BRANCH   7  10
HETATM   10  C   UNL     1       4.192  27.861  50.306  1.00  0.00     0.049 A 
HETATM   11  C   UNL     1       3.048  28.543  49.876  1.00  0.00     0.026 A 
HETATM   12 BR   UNL     1       2.474  30.176  50.650  1.00  0.00    -0.050 Br
HETATM   13  C   UNL     1       2.289  28.024  48.823  1.00  0.00     0.020 A 
HETATM   14  C   UNL     1       2.668  26.828  48.207  1.00  0.00     0.001 A 
HETATM   15  C   UNL     1       3.815  26.156  48.628  1.00  0.00     0.001 A 
HETATM   16  C   UNL     1       4.583  26.673  49.671  1.00  0.00     0.018 A 
ENDBRANCH   7  10
ENDBRANCH   2   6
BRANCH   1  17
HETATM   17  C   UNL     1       4.343  30.085  54.700  1.00  0.00     0.259 C 
HETATM   18  N   UNL     1       3.598  30.488  55.816  1.00  0.00    -0.345 N 
HETATM   19  C   UNL     1       2.617  31.566  55.630  1.00  0.00     0.154 C 
HETATM   20  C   UNL     1       4.005  30.267  57.213  1.00  0.00     0.154 C 
HETATM   21  C   UNL     1       3.121  32.891  56.225  1.00  0.00     0.254 C 
HETATM   22  N   UNL     1       3.465  32.679  57.701  1.00  0.00    -0.072 N 
HETATM   23  C   UNL     1       3.894  33.956  58.367  1.00  0.00     0.269 C 
HETATM   24  H   UNL     1       2.602  32.377  58.176  1.00  0.00     0.279 HD
HETATM   25  C   UNL     1       4.499  31.573  57.872  1.00  0.00     0.254 C 
HETATM   26  O   UNL     1       4.283  30.713  53.644  1.00  0.00    -0.267 OA
ENDBRANCH   1  17
BRANCH   3  27
HETATM   27  C   UNL     1       6.705  25.736  53.882  1.00  0.00     0.060 A 
HETATM   28  C   UNL     1       7.434  25.801  52.686  1.00  0.00     0.031 A 
HETATM   29  C   UNL     1       8.005  24.645  52.141  1.00  0.00     0.002 A 
HETATM   30  C   UNL     1       7.872  23.424  52.793  1.00  0.00     0.000 A 
HETATM   31  C   UNL     1       7.173  23.352  53.995  1.00  0.00     0.002 A 
HETATM   32  C   UNL     1       6.593  24.500  54.539  1.00  0.00     0.031 A 
ENDBRANCH   3  27
TORSDOF 4
ENDMDL
MODEL 9
REMARK VINA RESULT:      -8.2      8.730     12.442
REMARK  4 active torsions:
REMARK  status: ('A' for Active; 'I' for Inactive)
REMARK       I    between atoms: N_6  and  C_7 
REMARK    1  A    between atoms: C_7  and  C_8 
REMARK    2  A    between atoms: C_9  and  N_10 
REMARK       I    between atoms: N_10  and  C_11 
REMARK    3  A    between atoms: C_11  and  C_12 
REMARK    4  A    between atoms: N_20  and  C_21 
ROOT
HETATM    1  C   UNL     1       4.254  33.246  61.578  1.00  0.00     0.097 A 
HETATM    2  C   UNL     1       4.847  34.049  62.543  1.00  0.00     0.149 A 
HETATM    3  N   UNL     1       4.982  33.267  63.695  1.00  0.00    -0.217 N 
HETATM    4  N   UNL     1       4.644  31.976  63.444  1.00  0.00    -0.177 NA
HETATM    5  C   UNL     1       4.226  31.972  62.184  1.00  0.00     0.160 A 
ENDROOT
BRANCH   2   6
HETATM    6  N   UNL     1       5.307  35.353  62.384  1.00  0.00    -0.306 N 
HETATM    7  C   UNL     1       4.519  36.497  62.736  1.00  0.00     0.258 C 
HETATM    8  O   UNL     1       3.430  36.363  63.274  1.00  0.00    -0.267 OA
HETATM    9  H   UNL     1       6.282  35.478  62.125  1.00  0.00     0.170 HD
BRANCH   7  10
HETATM   10  C   UNL     1       5.239  37.784  62.650  1.00  0.00     0.049 A 
HETATM   11  C   UNL     1       5.395  38.486  61.449  1.00  0.00     0.026 A 
HETATM   12 BR   UNL     1       4.548  37.962  59.835  1.00  0.00    -0.050 Br
HETATM   13  C   UNL     1       6.194  39.632  61.418  1.00  0.00     0.020 A 
HETATM   14  C   UNL     1       6.837  40.072  62.577  1.00  0.00     0.001 A 
HETATM   15  C   UNL     1       6.671  39.380  63.777  1.00  0.00     0.001 A 
HETATM   16  C   UNL     1       5.867  38.241  63.818  1.00  0.00     0.018 A 
ENDBRANCH   7  10
ENDBRANCH   2   6
BRANCH   1  17
HETATM   17  C   UNL     1       3.939  33.580  60.202  1.00  0.00     0.259 C 
HETATM   18  N   UNL     1       4.940  33.423  59.233  1.00  0.00    -0.345 N 
HETATM   19  C   UNL     1       4.686  33.971  57.893  1.00  0.00     0.154 C 
HETATM   20  C   UNL     1       5.996  32.400  59.285  1.00  0.00     0.154 C 
HETATM   21  C   UNL     1       4.360  32.857  56.886  1.00  0.00     0.254 C 
HETATM   22  N   UNL     1       5.500  31.836  56.880  1.00  0.00    -0.072 N 
HETATM   23  C   UNL     1       5.281  30.754  55.860  1.00  0.00     0.269 C 
HETATM   24  H   UNL     1       6.356  32.334  56.599  1.00  0.00     0.279 HD
HETATM   25  C   UNL     1       5.734  31.264  58.273  1.00  0.00     0.254 C 
HETATM   26  O   UNL     1       2.834  34.025  59.896  1.00  0.00    -0.267 OA
ENDBRANCH   1  17
BRANCH   3  27
HETATM   27  C   UNL     1       5.338  33.670  65.018  1.00  0.00     0.060 A 
HETATM   28  C   UNL     1       4.375  33.954  65.998  1.00  0.00     0.031 A 
HETATM   29  C   UNL     1       4.767  34.334  67.286  1.00  0.00     0.002 A 
HETATM   30  C   UNL     1       6.117  34.413  67.613  1.00  0.00     0.000 A 
HETATM   31  C   UNL     1       7.081  34.107  66.656  1.00  0.00     0.002 A 
HETATM   32  C   UNL     1       6.697  33.737  65.366  1.00  0.00     0.031 A 
ENDBRANCH   3  27
TORSDOF 4
ENDMDL
MODEL 10
REMARK VINA RESULT:      -8.1      4.429      8.298
REMARK  4 active torsions:
REMARK  status: ('A' for Active; 'I' for Inactive)
REMARK       I    between atoms: N_6  and  C_7 
REMARK    1  A    between atoms: C_7  and  C_8 
REMARK    2  A    between atoms: C_9  and  N_10 
REMARK       I    between atoms: N_10  and  C_11 
REMARK    3  A    between atoms: C_11  and  C_12 
REMARK    4  A    between atoms: N_20  and  C_21 
ROOT
HETATM    1  C   UNL     1       6.484  29.796  57.161  1.00  0.00     0.097 A 
HETATM    2  C   UNL     1       6.077  30.945  57.826  1.00  0.00     0.149 A 
HETATM    3  N   UNL     1       5.358  31.714  56.906  1.00  0.00    -0.217 N 
HETATM    4  N   UNL     1       5.166  31.029  55.750  1.00  0.00    -0.177 NA
HETATM    5  C   UNL     1       5.826  29.889  55.916  1.00  0.00     0.160 A 
ENDROOT
BRANCH   2   6
HETATM    6  N   UNL     1       6.264  31.248  59.172  1.00  0.00    -0.306 N 
HETATM    7  C   UNL     1       7.438  31.911  59.658  1.00  0.00     0.258 C 
HETATM    8  O   UNL     1       8.292  32.315  58.883  1.00  0.00    -0.267 OA
HETATM    9  H   UNL     1       5.478  31.098  59.799  1.00  0.00     0.170 HD
BRANCH   7  10
HETATM   10  C   UNL     1       7.379  32.291  61.084  1.00  0.00     0.049 A 
HETATM   11  C   UNL     1       8.163  31.674  62.065  1.00  0.00     0.026 A 
HETATM   12 BR   UNL     1       9.519  30.413  61.654  1.00  0.00    -0.050 Br
HETATM   13  C   UNL     1       7.966  31.995  63.411  1.00  0.00     0.020 A 
HETATM   14  C   UNL     1       6.987  32.923  63.775  1.00  0.00     0.001 A 
HETATM   15  C   UNL     1       6.214  33.548  62.796  1.00  0.00     0.001 A 
HETATM   16  C   UNL     1       6.412  33.239  61.450  1.00  0.00     0.018 A 
ENDBRANCH   7  10
ENDBRANCH   2   6
BRANCH   1  17
HETATM   17  C   UNL     1       7.224  28.666  57.691  1.00  0.00     0.259 C 
HETATM   18  N   UNL     1       6.742  27.375  57.433  1.00  0.00    -0.345 N 
HETATM   19  C   UNL     1       7.365  26.257  58.155  1.00  0.00     0.154 C 
HETATM   20  C   UNL     1       6.012  26.986  56.217  1.00  0.00     0.154 C 
HETATM   21  C   UNL     1       8.302  25.453  57.239  1.00  0.00     0.254 C 
HETATM   22  N   UNL     1       7.519  24.977  56.014  1.00  0.00    -0.072 N 
HETATM   23  C   UNL     1       8.357  24.118  55.109  1.00  0.00     0.269 C 
HETATM   24  H   UNL     1       6.751  24.382  56.354  1.00  0.00     0.279 HD
HETATM   25  C   UNL     1       6.898  26.152  55.267  1.00  0.00     0.254 C 
HETATM   26  O   UNL     1       8.228  28.836  58.380  1.00  0.00    -0.267 OA
ENDBRANCH   1  17
BRANCH   3  27
HETATM   27  C   UNL     1       4.905  33.064  57.021  1.00  0.00     0.060 A 
HETATM   28  C   UNL     1       4.419  33.590  58.227  1.00  0.00     0.031 A 
HETATM   29  C   UNL     1       3.997  34.922  58.298  1.00  0.00     0.002 A 
HETATM   30  C   UNL     1       4.076  35.744  57.179  1.00  0.00     0.000 A 
HETATM   31  C   UNL     1       4.582  35.240  55.983  1.00  0.00     0.002 A 
HETATM   32  C   UNL     1       4.996  33.909  55.902  1.00  0.00     0.031 A 
ENDBRANCH   3  27
TORSDOF 4
ENDMDL
