MODEL 1
REMARK VINA RESULT:      -9.9      0.000      0.000
REMARK  9 active torsions:
REMARK  status: ('A' for Active; 'I' for Inactive)
REMARK    1  A    between atoms: C_2  and  N_3 
REMARK    2  A    between atoms: N_3  and  C_4 
REMARK    3  A    between atoms: N_3  and  C_32 
REMARK    4  A    between atoms: C_7  and  C_8 
REMARK       I    between atoms: C_8  and  N_9 
REMARK    5  A    between atoms: N_9  and  C_10 
REMARK    6  A    between atoms: C_10  and  N_11 
REMARK    7  A    between atoms: N_11  and  C_12 
REMARK    8  A    between atoms: C_14  and  C_15 
REMARK    9  A    between atoms: C_24  and  O_25 
ROOT
HETATM    1  N   UNL     1       6.096  29.010  53.374  1.00  0.00    -0.337 N 
HETATM    2  H   UNL     1       6.481  29.903  53.075  1.00  0.00     0.168 HD
ENDROOT
BRANCH   1   3
HETATM    3  C   UNL     1       5.177  28.480  52.496  1.00  0.00     0.157 C 
HETATM    4  S   UNL     1       3.563  28.830  52.746  1.00  0.00    -0.047 SA
BRANCH   3   5
HETATM    5  N   UNL     1       5.719  27.784  51.430  1.00  0.00    -0.201 NA
HETATM    6  C   UNL     1       5.447  26.465  51.118  1.00  0.00     0.237 C 
HETATM    7  O   UNL     1       4.748  26.199  50.143  1.00  0.00    -0.274 OA
HETATM    8  H   UNL     1       5.539  28.335  50.597  1.00  0.00     0.139 HD
BRANCH   6   9
HETATM    9  C   UNL     1       6.119  25.385  51.894  1.00  0.00     0.026 A 
HETATM   10  C   UNL     1       7.480  25.167  51.675  1.00  0.00     0.019 A 
HETATM   11  C   UNL     1       8.195  24.262  52.469  1.00  0.00     0.030 A 
HETATM   12  C   UNL     1       7.590  23.559  53.523  1.00  0.00     0.030 A 
HETATM   13  C   UNL     1       6.204  23.753  53.680  1.00  0.00     0.030 A 
HETATM   14  C   UNL     1       5.474  24.657  52.892  1.00  0.00     0.019 A 
BRANCH  12  15
HETATM   15  N   UNL     1       8.296  22.699  54.368  1.00  0.00    -0.382 N 
BRANCH  15  16
HETATM   16  C   UNL     1       8.948  23.284  55.552  1.00  0.00     0.118 C 
HETATM   17  C   UNL     1       8.376  22.672  56.823  1.00  0.00     0.026 C 
ENDBRANCH  15  16
BRANCH  15  18
HETATM   18  C   UNL     1       8.922  21.469  53.853  1.00  0.00     0.118 C 
HETATM   19  C   UNL     1       7.935  20.653  53.031  1.00  0.00     0.026 C 
ENDBRANCH  15  18
ENDBRANCH  12  15
ENDBRANCH   6   9
ENDBRANCH   3   5
ENDBRANCH   1   3
BRANCH   1  20
HETATM   20  C   UNL     1       6.532  28.531  54.627  1.00  0.00     0.035 A 
HETATM   21  C   UNL     1       6.630  29.352  55.759  1.00  0.00     0.046 A 
HETATM   22  C   UNL     1       7.139  28.870  56.982  1.00  0.00     0.035 A 
HETATM   23  C   UNL     1       7.514  27.515  57.033  1.00  0.00     0.078 A 
HETATM   24  C   UNL     1       7.425  26.690  55.912  1.00  0.00     0.040 A 
HETATM   25  C   UNL     1       6.959  27.205  54.703  1.00  0.00     0.032 A 
BRANCH  22  26
HETATM   26  C   UNL     1       7.345  29.746  58.158  1.00  0.00     0.112 A 
HETATM   27  S   UNL     1       6.385  31.144  58.456  1.00  0.00    -0.067 SA
HETATM   28  C   UNL     1       7.364  31.553  59.807  1.00  0.00     0.035 A 
HETATM   29  C   UNL     1       8.338  30.570  59.973  1.00  0.00     0.075 A 
HETATM   30  C   UNL     1       7.279  32.668  60.656  1.00  0.00     0.021 A 
HETATM   31  N   UNL     1       8.305  29.541  59.045  1.00  0.00    -0.239 NA
HETATM   32  C   UNL     1       9.261  30.702  61.030  1.00  0.00     0.033 A 
HETATM   33  C   UNL     1       9.192  31.813  61.878  1.00  0.00     0.002 A 
HETATM   34  C   UNL     1       8.213  32.783  61.690  1.00  0.00     0.002 A 
ENDBRANCH  22  26
BRANCH  23  35
HETATM   35  O   UNL     1       8.009  26.918  58.165  1.00  0.00    -0.360 OA
HETATM   36  H   UNL     1       8.654  26.230  57.886  1.00  0.00     0.217 HD
ENDBRANCH  23  35
ENDBRANCH   1  20
TORSDOF 9
ENDMDL
MODEL 2
REMARK VINA RESULT:      -9.8      2.058      2.926
REMARK  9 active torsions:
REMARK  status: ('A' for Active; 'I' for Inactive)
REMARK    1  A    between atoms: C_2  and  N_3 
REMARK    2  A    between atoms: N_3  and  C_4 
REMARK    3  A    between atoms: N_3  and  C_32 
REMARK    4  A    between atoms: C_7  and  C_8 
REMARK       I    between atoms: C_8  and  N_9 
REMARK    5  A    between atoms: N_9  and  C_10 
REMARK    6  A    between atoms: C_10  and  N_11 
REMARK    7  A    between atoms: N_11  and  C_12 
REMARK    8  A    between atoms: C_14  and  C_15 
REMARK    9  A    between atoms: C_24  and  O_25 
ROOT
HETATM    1  N   UNL     1       7.462  28.297  56.036  1.00  0.00    -0.337 N 
HETATM    2  H   UNL     1       7.601  27.305  56.213  1.00  0.00     0.168 HD
ENDROOT
BRANCH   1   3
HETATM    3  C   UNL     1       6.585  28.559  55.007  1.00  0.00     0.157 C 
HETATM    4  S   UNL     1       5.189  29.403  55.364  1.00  0.00    -0.047 SA
BRANCH   3   5
HETATM    5  N   UNL     1       7.020  28.168  53.753  1.00  0.00    -0.201 NA
HETATM    6  C   UNL     1       6.487  27.128  53.013  1.00  0.00     0.237 C 
HETATM    7  O   UNL     1       5.799  27.372  52.024  1.00  0.00    -0.274 OA
HETATM    8  H   UNL     1       7.006  28.995  53.166  1.00  0.00     0.139 HD
BRANCH   6   9
HETATM    9  C   UNL     1       6.868  25.729  53.352  1.00  0.00     0.026 A 
HETATM   10  C   UNL     1       7.830  25.100  52.560  1.00  0.00     0.019 A 
HETATM   11  C   UNL     1       8.328  23.838  52.910  1.00  0.00     0.030 A 
HETATM   12  C   UNL     1       7.907  23.167  54.068  1.00  0.00     0.030 A 
HETATM   13  C   UNL     1       6.892  23.799  54.813  1.00  0.00     0.030 A 
HETATM   14  C   UNL     1       6.383  25.063  54.476  1.00  0.00     0.019 A 
BRANCH  12  15
HETATM   15  N   UNL     1       8.434  21.938  54.471  1.00  0.00    -0.382 N 
BRANCH  15  16
HETATM   16  C   UNL     1       7.768  20.715  53.989  1.00  0.00     0.118 C 
HETATM   17  C   UNL     1       8.356  20.289  52.651  1.00  0.00     0.026 C 
ENDBRANCH  15  16
BRANCH  15  18
HETATM   18  C   UNL     1       9.147  21.797  55.751  1.00  0.00     0.118 C 
HETATM   19  C   UNL     1       8.348  20.956  56.736  1.00  0.00     0.026 C 
ENDBRANCH  15  18
ENDBRANCH  12  15
ENDBRANCH   6   9
ENDBRANCH   3   5
ENDBRANCH   1   3
BRANCH   1  20
HETATM   20  C   UNL     1       8.219  29.185  56.829  1.00  0.00     0.035 A 
HETATM   21  C   UNL     1       7.719  29.768  58.001  1.00  0.00     0.046 A 
HETATM   22  C   UNL     1       8.466  30.710  58.737  1.00  0.00     0.035 A 
HETATM   23  C   UNL     1       9.755  31.018  58.266  1.00  0.00     0.078 A 
HETATM   24  C   UNL     1      10.261  30.448  57.098  1.00  0.00     0.040 A 
HETATM   25  C   UNL     1       9.483  29.552  56.366  1.00  0.00     0.032 A 
BRANCH  22  26
HETATM   26  C   UNL     1       7.916  31.412  59.919  1.00  0.00     0.112 A 
HETATM   27  S   UNL     1       6.525  32.425  59.836  1.00  0.00    -0.067 SA
HETATM   28  C   UNL     1       6.727  32.870  61.483  1.00  0.00     0.035 A 
HETATM   29  C   UNL     1       7.819  32.180  62.007  1.00  0.00     0.075 A 
HETATM   30  C   UNL     1       5.974  33.769  62.256  1.00  0.00     0.021 A 
HETATM   31  N   UNL     1       8.472  31.342  61.117  1.00  0.00    -0.239 NA
HETATM   32  C   UNL     1       8.173  32.394  63.355  1.00  0.00     0.033 A 
HETATM   33  C   UNL     1       7.436  33.294  64.132  1.00  0.00     0.002 A 
HETATM   34  C   UNL     1       6.351  33.973  63.586  1.00  0.00     0.002 A 
ENDBRANCH  22  26
BRANCH  23  35
HETATM   35  O   UNL     1      10.590  31.906  58.897  1.00  0.00    -0.360 OA
HETATM   36  H   UNL     1      11.162  32.320  58.214  1.00  0.00     0.217 HD
ENDBRANCH  23  35
ENDBRANCH   1  20
TORSDOF 9
ENDMDL
MODEL 3
REMARK VINA RESULT:      -9.5      2.181      2.748
REMARK  9 active torsions:
REMARK  status: ('A' for Active; 'I' for Inactive)
REMARK    1  A    between atoms: C_2  and  N_3 
REMARK    2  A    between atoms: N_3  and  C_4 
REMARK    3  A    between atoms: N_3  and  C_32 
REMARK    4  A    between atoms: C_7  and  C_8 
REMARK       I    between atoms: C_8  and  N_9 
REMARK    5  A    between atoms: N_9  and  C_10 
REMARK    6  A    between atoms: C_10  and  N_11 
REMARK    7  A    between atoms: N_11  and  C_12 
REMARK    8  A    between atoms: C_14  and  C_15 
REMARK    9  A    between atoms: C_24  and  O_25 
ROOT
HETATM    1  N   UNL     1       5.699  29.483  54.961  1.00  0.00    -0.337 N 
HETATM    2  H   UNL     1       5.119  30.303  54.800  1.00  0.00     0.168 HD
ENDROOT
BRANCH   1   3
HETATM    3  C   UNL     1       5.327  28.385  54.219  1.00  0.00     0.157 C 
HETATM    4  S   UNL     1       5.785  28.335  52.613  1.00  0.00    -0.047 SA
BRANCH   3   5
HETATM    5  N   UNL     1       4.688  27.385  54.930  1.00  0.00    -0.201 NA
HETATM    6  C   UNL     1       5.271  26.611  55.916  1.00  0.00     0.237 C 
HETATM    7  O   UNL     1       4.974  26.794  57.094  1.00  0.00    -0.274 OA
HETATM    8  H   UNL     1       3.849  27.797  55.327  1.00  0.00     0.139 HD
BRANCH   6   9
HETATM    9  C   UNL     1       6.150  25.476  55.518  1.00  0.00     0.026 A 
HETATM   10  C   UNL     1       7.024  24.955  56.475  1.00  0.00     0.019 A 
HETATM   11  C   UNL     1       7.775  23.804  56.203  1.00  0.00     0.030 A 
HETATM   12  C   UNL     1       7.669  23.117  54.984  1.00  0.00     0.030 A 
HETATM   13  C   UNL     1       6.826  23.700  54.018  1.00  0.00     0.030 A 
HETATM   14  C   UNL     1       6.067  24.853  54.274  1.00  0.00     0.019 A 
BRANCH  12  15
HETATM   15  N   UNL     1       8.359  21.933  54.715  1.00  0.00    -0.382 N 
BRANCH  15  16
HETATM   16  C   UNL     1       9.027  21.257  55.840  1.00  0.00     0.118 C 
HETATM   17  C   UNL     1       8.127  20.169  56.408  1.00  0.00     0.026 C 
ENDBRANCH  15  16
BRANCH  15  18
HETATM   18  C   UNL     1       8.959  21.685  53.393  1.00  0.00     0.118 C 
HETATM   19  C   UNL     1       8.353  20.454  52.736  1.00  0.00     0.026 C 
ENDBRANCH  15  18
ENDBRANCH  12  15
ENDBRANCH   6   9
ENDBRANCH   3   5
ENDBRANCH   1   3
BRANCH   1  20
HETATM   20  C   UNL     1       6.713  29.618  55.933  1.00  0.00     0.035 A 
HETATM   21  C   UNL     1       6.488  30.211  57.183  1.00  0.00     0.046 A 
HETATM   22  C   UNL     1       7.532  30.404  58.110  1.00  0.00     0.035 A 
HETATM   23  C   UNL     1       8.810  29.942  57.744  1.00  0.00     0.078 A 
HETATM   24  C   UNL     1       9.046  29.354  56.501  1.00  0.00     0.040 A 
HETATM   25  C   UNL     1       8.003  29.217  55.587  1.00  0.00     0.032 A 
BRANCH  22  26
HETATM   26  C   UNL     1       7.336  31.119  59.392  1.00  0.00     0.112 A 
HETATM   27  S   UNL     1       6.230  32.426  59.568  1.00  0.00    -0.067 SA
HETATM   28  C   UNL     1       6.759  32.684  61.181  1.00  0.00     0.035 A 
HETATM   29  C   UNL     1       7.718  31.724  61.500  1.00  0.00     0.075 A 
HETATM   30  C   UNL     1       6.358  33.669  62.098  1.00  0.00     0.021 A 
HETATM   31  N   UNL     1       8.022  30.830  60.486  1.00  0.00    -0.239 NA
HETATM   32  C   UNL     1       8.297  31.746  62.786  1.00  0.00     0.033 A 
HETATM   33  C   UNL     1       7.912  32.728  63.705  1.00  0.00     0.002 A 
HETATM   34  C   UNL     1       6.955  33.677  63.362  1.00  0.00     0.002 A 
ENDBRANCH  22  26
BRANCH  23  35
HETATM   35  O   UNL     1       9.908  30.054  58.560  1.00  0.00    -0.360 OA
HETATM   36  H   UNL     1       9.639  30.553  59.362  1.00  0.00     0.217 HD
ENDBRANCH  23  35
ENDBRANCH   1  20
TORSDOF 9
ENDMDL
MODEL 4
REMARK VINA RESULT:      -9.3      2.720      4.049
REMARK  9 active torsions:
REMARK  status: ('A' for Active; 'I' for Inactive)
REMARK    1  A    between atoms: C_2  and  N_3 
REMARK    2  A    between atoms: N_3  and  C_4 
REMARK    3  A    between atoms: N_3  and  C_32 
REMARK    4  A    between atoms: C_7  and  C_8 
REMARK       I    between atoms: C_8  and  N_9 
REMARK    5  A    between atoms: N_9  and  C_10 
REMARK    6  A    between atoms: C_10  and  N_11 
REMARK    7  A    between atoms: N_11  and  C_12 
REMARK    8  A    between atoms: C_14  and  C_15 
REMARK    9  A    between atoms: C_24  and  O_25 
ROOT
HETATM    1  N   UNL     1       7.461  29.156  56.699  1.00  0.00    -0.337 N 
HETATM    2  H   UNL     1       7.180  28.241  57.043  1.00  0.00     0.168 HD
ENDROOT
BRANCH   1   3
HETATM    3  C   UNL     1       8.499  29.115  55.795  1.00  0.00     0.157 C 
HETATM    4  S   UNL     1      10.041  29.415  56.362  1.00  0.00    -0.047 SA
BRANCH   3   5
HETATM    5  N   UNL     1       8.146  28.728  54.515  1.00  0.00    -0.201 NA
HETATM    6  C   UNL     1       7.106  27.873  54.199  1.00  0.00     0.237 C 
HETATM    7  O   UNL     1       6.082  28.319  53.686  1.00  0.00    -0.274 OA
HETATM    8  H   UNL     1       8.012  29.578  53.977  1.00  0.00     0.139 HD
BRANCH   6   9
HETATM    9  C   UNL     1       7.300  26.405  54.365  1.00  0.00     0.026 A 
HETATM   10  C   UNL     1       7.600  25.650  53.230  1.00  0.00     0.019 A 
HETATM   11  C   UNL     1       7.927  24.292  53.342  1.00  0.00     0.030 A 
HETATM   12  C   UNL     1       7.991  23.643  54.585  1.00  0.00     0.030 A 
HETATM   13  C   UNL     1       7.625  24.415  55.705  1.00  0.00     0.030 A 
HETATM   14  C   UNL     1       7.294  25.776  55.608  1.00  0.00     0.019 A 
BRANCH  12  15
HETATM   15  N   UNL     1       8.376  22.308  54.728  1.00  0.00    -0.382 N 
BRANCH  15  16
HETATM   16  C   UNL     1       8.999  21.646  53.568  1.00  0.00     0.118 C 
HETATM   17  C   UNL     1       8.069  20.577  53.012  1.00  0.00     0.026 C 
ENDBRANCH  15  16
BRANCH  15  18
HETATM   18  C   UNL     1       7.674  21.408  55.658  1.00  0.00     0.118 C 
HETATM   19  C   UNL     1       8.627  20.845  56.702  1.00  0.00     0.026 C 
ENDBRANCH  15  18
ENDBRANCH  12  15
ENDBRANCH   6   9
ENDBRANCH   3   5
ENDBRANCH   1   3
BRANCH   1  20
HETATM   20  C   UNL     1       6.779  30.263  57.247  1.00  0.00     0.035 A 
HETATM   21  C   UNL     1       7.042  30.753  58.534  1.00  0.00     0.046 A 
HETATM   22  C   UNL     1       6.297  31.813  59.089  1.00  0.00     0.035 A 
HETATM   23  C   UNL     1       5.298  32.389  58.283  1.00  0.00     0.078 A 
HETATM   24  C   UNL     1       5.025  31.907  57.003  1.00  0.00     0.040 A 
HETATM   25  C   UNL     1       5.748  30.828  56.496  1.00  0.00     0.032 A 
BRANCH  22  26
HETATM   26  C   UNL     1       6.491  32.277  60.482  1.00  0.00     0.112 A 
HETATM   27  S   UNL     1       8.038  32.333  61.237  1.00  0.00    -0.067 SA
HETATM   28  C   UNL     1       7.317  32.797  62.725  1.00  0.00     0.035 A 
HETATM   29  C   UNL     1       5.941  32.924  62.540  1.00  0.00     0.075 A 
HETATM   30  C   UNL     1       7.925  33.026  63.970  1.00  0.00     0.021 A 
HETATM   31  N   UNL     1       5.487  32.646  61.261  1.00  0.00    -0.239 NA
HETATM   32  C   UNL     1       5.142  33.298  63.639  1.00  0.00     0.033 A 
HETATM   33  C   UNL     1       5.735  33.522  64.887  1.00  0.00     0.002 A 
HETATM   34  C   UNL     1       7.110  33.386  65.047  1.00  0.00     0.002 A 
ENDBRANCH  22  26
BRANCH  23  35
HETATM   35  O   UNL     1       4.513  33.436  58.697  1.00  0.00    -0.360 OA
HETATM   36  H   UNL     1       4.886  34.261  58.317  1.00  0.00     0.217 HD
ENDBRANCH  23  35
ENDBRANCH   1  20
TORSDOF 9
ENDMDL
MODEL 5
REMARK VINA RESULT:      -9.3      1.612      2.405
REMARK  9 active torsions:
REMARK  status: ('A' for Active; 'I' for Inactive)
REMARK    1  A    between atoms: C_2  and  N_3 
REMARK    2  A    between atoms: N_3  and  C_4 
REMARK    3  A    between atoms: N_3  and  C_32 
REMARK    4  A    between atoms: C_7  and  C_8 
REMARK       I    between atoms: C_8  and  N_9 
REMARK    5  A    between atoms: N_9  and  C_10 
REMARK    6  A    between atoms: C_10  and  N_11 
REMARK    7  A    between atoms: N_11  and  C_12 
REMARK    8  A    between atoms: C_14  and  C_15 
REMARK    9  A    between atoms: C_24  and  O_25 
ROOT
HETATM    1  N   UNL     1       6.398  28.415  53.227  1.00  0.00    -0.337 N 
HETATM    2  H   UNL     1       7.389  28.188  53.225  1.00  0.00     0.168 HD
ENDROOT
BRANCH   1   3
HETATM    3  C   UNL     1       5.814  28.363  51.980  1.00  0.00     0.157 C 
HETATM    4  S   UNL     1       4.958  29.700  51.461  1.00  0.00    -0.047 SA
BRANCH   3   5
HETATM    5  N   UNL     1       6.093  27.222  51.250  1.00  0.00    -0.201 NA
HETATM    6  C   UNL     1       5.665  25.946  51.569  1.00  0.00     0.237 C 
HETATM    7  O   UNL     1       4.779  25.414  50.905  1.00  0.00    -0.274 OA
HETATM    8  H   UNL     1       5.805  27.407  50.295  1.00  0.00     0.139 HD
BRANCH   6   9
HETATM    9  C   UNL     1       6.381  25.188  52.633  1.00  0.00     0.026 A 
HETATM   10  C   UNL     1       5.756  25.045  53.873  1.00  0.00     0.019 A 
HETATM   11  C   UNL     1       6.316  24.230  54.865  1.00  0.00     0.030 A 
HETATM   12  C   UNL     1       7.503  23.511  54.654  1.00  0.00     0.030 A 
HETATM   13  C   UNL     1       8.142  23.723  53.417  1.00  0.00     0.030 A 
HETATM   14  C   UNL     1       7.594  24.536  52.413  1.00  0.00     0.019 A 
BRANCH  12  15
HETATM   15  N   UNL     1       8.047  22.644  55.605  1.00  0.00    -0.382 N 
BRANCH  15  16
HETATM   16  C   UNL     1       7.820  21.200  55.425  1.00  0.00     0.118 C 
HETATM   17  C   UNL     1       8.893  20.404  56.154  1.00  0.00     0.026 C 
ENDBRANCH  15  16
BRANCH  15  18
HETATM   18  C   UNL     1       8.256  23.074  56.998  1.00  0.00     0.118 C 
HETATM   19  C   UNL     1       9.087  24.347  57.060  1.00  0.00     0.026 C 
ENDBRANCH  15  18
ENDBRANCH  12  15
ENDBRANCH   6   9
ENDBRANCH   3   5
ENDBRANCH   1   3
BRANCH   1  20
HETATM   20  C   UNL     1       5.843  28.782  54.472  1.00  0.00     0.035 A 
HETATM   21  C   UNL     1       6.594  29.397  55.482  1.00  0.00     0.046 A 
HETATM   22  C   UNL     1       6.039  29.687  56.745  1.00  0.00     0.035 A 
HETATM   23  C   UNL     1       4.684  29.365  56.941  1.00  0.00     0.078 A 
HETATM   24  C   UNL     1       3.928  28.748  55.944  1.00  0.00     0.040 A 
HETATM   25  C   UNL     1       4.515  28.433  54.719  1.00  0.00     0.032 A 
BRANCH  22  26
HETATM   26  C   UNL     1       6.843  30.243  57.858  1.00  0.00     0.112 A 
HETATM   27  S   UNL     1       8.371  29.595  58.316  1.00  0.00    -0.067 SA
HETATM   28  C   UNL     1       8.450  30.673  59.651  1.00  0.00     0.035 A 
HETATM   29  C   UNL     1       7.323  31.493  59.637  1.00  0.00     0.075 A 
HETATM   30  C   UNL     1       9.438  30.782  60.644  1.00  0.00     0.021 A 
HETATM   31  N   UNL     1       6.430  31.254  58.605  1.00  0.00    -0.239 NA
HETATM   32  C   UNL     1       7.177  32.462  60.650  1.00  0.00     0.033 A 
HETATM   33  C   UNL     1       8.150  32.574  61.650  1.00  0.00     0.002 A 
HETATM   34  C   UNL     1       9.265  31.742  61.644  1.00  0.00     0.002 A 
ENDBRANCH  22  26
BRANCH  23  35
HETATM   35  O   UNL     1       4.019  29.608  58.117  1.00  0.00    -0.360 OA
HETATM   36  H   UNL     1       4.614  29.357  58.857  1.00  0.00     0.217 HD
ENDBRANCH  23  35
ENDBRANCH   1  20
TORSDOF 9
ENDMDL
MODEL 6
REMARK VINA RESULT:      -8.9      3.464     11.196
REMARK  9 active torsions:
REMARK  status: ('A' for Active; 'I' for Inactive)
REMARK    1  A    between atoms: C_2  and  N_3 
REMARK    2  A    between atoms: N_3  and  C_4 
REMARK    3  A    between atoms: N_3  and  C_32 
REMARK    4  A    between atoms: C_7  and  C_8 
REMARK       I    between atoms: C_8  and  N_9 
REMARK    5  A    between atoms: N_9  and  C_10 
REMARK    6  A    between atoms: C_10  and  N_11 
REMARK    7  A    between atoms: N_11  and  C_12 
REMARK    8  A    between atoms: C_14  and  C_15 
REMARK    9  A    between atoms: C_24  and  O_25 
ROOT
HETATM    1  N   UNL     1       8.245  29.867  58.902  1.00  0.00    -0.337 N 
HETATM    2  H   UNL     1       9.166  29.468  59.064  1.00  0.00     0.168 HD
ENDROOT
BRANCH   1   3
HETATM    3  C   UNL     1       8.027  31.051  59.570  1.00  0.00     0.157 C 
HETATM    4  S   UNL     1       6.761  32.015  59.060  1.00  0.00    -0.047 SA
BRANCH   3   5
HETATM    5  N   UNL     1       8.839  31.262  60.669  1.00  0.00    -0.201 NA
HETATM    6  C   UNL     1       8.522  30.923  61.972  1.00  0.00     0.237 C 
HETATM    7  O   UNL     1       9.082  29.970  62.509  1.00  0.00    -0.274 OA
HETATM    8  H   UNL     1       9.737  30.838  60.457  1.00  0.00     0.139 HD
BRANCH   6   9
HETATM    9  C   UNL     1       7.603  31.804  62.745  1.00  0.00     0.026 A 
HETATM   10  C   UNL     1       6.229  31.582  62.631  1.00  0.00     0.019 A 
HETATM   11  C   UNL     1       5.323  32.286  63.435  1.00  0.00     0.030 A 
HETATM   12  C   UNL     1       5.749  33.215  64.397  1.00  0.00     0.030 A 
HETATM   13  C   UNL     1       7.135  33.462  64.447  1.00  0.00     0.030 A 
HETATM   14  C   UNL     1       8.055  32.765  63.647  1.00  0.00     0.019 A 
BRANCH  12  15
HETATM   15  N   UNL     1       4.869  33.882  65.253  1.00  0.00    -0.382 N 
BRANCH  15  16
HETATM   16  C   UNL     1       3.626  34.419  64.675  1.00  0.00     0.118 C 
HETATM   17  C   UNL     1       3.868  35.810  64.108  1.00  0.00     0.026 C 
ENDBRANCH  15  16
BRANCH  15  18
HETATM   18  C   UNL     1       5.359  34.588  66.449  1.00  0.00     0.118 C 
HETATM   19  C   UNL     1       4.725  34.030  67.715  1.00  0.00     0.026 C 
ENDBRANCH  15  18
ENDBRANCH  12  15
ENDBRANCH   6   9
ENDBRANCH   3   5
ENDBRANCH   1   3
BRANCH   1  20
HETATM   20  C   UNL     1       7.374  29.114  58.085  1.00  0.00     0.035 A 
HETATM   21  C   UNL     1       7.722  27.861  57.563  1.00  0.00     0.046 A 
HETATM   22  C   UNL     1       6.867  27.160  56.688  1.00  0.00     0.035 A 
HETATM   23  C   UNL     1       5.627  27.754  56.388  1.00  0.00     0.078 A 
HETATM   24  C   UNL     1       5.273  29.003  56.898  1.00  0.00     0.040 A 
HETATM   25  C   UNL     1       6.157  29.694  57.726  1.00  0.00     0.032 A 
BRANCH  22  26
HETATM   26  C   UNL     1       7.258  25.884  56.046  1.00  0.00     0.112 A 
HETATM   27  S   UNL     1       8.285  24.734  56.812  1.00  0.00    -0.067 SA
HETATM   28  C   UNL     1       8.297  23.768  55.392  1.00  0.00     0.035 A 
HETATM   29  C   UNL     1       7.477  24.364  54.435  1.00  0.00     0.075 A 
HETATM   30  C   UNL     1       8.987  22.572  55.141  1.00  0.00     0.021 A 
HETATM   31  N   UNL     1       6.878  25.551  54.824  1.00  0.00    -0.239 NA
HETATM   32  C   UNL     1       7.337  23.738  53.179  1.00  0.00     0.033 A 
HETATM   33  C   UNL     1       8.027  22.550  52.914  1.00  0.00     0.002 A 
HETATM   34  C   UNL     1       8.842  21.976  53.885  1.00  0.00     0.002 A 
ENDBRANCH  22  26
BRANCH  23  35
HETATM   35  O   UNL     1       4.698  27.171  55.563  1.00  0.00    -0.360 OA
HETATM   36  H   UNL     1       4.319  27.873  54.990  1.00  0.00     0.217 HD
ENDBRANCH  23  35
ENDBRANCH   1  20
TORSDOF 9
ENDMDL
MODEL 7
REMARK VINA RESULT:      -8.9      3.047     10.980
REMARK  9 active torsions:
REMARK  status: ('A' for Active; 'I' for Inactive)
REMARK    1  A    between atoms: C_2  and  N_3 
REMARK    2  A    between atoms: N_3  and  C_4 
REMARK    3  A    between atoms: N_3  and  C_32 
REMARK    4  A    between atoms: C_7  and  C_8 
REMARK       I    between atoms: C_8  and  N_9 
REMARK    5  A    between atoms: N_9  and  C_10 
REMARK    6  A    between atoms: C_10  and  N_11 
REMARK    7  A    between atoms: N_11  and  C_12 
REMARK    8  A    between atoms: C_14  and  C_15 
REMARK    9  A    between atoms: C_24  and  O_25 
ROOT
HETATM    1  N   UNL     1       7.805  28.996  58.381  1.00  0.00    -0.337 N 
HETATM    2  H   UNL     1       7.932  28.402  59.196  1.00  0.00     0.168 HD
ENDROOT
BRANCH   1   3
HETATM    3  C   UNL     1       7.686  30.335  58.682  1.00  0.00     0.157 C 
HETATM    4  S   UNL     1       6.300  31.126  58.191  1.00  0.00    -0.047 SA
BRANCH   3   5
HETATM    5  N   UNL     1       8.707  30.854  59.458  1.00  0.00    -0.201 NA
HETATM    6  C   UNL     1       8.765  30.803  60.838  1.00  0.00     0.237 C 
HETATM    7  O   UNL     1       9.559  30.044  61.390  1.00  0.00    -0.274 OA
HETATM    8  H   UNL     1       9.573  30.460  59.105  1.00  0.00     0.139 HD
BRANCH   6   9
HETATM    9  C   UNL     1       7.954  31.768  61.632  1.00  0.00     0.026 A 
HETATM   10  C   UNL     1       8.237  31.901  62.993  1.00  0.00     0.019 A 
HETATM   11  C   UNL     1       7.604  32.887  63.760  1.00  0.00     0.030 A 
HETATM   12  C   UNL     1       6.687  33.791  63.201  1.00  0.00     0.030 A 
HETATM   13  C   UNL     1       6.377  33.594  61.841  1.00  0.00     0.030 A 
HETATM   14  C   UNL     1       7.003  32.610  61.058  1.00  0.00     0.019 A 
BRANCH  12  15
HETATM   15  N   UNL     1       6.091  34.822  63.931  1.00  0.00    -0.382 N 
BRANCH  15  16
HETATM   16  C   UNL     1       5.784  34.568  65.349  1.00  0.00     0.118 C 
HETATM   17  C   UNL     1       4.459  33.829  65.475  1.00  0.00     0.026 C 
ENDBRANCH  15  16
BRANCH  15  18
HETATM   18  C   UNL     1       5.233  35.823  63.275  1.00  0.00     0.118 C 
HETATM   19  C   UNL     1       5.349  37.177  63.959  1.00  0.00     0.026 C 
ENDBRANCH  15  18
ENDBRANCH  12  15
ENDBRANCH   6   9
ENDBRANCH   3   5
ENDBRANCH   1   3
BRANCH   1  20
HETATM   20  C   UNL     1       7.725  28.338  57.135  1.00  0.00     0.035 A 
HETATM   21  C   UNL     1       7.697  26.941  57.018  1.00  0.00     0.046 A 
HETATM   22  C   UNL     1       7.693  26.304  55.761  1.00  0.00     0.035 A 
HETATM   23  C   UNL     1       7.680  27.129  54.622  1.00  0.00     0.078 A 
HETATM   24  C   UNL     1       7.713  28.519  54.726  1.00  0.00     0.040 A 
HETATM   25  C   UNL     1       7.761  29.122  55.982  1.00  0.00     0.032 A 
BRANCH  22  26
HETATM   26  C   UNL     1       7.766  24.831  55.616  1.00  0.00     0.112 A 
HETATM   27  S   UNL     1       8.121  23.784  56.935  1.00  0.00    -0.067 SA
HETATM   28  C   UNL     1       8.142  22.429  55.880  1.00  0.00     0.035 A 
HETATM   29  C   UNL     1       7.831  22.857  54.590  1.00  0.00     0.075 A 
HETATM   30  C   UNL     1       8.420  21.084  56.171  1.00  0.00     0.021 A 
HETATM   31  N   UNL     1       7.600  24.217  54.457  1.00  0.00    -0.239 NA
HETATM   32  C   UNL     1       7.792  21.904  53.551  1.00  0.00     0.033 A 
HETATM   33  C   UNL     1       8.075  20.562  53.828  1.00  0.00     0.002 A 
HETATM   34  C   UNL     1       8.386  20.160  55.123  1.00  0.00     0.002 A 
ENDBRANCH  22  26
BRANCH  23  35
HETATM   35  O   UNL     1       7.660  26.635  53.341  1.00  0.00    -0.360 OA
HETATM   36  H   UNL     1       8.158  25.788  53.336  1.00  0.00     0.217 HD
ENDBRANCH  23  35
ENDBRANCH   1  20
TORSDOF 9
ENDMDL
MODEL 8
REMARK VINA RESULT:      -8.8      2.945      9.213
REMARK  9 active torsions:
REMARK  status: ('A' for Active; 'I' for Inactive)
REMARK    1  A    between atoms: C_2  and  N_3 
REMARK    2  A    between atoms: N_3  and  C_4 
REMARK    3  A    between atoms: N_3  and  C_32 
REMARK    4  A    between atoms: C_7  and  C_8 
REMARK       I    between atoms: C_8  and  N_9 
REMARK    5  A    between atoms: N_9  and  C_10 
REMARK    6  A    between atoms: C_10  and  N_11 
REMARK    7  A    between atoms: N_11  and  C_12 
REMARK    8  A    between atoms: C_14  and  C_15 
REMARK    9  A    between atoms: C_24  and  O_25 
ROOT
HETATM    1  N   UNL     1       4.109  27.946  56.330  1.00  0.00    -0.337 N 
HETATM    2  H   UNL     1       3.294  27.361  56.498  1.00  0.00     0.168 HD
ENDROOT
BRANCH   1   3
HETATM    3  C   UNL     1       3.800  29.214  55.889  1.00  0.00     0.157 C 
HETATM    4  S   UNL     1       4.262  29.638  54.341  1.00  0.00    -0.047 SA
BRANCH   3   5
HETATM    5  N   UNL     1       3.042  29.970  56.765  1.00  0.00    -0.201 NA
HETATM    6  C   UNL     1       3.235  31.313  57.032  1.00  0.00     0.237 C 
HETATM    7  O   UNL     1       2.443  32.144  56.593  1.00  0.00    -0.274 OA
HETATM    8  H   UNL     1       2.072  29.853  56.491  1.00  0.00     0.139 HD
BRANCH   6   9
HETATM    9  C   UNL     1       4.329  31.717  57.958  1.00  0.00     0.026 A 
HETATM   10  C   UNL     1       3.990  32.453  59.095  1.00  0.00     0.019 A 
HETATM   11  C   UNL     1       4.952  32.744  60.071  1.00  0.00     0.030 A 
HETATM   12  C   UNL     1       6.277  32.295  59.966  1.00  0.00     0.030 A 
HETATM   13  C   UNL     1       6.604  31.607  58.780  1.00  0.00     0.030 A 
HETATM   14  C   UNL     1       5.652  31.309  57.793  1.00  0.00     0.019 A 
BRANCH  12  15
HETATM   15  N   UNL     1       7.238  32.518  60.955  1.00  0.00    -0.382 N 
BRANCH  15  16
HETATM   16  C   UNL     1       8.176  31.424  61.258  1.00  0.00     0.118 C 
HETATM   17  C   UNL     1       9.603  31.857  60.956  1.00  0.00     0.026 C 
ENDBRANCH  15  16
BRANCH  15  18
HETATM   18  C   UNL     1       6.984  33.449  62.067  1.00  0.00     0.118 C 
HETATM   19  C   UNL     1       6.981  32.722  63.403  1.00  0.00     0.026 C 
ENDBRANCH  15  18
ENDBRANCH  12  15
ENDBRANCH   6   9
ENDBRANCH   3   5
ENDBRANCH   1   3
BRANCH   1  20
HETATM   20  C   UNL     1       5.366  27.337  56.527  1.00  0.00     0.035 A 
HETATM   21  C   UNL     1       5.781  26.208  55.807  1.00  0.00     0.046 A 
HETATM   22  C   UNL     1       7.010  25.571  56.073  1.00  0.00     0.035 A 
HETATM   23  C   UNL     1       7.825  26.137  57.070  1.00  0.00     0.078 A 
HETATM   24  C   UNL     1       7.420  27.256  57.797  1.00  0.00     0.040 A 
HETATM   25  C   UNL     1       6.179  27.840  57.543  1.00  0.00     0.032 A 
BRANCH  22  26
HETATM   26  C   UNL     1       7.420  24.320  55.394  1.00  0.00     0.112 A 
HETATM   27  S   UNL     1       7.293  24.102  53.691  1.00  0.00    -0.067 SA
HETATM   28  C   UNL     1       7.800  22.468  53.842  1.00  0.00     0.035 A 
HETATM   29  C   UNL     1       8.080  22.204  55.182  1.00  0.00     0.075 A 
HETATM   30  C   UNL     1       7.937  21.487  52.847  1.00  0.00     0.021 A 
HETATM   31  N   UNL     1       7.881  23.267  56.049  1.00  0.00    -0.239 NA
HETATM   32  C   UNL     1       8.516  20.913  55.542  1.00  0.00     0.033 A 
HETATM   33  C   UNL     1       8.647  19.925  54.560  1.00  0.00     0.002 A 
HETATM   34  C   UNL     1       8.360  20.211  53.230  1.00  0.00     0.002 A 
ENDBRANCH  22  26
BRANCH  23  35
HETATM   35  O   UNL     1       9.050  25.623  57.416  1.00  0.00    -0.360 OA
HETATM   36  H   UNL     1       9.724  26.322  57.265  1.00  0.00     0.217 HD
ENDBRANCH  23  35
ENDBRANCH   1  20
TORSDOF 9
ENDMDL
MODEL 9
REMARK VINA RESULT:      -8.7      2.890      4.317
REMARK  9 active torsions:
REMARK  status: ('A' for Active; 'I' for Inactive)
REMARK    1  A    between atoms: C_2  and  N_3 
REMARK    2  A    between atoms: N_3  and  C_4 
REMARK    3  A    between atoms: N_3  and  C_32 
REMARK    4  A    between atoms: C_7  and  C_8 
REMARK       I    between atoms: C_8  and  N_9 
REMARK    5  A    between atoms: N_9  and  C_10 
REMARK    6  A    between atoms: C_10  and  N_11 
REMARK    7  A    between atoms: N_11  and  C_12 
REMARK    8  A    between atoms: C_14  and  C_15 
REMARK    9  A    between atoms: C_24  and  O_25 
ROOT
HETATM    1  N   UNL     1       6.318  29.943  55.501  1.00  0.00    -0.337 N 
HETATM    2  H   UNL     1       6.632  30.430  54.665  1.00  0.00     0.168 HD
ENDROOT
BRANCH   1   3
HETATM    3  C   UNL     1       6.618  28.599  55.507  1.00  0.00     0.157 C 
HETATM    4  S   UNL     1       7.329  27.951  54.141  1.00  0.00    -0.047 SA
BRANCH   3   5
HETATM    5  N   UNL     1       6.379  27.950  56.705  1.00  0.00    -0.201 NA
HETATM    6  C   UNL     1       7.268  27.108  57.347  1.00  0.00     0.237 C 
HETATM    7  O   UNL     1       7.837  27.485  58.370  1.00  0.00    -0.274 OA
HETATM    8  H   UNL     1       6.100  28.661  57.373  1.00  0.00     0.139 HD
BRANCH   6   9
HETATM    9  C   UNL     1       7.419  25.709  56.860  1.00  0.00     0.026 A 
HETATM   10  C   UNL     1       6.351  25.134  56.171  1.00  0.00     0.019 A 
HETATM   11  C   UNL     1       6.483  23.874  55.571  1.00  0.00     0.030 A 
HETATM   12  C   UNL     1       7.685  23.152  55.615  1.00  0.00     0.030 A 
HETATM   13  C   UNL     1       8.725  23.730  56.369  1.00  0.00     0.030 A 
HETATM   14  C   UNL     1       8.609  24.991  56.976  1.00  0.00     0.019 A 
BRANCH  12  15
HETATM   15  N   UNL     1       7.860  21.924  54.973  1.00  0.00    -0.382 N 
BRANCH  15  16
HETATM   16  C   UNL     1       7.804  20.705  55.797  1.00  0.00     0.118 C 
HETATM   17  C   UNL     1       9.201  20.324  56.266  1.00  0.00     0.026 C 
ENDBRANCH  15  16
BRANCH  15  18
HETATM   18  C   UNL     1       8.671  21.814  53.748  1.00  0.00     0.118 C 
HETATM   19  C   UNL     1       8.175  20.680  52.862  1.00  0.00     0.026 C 
ENDBRANCH  15  18
ENDBRANCH  12  15
ENDBRANCH   6   9
ENDBRANCH   3   5
ENDBRANCH   1   3
BRANCH   1  20
HETATM   20  C   UNL     1       5.607  30.716  56.443  1.00  0.00     0.035 A 
HETATM   21  C   UNL     1       6.180  31.164  57.641  1.00  0.00     0.046 A 
HETATM   22  C   UNL     1       5.429  31.871  58.602  1.00  0.00     0.035 A 
HETATM   23  C   UNL     1       4.083  32.143  58.294  1.00  0.00     0.078 A 
HETATM   24  C   UNL     1       3.502  31.697  57.108  1.00  0.00     0.040 A 
HETATM   25  C   UNL     1       4.256  30.962  56.195  1.00  0.00     0.032 A 
BRANCH  22  26
HETATM   26  C   UNL     1       5.988  32.264  59.917  1.00  0.00     0.112 A 
HETATM   27  S   UNL     1       7.544  31.759  60.454  1.00  0.00    -0.067 SA
HETATM   28  C   UNL     1       7.277  32.496  61.982  1.00  0.00     0.035 A 
HETATM   29  C   UNL     1       6.032  33.122  61.971  1.00  0.00     0.075 A 
HETATM   30  C   UNL     1       8.109  32.514  63.113  1.00  0.00     0.021 A 
HETATM   31  N   UNL     1       5.319  33.001  60.788  1.00  0.00    -0.239 NA
HETATM   32  C   UNL     1       5.601  33.795  63.132  1.00  0.00     0.033 A 
HETATM   33  C   UNL     1       6.417  33.813  64.268  1.00  0.00     0.002 A 
HETATM   34  C   UNL     1       7.655  33.179  64.256  1.00  0.00     0.002 A 
ENDBRANCH  22  26
BRANCH  23  35
HETATM   35  O   UNL     1       3.248  32.834  59.136  1.00  0.00    -0.360 OA
HETATM   36  H   UNL     1       3.032  33.692  58.709  1.00  0.00     0.217 HD
ENDBRANCH  23  35
ENDBRANCH   1  20
TORSDOF 9
ENDMDL
MODEL 10
REMARK VINA RESULT:      -8.7      2.432     10.062
REMARK  9 active torsions:
REMARK  status: ('A' for Active; 'I' for Inactive)
REMARK    1  A    between atoms: C_2  and  N_3 
REMARK    2  A    between atoms: N_3  and  C_4 
REMARK    3  A    between atoms: N_3  and  C_32 
REMARK    4  A    between atoms: C_7  and  C_8 
REMARK       I    between atoms: C_8  and  N_9 
REMARK    5  A    between atoms: N_9  and  C_10 
REMARK    6  A    between atoms: C_10  and  N_11 
REMARK    7  A    between atoms: N_11  and  C_12 
REMARK    8  A    between atoms: C_14  and  C_15 
REMARK    9  A    between atoms: C_24  and  O_25 
ROOT
HETATM    1  N   UNL     1       6.721  29.201  55.188  1.00  0.00    -0.337 N 
HETATM    2  H   UNL     1       7.308  29.779  54.592  1.00  0.00     0.168 HD
ENDROOT
BRANCH   1   3
HETATM    3  C   UNL     1       6.647  29.643  56.490  1.00  0.00     0.157 C 
HETATM    4  S   UNL     1       5.382  29.092  57.432  1.00  0.00    -0.047 SA
BRANCH   3   5
HETATM    5  N   UNL     1       7.705  30.433  56.902  1.00  0.00    -0.201 NA
HETATM    6  C   UNL     1       8.288  30.394  58.156  1.00  0.00     0.237 C 
HETATM    7  O   UNL     1       9.403  29.896  58.296  1.00  0.00    -0.274 OA
HETATM    8  H   UNL     1       8.447  30.309  56.220  1.00  0.00     0.139 HD
BRANCH   6   9
HETATM    9  C   UNL     1       7.609  31.078  59.291  1.00  0.00     0.026 A 
HETATM   10  C   UNL     1       8.114  30.878  60.576  1.00  0.00     0.019 A 
HETATM   11  C   UNL     1       7.605  31.600  61.664  1.00  0.00     0.030 A 
HETATM   12  C   UNL     1       6.594  32.561  61.511  1.00  0.00     0.030 A 
HETATM   13  C   UNL     1       6.062  32.697  60.213  1.00  0.00     0.030 A 
HETATM   14  C   UNL     1       6.562  31.981  59.114  1.00  0.00     0.019 A 
BRANCH  12  15
HETATM   15  N   UNL     1       6.114  33.337  62.569  1.00  0.00    -0.382 N 
BRANCH  15  16
HETATM   16  C   UNL     1       6.100  34.799  62.395  1.00  0.00     0.118 C 
HETATM   17  C   UNL     1       4.667  35.314  62.390  1.00  0.00     0.026 C 
ENDBRANCH  15  16
BRANCH  15  18
HETATM   18  C   UNL     1       6.222  32.875  63.963  1.00  0.00     0.118 C 
HETATM   19  C   UNL     1       7.358  33.581  64.689  1.00  0.00     0.026 C 
ENDBRANCH  15  18
ENDBRANCH  12  15
ENDBRANCH   6   9
ENDBRANCH   3   5
ENDBRANCH   1   3
BRANCH   1  20
HETATM   20  C   UNL     1       6.156  28.057  54.586  1.00  0.00     0.035 A 
HETATM   21  C   UNL     1       6.646  26.763  54.812  1.00  0.00     0.046 A 
HETATM   22  C   UNL     1       6.114  25.642  54.143  1.00  0.00     0.035 A 
HETATM   23  C   UNL     1       5.042  25.869  53.261  1.00  0.00     0.078 A 
HETATM   24  C   UNL     1       4.549  27.152  53.026  1.00  0.00     0.040 A 
HETATM   25  C   UNL     1       5.123  28.248  53.668  1.00  0.00     0.032 A 
BRANCH  22  26
HETATM   26  C   UNL     1       6.685  24.283  54.290  1.00  0.00     0.112 A 
HETATM   27  S   UNL     1       7.118  23.618  55.818  1.00  0.00    -0.067 SA
HETATM   28  C   UNL     1       7.765  22.224  55.050  1.00  0.00     0.035 A 
HETATM   29  C   UNL     1       7.568  22.335  53.674  1.00  0.00     0.075 A 
HETATM   30  C   UNL     1       8.406  21.115  55.624  1.00  0.00     0.021 A 
HETATM   31  N   UNL     1       6.937  23.496  53.258  1.00  0.00    -0.239 NA
HETATM   32  C   UNL     1       8.025  21.295  52.839  1.00  0.00     0.033 A 
HETATM   33  C   UNL     1       8.673  20.188  53.398  1.00  0.00     0.002 A 
HETATM   34  C   UNL     1       8.861  20.102  54.773  1.00  0.00     0.002 A 
ENDBRANCH  22  26
BRANCH  23  35
HETATM   35  O   UNL     1       4.424  24.864  52.559  1.00  0.00    -0.360 OA
HETATM   36  H   UNL     1       3.464  25.067  52.523  1.00  0.00     0.217 HD
ENDBRANCH  23  35
ENDBRANCH   1  20
TORSDOF 9
ENDMDL
