MODEL 1
REMARK VINA RESULT:     -10.5      0.000      0.000
REMARK  11 active torsions:
REMARK  status: ('A' for Active; 'I' for Inactive)
REMARK    1  A    between atoms: O_2  and  C_3 
REMARK    2  A    between atoms: C_6  and  C_7 
REMARK    3  A    between atoms: C_7  and  C_8 
REMARK    4  A    between atoms: C_8  and  N_9 
REMARK    5  A    between atoms: C_13  and  C_14 
REMARK    6  A    between atoms: C_14  and  C_15 
REMARK    7  A    between atoms: C_25  and  N_26 
REMARK    8  A    between atoms: N_26  and  C_27 
REMARK    9  A    between atoms: C_27  and  C_28 
REMARK   10  A    between atoms: C_28  and  O_29 
REMARK   11  A    between atoms: C_28  and  C_30 
ROOT
HETATM    1  C   UNL     1       5.588  27.943  54.450  1.00  0.00     0.074 A 
HETATM    2  C   UNL     1       5.173  28.636  53.198  1.00  0.00     0.266 A 
HETATM    3  O   UNL     1       5.038  29.862  53.190  1.00  0.00    -0.267 OA
HETATM    4  N   UNL     1       4.972  27.824  52.092  1.00  0.00    -0.273 N 
HETATM    5  C   UNL     1       5.217  26.466  52.192  1.00  0.00     0.138 A 
HETATM    6  N   UNL     1       5.625  25.872  53.267  1.00  0.00    -0.218 NA
HETATM    7  C   UNL     1       4.537  28.387  50.897  1.00  0.00     0.102 A 
HETATM    8  C   UNL     1       4.336  27.645  49.801  1.00  0.00     0.018 A 
HETATM    9  C   UNL     1       4.574  26.227  49.840  1.00  0.00     0.005 A 
HETATM   10  C   UNL     1       4.997  25.644  50.968  1.00  0.00     0.051 A 
HETATM   11  C   UNL     1       5.808  26.609  54.405  1.00  0.00     0.121 A 
ENDROOT
BRANCH   1  12
HETATM   12  C   UNL     1       5.635  28.700  55.692  1.00  0.00     0.045 C 
BRANCH  12  13
HETATM   13  C   UNL     1       6.759  29.098  56.300  1.00  0.00     0.077 C 
HETATM   14  S   UNL     1       8.377  28.852  55.777  1.00  0.00    -0.055 SA
HETATM   15  C   UNL     1       9.041  29.840  57.069  1.00  0.00     0.148 C 
HETATM   16  N   UNL     1       8.016  30.355  57.836  1.00  0.00    -0.298 N 
HETATM   17  S   UNL     1      10.683  30.073  57.255  1.00  0.00    -0.052 SA
HETATM   18  C   UNL     1       6.738  29.918  57.538  1.00  0.00     0.266 C 
HETATM   19  O   UNL     1       5.723  30.167  58.177  1.00  0.00    -0.266 OA
BRANCH  16  20
HETATM   20  C   UNL     1       8.188  31.366  58.874  1.00  0.00     0.138 C 
BRANCH  20  21
HETATM   21  C   UNL     1       8.483  30.788  60.260  1.00  0.00     0.059 C 
BRANCH  21  22
HETATM   22  C   UNL     1       7.886  31.682  61.321  1.00  0.00    -0.057 A 
HETATM   23  C   UNL     1       6.835  32.556  61.016  1.00  0.00     0.010 A 
HETATM   24  C   UNL     1       6.338  33.439  61.984  1.00  0.00     0.037 A 
HETATM   25  C   UNL     1       6.892  33.462  63.264  1.00  0.00     0.068 A 
HETATM   26  C   UNL     1       7.944  32.596  63.568  1.00  0.00     0.037 A 
HETATM   27  C   UNL     1       8.436  31.709  62.608  1.00  0.00     0.010 A 
BRANCH  25  28
HETATM   28  O   UNL     1       6.512  34.281  64.291  1.00  0.00    -0.356 OA
HETATM   29  C   UNL     1       6.832  33.851  65.607  1.00  0.00     0.210 C 
ENDBRANCH  25  28
ENDBRANCH  21  22
ENDBRANCH  20  21
ENDBRANCH  16  20
ENDBRANCH  12  13
ENDBRANCH   1  12
BRANCH  11  30
HETATM   30  N   UNL     1       6.184  25.895  55.540  1.00  0.00    -0.274 NA
HETATM   31  H   UNL     1       5.443  25.211  55.710  1.00  0.00     0.129 HD
BRANCH  30  32
HETATM   32  C   UNL     1       7.460  25.154  55.563  1.00  0.00     0.130 C 
BRANCH  32  33
HETATM   33  C   UNL     1       7.287  23.734  56.144  1.00  0.00     0.164 C 
BRANCH  33  34
HETATM   34  O   UNL     1       8.064  23.591  57.342  1.00  0.00    -0.390 OA
HETATM   35  H   UNL     1       8.974  23.387  57.064  1.00  0.00     0.210 HD
ENDBRANCH  33  34
BRANCH  33  36
HETATM   36  C   UNL     1       7.595  22.626  55.153  1.00  0.00    -0.029 A 
HETATM   37  C   UNL     1       7.896  21.337  55.618  1.00  0.00     0.010 A 
HETATM   38  C   UNL     1       8.192  20.310  54.720  1.00  0.00     0.001 A 
HETATM   39  C   UNL     1       8.196  20.558  53.350  1.00  0.00     0.000 A 
HETATM   40  C   UNL     1       7.879  21.829  52.873  1.00  0.00     0.001 A 
HETATM   41  C   UNL     1       7.574  22.855  53.769  1.00  0.00     0.010 A 
ENDBRANCH  33  36
ENDBRANCH  32  33
ENDBRANCH  30  32
ENDBRANCH  11  30
TORSDOF 11
ENDMDL
MODEL 2
REMARK VINA RESULT:     -10.0      3.165      8.954
REMARK  11 active torsions:
REMARK  status: ('A' for Active; 'I' for Inactive)
REMARK    1  A    between atoms: O_2  and  C_3 
REMARK    2  A    between atoms: C_6  and  C_7 
REMARK    3  A    between atoms: C_7  and  C_8 
REMARK    4  A    between atoms: C_8  and  N_9 
REMARK    5  A    between atoms: C_13  and  C_14 
REMARK    6  A    between atoms: C_14  and  C_15 
REMARK    7  A    between atoms: C_25  and  N_26 
REMARK    8  A    between atoms: N_26  and  C_27 
REMARK    9  A    between atoms: C_27  and  C_28 
REMARK   10  A    between atoms: C_28  and  O_29 
REMARK   11  A    between atoms: C_28  and  C_30 
ROOT
HETATM    1  C   UNL     1       6.398  29.089  56.676  1.00  0.00     0.074 A 
HETATM    2  C   UNL     1       6.919  30.095  57.643  1.00  0.00     0.266 A 
HETATM    3  O   UNL     1       6.136  30.710  58.373  1.00  0.00    -0.267 OA
HETATM    4  N   UNL     1       8.294  30.267  57.659  1.00  0.00    -0.273 N 
HETATM    5  C   UNL     1       9.088  29.478  56.845  1.00  0.00     0.138 A 
HETATM    6  N   UNL     1       8.637  28.569  56.042  1.00  0.00    -0.218 NA
HETATM    7  C   UNL     1       8.857  31.222  58.498  1.00  0.00     0.102 A 
HETATM    8  C   UNL     1      10.180  31.420  58.554  1.00  0.00     0.018 A 
HETATM    9  C   UNL     1      11.059  30.630  57.733  1.00  0.00     0.005 A 
HETATM   10  C   UNL     1      10.560  29.697  56.914  1.00  0.00     0.051 A 
HETATM   11  C   UNL     1       7.286  28.373  55.950  1.00  0.00     0.121 A 
ENDROOT
BRANCH   1  12
HETATM   12  C   UNL     1       4.960  28.988  56.470  1.00  0.00     0.045 C 
BRANCH  12  13
HETATM   13  C   UNL     1       4.267  29.699  55.572  1.00  0.00     0.077 C 
HETATM   14  S   UNL     1       3.718  31.320  55.719  1.00  0.00    -0.055 SA
HETATM   15  C   UNL     1       3.131  31.367  54.064  1.00  0.00     0.148 C 
HETATM   16  N   UNL     1       3.400  30.167  53.439  1.00  0.00    -0.298 N 
HETATM   17  S   UNL     1       2.380  32.714  53.426  1.00  0.00    -0.052 SA
HETATM   18  C   UNL     1       3.937  29.164  54.227  1.00  0.00     0.266 C 
HETATM   19  O   UNL     1       4.130  28.004  53.886  1.00  0.00    -0.266 OA
BRANCH  16  20
HETATM   20  C   UNL     1       3.224  29.919  52.012  1.00  0.00     0.138 C 
BRANCH  20  21
HETATM   21  C   UNL     1       4.526  29.953  51.211  1.00  0.00     0.059 C 
BRANCH  21  22
HETATM   22  C   UNL     1       4.457  28.947  50.086  1.00  0.00    -0.057 A 
HETATM   23  C   UNL     1       4.016  29.324  48.811  1.00  0.00     0.010 A 
HETATM   24  C   UNL     1       3.879  28.371  47.794  1.00  0.00     0.037 A 
HETATM   25  C   UNL     1       4.175  27.031  48.042  1.00  0.00     0.068 A 
HETATM   26  C   UNL     1       4.608  26.652  49.313  1.00  0.00     0.037 A 
HETATM   27  C   UNL     1       4.754  27.600  50.328  1.00  0.00     0.010 A 
BRANCH  25  28
HETATM   28  O   UNL     1       4.069  26.003  47.145  1.00  0.00    -0.356 OA
HETATM   29  C   UNL     1       2.985  25.102  47.328  1.00  0.00     0.210 C 
ENDBRANCH  25  28
ENDBRANCH  21  22
ENDBRANCH  20  21
ENDBRANCH  16  20
ENDBRANCH  12  13
ENDBRANCH   1  12
BRANCH  11  30
HETATM   30  N   UNL     1       6.870  27.426  55.019  1.00  0.00    -0.274 NA
HETATM   31  H   UNL     1       7.471  27.542  54.199  1.00  0.00     0.129 HD
BRANCH  30  32
HETATM   32  C   UNL     1       6.888  25.990  55.358  1.00  0.00     0.130 C 
BRANCH  32  33
HETATM   33  C   UNL     1       6.443  25.113  54.169  1.00  0.00     0.164 C 
BRANCH  33  34
HETATM   34  O   UNL     1       5.011  25.068  54.095  1.00  0.00    -0.390 OA
HETATM   35  H   UNL     1       4.688  24.903  54.998  1.00  0.00     0.210 HD
ENDBRANCH  33  34
BRANCH  33  36
HETATM   36  C   UNL     1       7.037  23.716  54.183  1.00  0.00    -0.029 A 
HETATM   37  C   UNL     1       7.217  23.044  55.401  1.00  0.00     0.010 A 
HETATM   38  C   UNL     1       7.773  21.765  55.431  1.00  0.00     0.001 A 
HETATM   39  C   UNL     1       8.159  21.142  54.246  1.00  0.00     0.000 A 
HETATM   40  C   UNL     1       7.968  21.789  53.026  1.00  0.00     0.001 A 
HETATM   41  C   UNL     1       7.404  23.065  52.994  1.00  0.00     0.010 A 
ENDBRANCH  33  36
ENDBRANCH  32  33
ENDBRANCH  30  32
ENDBRANCH  11  30
TORSDOF 11
ENDMDL
MODEL 3
REMARK VINA RESULT:     -10.0      1.655      2.066
REMARK  11 active torsions:
REMARK  status: ('A' for Active; 'I' for Inactive)
REMARK    1  A    between atoms: O_2  and  C_3 
REMARK    2  A    between atoms: C_6  and  C_7 
REMARK    3  A    between atoms: C_7  and  C_8 
REMARK    4  A    between atoms: C_8  and  N_9 
REMARK    5  A    between atoms: C_13  and  C_14 
REMARK    6  A    between atoms: C_14  and  C_15 
REMARK    7  A    between atoms: C_25  and  N_26 
REMARK    8  A    between atoms: N_26  and  C_27 
REMARK    9  A    between atoms: C_27  and  C_28 
REMARK   10  A    between atoms: C_28  and  O_29 
REMARK   11  A    between atoms: C_28  and  C_30 
ROOT
HETATM    1  C   UNL     1       5.019  27.875  55.095  1.00  0.00     0.074 A 
HETATM    2  C   UNL     1       4.372  28.458  53.886  1.00  0.00     0.266 A 
HETATM    3  O   UNL     1       3.663  29.462  53.992  1.00  0.00    -0.267 OA
HETATM    4  N   UNL     1       4.632  27.812  52.687  1.00  0.00    -0.273 N 
HETATM    5  C   UNL     1       5.496  26.732  52.670  1.00  0.00     0.138 A 
HETATM    6  N   UNL     1       6.096  26.257  53.714  1.00  0.00    -0.218 NA
HETATM    7  C   UNL     1       4.027  28.263  51.519  1.00  0.00     0.102 A 
HETATM    8  C   UNL     1       4.252  27.677  50.337  1.00  0.00     0.018 A 
HETATM    9  C   UNL     1       5.142  26.550  50.253  1.00  0.00     0.005 A 
HETATM   10  C   UNL     1       5.748  26.085  51.352  1.00  0.00     0.051 A 
HETATM   11  C   UNL     1       5.856  26.825  54.935  1.00  0.00     0.121 A 
ENDROOT
BRANCH   1  12
HETATM   12  C   UNL     1       4.645  28.382  56.408  1.00  0.00     0.045 C 
BRANCH  12  13
HETATM   13  C   UNL     1       4.947  29.602  56.868  1.00  0.00     0.077 C 
HETATM   14  S   UNL     1       3.886  30.940  57.062  1.00  0.00    -0.055 SA
HETATM   15  C   UNL     1       5.117  31.919  57.845  1.00  0.00     0.148 C 
HETATM   16  N   UNL     1       6.283  31.191  57.968  1.00  0.00    -0.298 N 
HETATM   17  S   UNL     1       4.824  33.484  58.342  1.00  0.00    -0.052 SA
HETATM   18  C   UNL     1       6.302  29.943  57.371  1.00  0.00     0.266 C 
HETATM   19  O   UNL     1       7.274  29.206  57.270  1.00  0.00    -0.266 OA
BRANCH  16  20
HETATM   20  C   UNL     1       7.448  31.620  58.734  1.00  0.00     0.138 C 
BRANCH  20  21
HETATM   21  C   UNL     1       7.655  30.843  60.036  1.00  0.00     0.059 C 
BRANCH  21  22
HETATM   22  C   UNL     1       7.456  31.765  61.215  1.00  0.00    -0.057 A 
HETATM   23  C   UNL     1       8.399  31.823  62.249  1.00  0.00     0.010 A 
HETATM   24  C   UNL     1       8.171  32.621  63.378  1.00  0.00     0.037 A 
HETATM   25  C   UNL     1       6.994  33.362  63.488  1.00  0.00     0.068 A 
HETATM   26  C   UNL     1       6.050  33.299  62.463  1.00  0.00     0.037 A 
HETATM   27  C   UNL     1       6.277  32.512  61.332  1.00  0.00     0.010 A 
BRANCH  25  28
HETATM   28  O   UNL     1       6.644  34.163  64.540  1.00  0.00    -0.356 OA
HETATM   29  C   UNL     1       5.564  33.721  65.351  1.00  0.00     0.210 C 
ENDBRANCH  25  28
ENDBRANCH  21  22
ENDBRANCH  20  21
ENDBRANCH  16  20
ENDBRANCH  12  13
ENDBRANCH   1  12
BRANCH  11  30
HETATM   30  N   UNL     1       6.483  26.222  56.022  1.00  0.00    -0.274 NA
HETATM   31  H   UNL     1       5.768  25.666  56.497  1.00  0.00     0.129 HD
BRANCH  30  32
HETATM   32  C   UNL     1       7.643  25.334  55.813  1.00  0.00     0.130 C 
BRANCH  32  33
HETATM   33  C   UNL     1       7.373  23.907  56.334  1.00  0.00     0.164 C 
BRANCH  33  34
HETATM   34  O   UNL     1       8.139  23.659  57.521  1.00  0.00    -0.390 OA
HETATM   35  H   UNL     1       7.888  24.343  58.166  1.00  0.00     0.210 HD
ENDBRANCH  33  34
BRANCH  33  36
HETATM   36  C   UNL     1       7.601  22.823  55.296  1.00  0.00    -0.029 A 
HETATM   37  C   UNL     1       7.685  23.162  53.937  1.00  0.00     0.010 A 
HETATM   38  C   UNL     1       7.883  22.176  52.970  1.00  0.00     0.001 A 
HETATM   39  C   UNL     1       7.996  20.840  53.347  1.00  0.00     0.000 A 
HETATM   40  C   UNL     1       7.935  20.489  54.694  1.00  0.00     0.001 A 
HETATM   41  C   UNL     1       7.746  21.476  55.663  1.00  0.00     0.010 A 
ENDBRANCH  33  36
ENDBRANCH  32  33
ENDBRANCH  30  32
ENDBRANCH  11  30
TORSDOF 11
ENDMDL
MODEL 4
REMARK VINA RESULT:      -9.8      3.102      9.605
REMARK  11 active torsions:
REMARK  status: ('A' for Active; 'I' for Inactive)
REMARK    1  A    between atoms: O_2  and  C_3 
REMARK    2  A    between atoms: C_6  and  C_7 
REMARK    3  A    between atoms: C_7  and  C_8 
REMARK    4  A    between atoms: C_8  and  N_9 
REMARK    5  A    between atoms: C_13  and  C_14 
REMARK    6  A    between atoms: C_14  and  C_15 
REMARK    7  A    between atoms: C_25  and  N_26 
REMARK    8  A    between atoms: N_26  and  C_27 
REMARK    9  A    between atoms: C_27  and  C_28 
REMARK   10  A    between atoms: C_28  and  O_29 
REMARK   11  A    between atoms: C_28  and  C_30 
ROOT
HETATM    1  C   UNL     1       5.991  28.314  55.861  1.00  0.00     0.074 A 
HETATM    2  C   UNL     1       5.912  29.383  56.895  1.00  0.00     0.266 A 
HETATM    3  O   UNL     1       4.814  29.840  57.225  1.00  0.00    -0.267 OA
HETATM    4  N   UNL     1       7.119  29.794  57.438  1.00  0.00    -0.273 N 
HETATM    5  C   UNL     1       8.289  29.168  57.047  1.00  0.00     0.138 A 
HETATM    6  N   UNL     1       8.351  28.206  56.183  1.00  0.00    -0.218 NA
HETATM    7  C   UNL     1       7.137  30.821  58.376  1.00  0.00     0.102 A 
HETATM    8  C   UNL     1       8.276  31.247  58.934  1.00  0.00     0.018 A 
HETATM    9  C   UNL     1       9.526  30.636  58.568  1.00  0.00     0.005 A 
HETATM   10  C   UNL     1       9.556  29.642  57.673  1.00  0.00     0.051 A 
HETATM   11  C   UNL     1       7.201  27.777  55.581  1.00  0.00     0.121 A 
ENDROOT
BRANCH   1  12
HETATM   12  C   UNL     1       4.791  27.966  55.114  1.00  0.00     0.045 C 
BRANCH  12  13
HETATM   13  C   UNL     1       4.411  28.544  53.969  1.00  0.00     0.077 C 
HETATM   14  S   UNL     1       3.614  30.054  53.772  1.00  0.00    -0.055 SA
HETATM   15  C   UNL     1       3.727  29.988  52.020  1.00  0.00     0.148 C 
HETATM   16  N   UNL     1       4.395  28.843  51.638  1.00  0.00    -0.298 N 
HETATM   17  S   UNL     1       3.097  31.185  51.044  1.00  0.00    -0.052 SA
HETATM   18  C   UNL     1       4.720  27.949  52.644  1.00  0.00     0.266 C 
HETATM   19  O   UNL     1       5.202  26.834  52.490  1.00  0.00    -0.266 OA
BRANCH  16  20
HETATM   20  C   UNL     1       4.833  28.556  50.277  1.00  0.00     0.138 C 
BRANCH  20  21
HETATM   21  C   UNL     1       4.624  27.101  49.850  1.00  0.00     0.059 C 
BRANCH  21  22
HETATM   22  C   UNL     1       3.482  27.019  48.866  1.00  0.00    -0.057 A 
HETATM   23  C   UNL     1       3.526  26.127  47.787  1.00  0.00     0.010 A 
HETATM   24  C   UNL     1       2.501  26.110  46.833  1.00  0.00     0.037 A 
HETATM   25  C   UNL     1       1.424  26.990  46.944  1.00  0.00     0.068 A 
HETATM   26  C   UNL     1       1.381  27.884  48.014  1.00  0.00     0.037 A 
HETATM   27  C   UNL     1       2.398  27.898  48.972  1.00  0.00     0.010 A 
BRANCH  25  28
HETATM   28  O   UNL     1       0.370  27.086  46.077  1.00  0.00    -0.356 OA
HETATM   29  C   UNL     1      -0.265  28.354  45.978  1.00  0.00     0.210 C 
ENDBRANCH  25  28
ENDBRANCH  21  22
ENDBRANCH  20  21
ENDBRANCH  16  20
ENDBRANCH  12  13
ENDBRANCH   1  12
BRANCH  11  30
HETATM   30  N   UNL     1       7.350  26.784  54.617  1.00  0.00    -0.274 NA
HETATM   31  H   UNL     1       8.175  27.039  54.066  1.00  0.00     0.129 HD
BRANCH  30  32
HETATM   32  C   UNL     1       7.527  25.376  55.019  1.00  0.00     0.130 C 
BRANCH  32  33
HETATM   33  C   UNL     1       7.008  24.402  53.941  1.00  0.00     0.164 C 
BRANCH  33  34
HETATM   34  O   UNL     1       5.581  24.501  53.829  1.00  0.00    -0.390 OA
HETATM   35  H   UNL     1       5.203  23.912  54.505  1.00  0.00     0.210 HD
ENDBRANCH  33  34
BRANCH  33  36
HETATM   36  C   UNL     1       7.443  22.963  54.155  1.00  0.00    -0.029 A 
HETATM   37  C   UNL     1       7.496  22.434  55.454  1.00  0.00     0.010 A 
HETATM   38  C   UNL     1       7.905  21.117  55.668  1.00  0.00     0.001 A 
HETATM   39  C   UNL     1       8.269  20.314  54.590  1.00  0.00     0.000 A 
HETATM   40  C   UNL     1       8.203  20.819  53.293  1.00  0.00     0.001 A 
HETATM   41  C   UNL     1       7.785  22.133  53.077  1.00  0.00     0.010 A 
ENDBRANCH  33  36
ENDBRANCH  32  33
ENDBRANCH  30  32
ENDBRANCH  11  30
TORSDOF 11
ENDMDL
MODEL 5
REMARK VINA RESULT:      -9.8      1.346      5.087
REMARK  11 active torsions:
REMARK  status: ('A' for Active; 'I' for Inactive)
REMARK    1  A    between atoms: O_2  and  C_3 
REMARK    2  A    between atoms: C_6  and  C_7 
REMARK    3  A    between atoms: C_7  and  C_8 
REMARK    4  A    between atoms: C_8  and  N_9 
REMARK    5  A    between atoms: C_13  and  C_14 
REMARK    6  A    between atoms: C_14  and  C_15 
REMARK    7  A    between atoms: C_25  and  N_26 
REMARK    8  A    between atoms: N_26  and  C_27 
REMARK    9  A    between atoms: C_27  and  C_28 
REMARK   10  A    between atoms: C_28  and  O_29 
REMARK   11  A    between atoms: C_28  and  C_30 
ROOT
HETATM    1  C   UNL     1       6.343  26.250  54.721  1.00  0.00     0.074 A 
HETATM    2  C   UNL     1       6.695  25.087  55.583  1.00  0.00     0.266 A 
HETATM    3  O   UNL     1       6.612  25.185  56.810  1.00  0.00    -0.267 OA
HETATM    4  N   UNL     1       7.095  23.938  54.920  1.00  0.00    -0.273 N 
HETATM    5  C   UNL     1       7.088  23.913  53.537  1.00  0.00     0.138 A 
HETATM    6  N   UNL     1       6.735  24.908  52.788  1.00  0.00    -0.218 NA
HETATM    7  C   UNL     1       7.486  22.823  55.653  1.00  0.00     0.102 A 
HETATM    8  C   UNL     1       7.873  21.688  55.058  1.00  0.00     0.018 A 
HETATM    9  C   UNL     1       7.887  21.599  53.622  1.00  0.00     0.005 A 
HETATM   10  C   UNL     1       7.514  22.647  52.878  1.00  0.00     0.051 A 
HETATM   11  C   UNL     1       6.364  26.086  53.378  1.00  0.00     0.121 A 
ENDROOT
BRANCH   1  12
HETATM   12  C   UNL     1       6.097  27.542  55.345  1.00  0.00     0.045 C 
BRANCH  12  13
HETATM   13  C   UNL     1       7.015  28.257  56.005  1.00  0.00     0.077 C 
HETATM   14  S   UNL     1       8.661  28.501  55.574  1.00  0.00    -0.055 SA
HETATM   15  C   UNL     1       8.927  29.645  56.881  1.00  0.00     0.148 C 
HETATM   16  N   UNL     1       7.754  29.835  57.581  1.00  0.00    -0.298 N 
HETATM   17  S   UNL     1      10.413  30.355  57.151  1.00  0.00    -0.052 SA
HETATM   18  C   UNL     1       6.681  29.037  57.223  1.00  0.00     0.266 C 
HETATM   19  O   UNL     1       5.604  28.975  57.801  1.00  0.00    -0.266 OA
BRANCH  16  20
HETATM   20  C   UNL     1       7.558  30.853  58.608  1.00  0.00     0.138 C 
BRANCH  20  21
HETATM   21  C   UNL     1       8.276  30.553  59.925  1.00  0.00     0.059 C 
BRANCH  21  22
HETATM   22  C   UNL     1       7.770  31.482  61.003  1.00  0.00    -0.057 A 
HETATM   23  C   UNL     1       6.839  32.485  60.708  1.00  0.00     0.010 A 
HETATM   24  C   UNL     1       6.433  33.394  61.693  1.00  0.00     0.037 A 
HETATM   25  C   UNL     1       6.960  33.313  62.983  1.00  0.00     0.068 A 
HETATM   26  C   UNL     1       7.894  32.319  63.277  1.00  0.00     0.037 A 
HETATM   27  C   UNL     1       8.294  31.406  62.299  1.00  0.00     0.010 A 
BRANCH  25  28
HETATM   28  O   UNL     1       6.661  34.144  64.027  1.00  0.00    -0.356 OA
HETATM   29  C   UNL     1       7.119  33.747  65.313  1.00  0.00     0.210 C 
ENDBRANCH  25  28
ENDBRANCH  21  22
ENDBRANCH  20  21
ENDBRANCH  16  20
ENDBRANCH  12  13
ENDBRANCH   1  12
BRANCH  11  30
HETATM   30  N   UNL     1       6.060  27.132  52.512  1.00  0.00    -0.274 NA
HETATM   31  H   UNL     1       6.908  27.701  52.437  1.00  0.00     0.129 HD
BRANCH  30  32
HETATM   32  C   UNL     1       5.613  26.852  51.134  1.00  0.00     0.130 C 
BRANCH  32  33
HETATM   33  C   UNL     1       4.485  27.807  50.691  1.00  0.00     0.164 C 
BRANCH  33  34
HETATM   34  O   UNL     1       3.584  28.050  51.781  1.00  0.00    -0.390 OA
HETATM   35  H   UNL     1       3.847  27.451  52.502  1.00  0.00     0.210 HD
ENDBRANCH  33  34
BRANCH  33  36
HETATM   36  C   UNL     1       3.738  27.341  49.455  1.00  0.00    -0.029 A 
HETATM   37  C   UNL     1       4.147  26.176  48.788  1.00  0.00     0.010 A 
HETATM   38  C   UNL     1       3.479  25.740  47.644  1.00  0.00     0.001 A 
HETATM   39  C   UNL     1       2.396  26.463  47.149  1.00  0.00     0.000 A 
HETATM   40  C   UNL     1       1.965  27.612  47.811  1.00  0.00     0.001 A 
HETATM   41  C   UNL     1       2.628  28.043  48.961  1.00  0.00     0.010 A 
ENDBRANCH  33  36
ENDBRANCH  32  33
ENDBRANCH  30  32
ENDBRANCH  11  30
TORSDOF 11
ENDMDL
MODEL 6
REMARK VINA RESULT:      -9.7      2.223      3.170
REMARK  11 active torsions:
REMARK  status: ('A' for Active; 'I' for Inactive)
REMARK    1  A    between atoms: O_2  and  C_3 
REMARK    2  A    between atoms: C_6  and  C_7 
REMARK    3  A    between atoms: C_7  and  C_8 
REMARK    4  A    between atoms: C_8  and  N_9 
REMARK    5  A    between atoms: C_13  and  C_14 
REMARK    6  A    between atoms: C_14  and  C_15 
REMARK    7  A    between atoms: C_25  and  N_26 
REMARK    8  A    between atoms: N_26  and  C_27 
REMARK    9  A    between atoms: C_27  and  C_28 
REMARK   10  A    between atoms: C_28  and  O_29 
REMARK   11  A    between atoms: C_28  and  C_30 
ROOT
HETATM    1  C   UNL     1       4.129  27.949  52.424  1.00  0.00     0.074 A 
HETATM    2  C   UNL     1       3.453  28.684  51.318  1.00  0.00     0.266 A 
HETATM    3  O   UNL     1       2.679  29.608  51.577  1.00  0.00    -0.267 OA
HETATM    4  N   UNL     1       3.763  28.266  50.033  1.00  0.00    -0.273 N 
HETATM    5  C   UNL     1       4.698  27.262  49.850  1.00  0.00     0.138 A 
HETATM    6  N   UNL     1       5.321  26.658  50.811  1.00  0.00    -0.218 NA
HETATM    7  C   UNL     1       3.139  28.868  48.946  1.00  0.00     0.102 A 
HETATM    8  C   UNL     1       3.410  28.505  47.687  1.00  0.00     0.018 A 
HETATM    9  C   UNL     1       4.373  27.467  47.431  1.00  0.00     0.005 A 
HETATM   10  C   UNL     1       5.001  26.863  48.447  1.00  0.00     0.051 A 
HETATM   11  C   UNL     1       5.035  26.996  52.105  1.00  0.00     0.121 A 
ENDROOT
BRANCH   1  12
HETATM   12  C   UNL     1       3.714  28.203  53.796  1.00  0.00     0.045 C 
BRANCH  12  13
HETATM   13  C   UNL     1       4.189  29.188  54.566  1.00  0.00     0.077 C 
HETATM   14  S   UNL     1       3.841  30.867  54.452  1.00  0.00    -0.055 SA
HETATM   15  C   UNL     1       4.738  31.245  55.914  1.00  0.00     0.148 C 
HETATM   16  N   UNL     1       5.243  30.085  56.464  1.00  0.00    -0.298 N 
HETATM   17  S   UNL     1       4.892  32.806  56.483  1.00  0.00    -0.052 SA
HETATM   18  C   UNL     1       5.067  28.924  55.734  1.00  0.00     0.266 C 
HETATM   19  O   UNL     1       5.544  27.827  55.996  1.00  0.00    -0.266 OA
BRANCH  16  20
HETATM   20  C   UNL     1       5.876  30.000  57.776  1.00  0.00     0.138 C 
BRANCH  20  21
HETATM   21  C   UNL     1       7.354  30.395  57.779  1.00  0.00     0.059 C 
BRANCH  21  22
HETATM   22  C   UNL     1       7.736  30.923  59.142  1.00  0.00    -0.057 A 
HETATM   23  C   UNL     1       8.836  30.399  59.832  1.00  0.00     0.010 A 
HETATM   24  C   UNL     1       9.140  30.836  61.128  1.00  0.00     0.037 A 
HETATM   25  C   UNL     1       8.342  31.797  61.749  1.00  0.00     0.068 A 
HETATM   26  C   UNL     1       7.241  32.316  61.066  1.00  0.00     0.037 A 
HETATM   27  C   UNL     1       6.941  31.888  59.771  1.00  0.00     0.010 A 
BRANCH  25  28
HETATM   28  O   UNL     1       8.518  32.296  63.011  1.00  0.00    -0.356 OA
HETATM   29  C   UNL     1       7.446  33.054  63.556  1.00  0.00     0.210 C 
ENDBRANCH  25  28
ENDBRANCH  21  22
ENDBRANCH  20  21
ENDBRANCH  16  20
ENDBRANCH  12  13
ENDBRANCH   1  12
BRANCH  11  30
HETATM   30  N   UNL     1       5.693  26.261  53.087  1.00  0.00    -0.274 NA
HETATM   31  H   UNL     1       5.576  25.275  52.837  1.00  0.00     0.129 HD
BRANCH  30  32
HETATM   32  C   UNL     1       7.134  26.468  53.331  1.00  0.00     0.130 C 
BRANCH  32  33
HETATM   33  C   UNL     1       7.983  25.304  52.779  1.00  0.00     0.164 C 
BRANCH  33  34
HETATM   34  O   UNL     1       7.623  25.029  51.418  1.00  0.00    -0.390 OA
HETATM   35  H   UNL     1       7.736  25.859  50.924  1.00  0.00     0.210 HD
ENDBRANCH  33  34
BRANCH  33  36
HETATM   36  C   UNL     1       7.923  24.047  53.628  1.00  0.00    -0.029 A 
HETATM   37  C   UNL     1       7.909  22.786  53.012  1.00  0.00     0.010 A 
HETATM   38  C   UNL     1       7.843  21.622  53.778  1.00  0.00     0.001 A 
HETATM   39  C   UNL     1       7.786  21.701  55.167  1.00  0.00     0.000 A 
HETATM   40  C   UNL     1       7.819  22.945  55.795  1.00  0.00     0.001 A 
HETATM   41  C   UNL     1       7.895  24.110  55.030  1.00  0.00     0.010 A 
ENDBRANCH  33  36
ENDBRANCH  32  33
ENDBRANCH  30  32
ENDBRANCH  11  30
TORSDOF 11
ENDMDL
MODEL 7
REMARK VINA RESULT:      -9.7      1.952      2.658
REMARK  11 active torsions:
REMARK  status: ('A' for Active; 'I' for Inactive)
REMARK    1  A    between atoms: O_2  and  C_3 
REMARK    2  A    between atoms: C_6  and  C_7 
REMARK    3  A    between atoms: C_7  and  C_8 
REMARK    4  A    between atoms: C_8  and  N_9 
REMARK    5  A    between atoms: C_13  and  C_14 
REMARK    6  A    between atoms: C_14  and  C_15 
REMARK    7  A    between atoms: C_25  and  N_26 
REMARK    8  A    between atoms: N_26  and  C_27 
REMARK    9  A    between atoms: C_27  and  C_28 
REMARK   10  A    between atoms: C_28  and  O_29 
REMARK   11  A    between atoms: C_28  and  C_30 
ROOT
HETATM    1  C   UNL     1       4.426  29.671  55.470  1.00  0.00     0.074 A 
HETATM    2  C   UNL     1       4.152  30.913  54.693  1.00  0.00     0.266 A 
HETATM    3  O   UNL     1       4.390  32.015  55.192  1.00  0.00    -0.267 OA
HETATM    4  N   UNL     1       3.640  30.730  53.418  1.00  0.00    -0.273 N 
HETATM    5  C   UNL     1       3.472  29.446  52.929  1.00  0.00     0.138 A 
HETATM    6  N   UNL     1       3.758  28.369  53.587  1.00  0.00    -0.218 NA
HETATM    7  C   UNL     1       3.311  31.838  52.644  1.00  0.00     0.102 A 
HETATM    8  C   UNL     1       2.821  31.713  51.405  1.00  0.00     0.018 A 
HETATM    9  C   UNL     1       2.625  30.405  50.840  1.00  0.00     0.005 A 
HETATM   10  C   UNL     1       2.931  29.311  51.547  1.00  0.00     0.051 A 
HETATM   11  C   UNL     1       4.232  28.477  54.866  1.00  0.00     0.121 A 
ENDROOT
BRANCH   1  12
HETATM   12  C   UNL     1       4.785  29.785  56.876  1.00  0.00     0.045 C 
BRANCH  12  13
HETATM   13  C   UNL     1       6.024  30.002  57.332  1.00  0.00     0.077 C 
HETATM   14  S   UNL     1       7.499  29.406  56.682  1.00  0.00    -0.055 SA
HETATM   15  C   UNL     1       8.476  30.343  57.801  1.00  0.00     0.148 C 
HETATM   16  N   UNL     1       7.658  31.105  58.610  1.00  0.00    -0.298 N 
HETATM   17  S   UNL     1      10.143  30.265  57.805  1.00  0.00    -0.052 SA
HETATM   18  C   UNL     1       6.295  30.904  58.480  1.00  0.00     0.266 C 
HETATM   19  O   UNL     1       5.423  31.394  59.186  1.00  0.00    -0.266 OA
BRANCH  16  20
HETATM   20  C   UNL     1       8.131  32.140  59.523  1.00  0.00     0.138 C 
BRANCH  20  21
HETATM   21  C   UNL     1       8.474  31.624  60.922  1.00  0.00     0.059 C 
BRANCH  21  22
HETATM   22  C   UNL     1       7.840  32.515  61.963  1.00  0.00    -0.057 A 
HETATM   23  C   UNL     1       8.150  32.367  63.321  1.00  0.00     0.010 A 
HETATM   24  C   UNL     1       7.501  33.143  64.290  1.00  0.00     0.037 A 
HETATM   25  C   UNL     1       6.529  34.070  63.911  1.00  0.00     0.068 A 
HETATM   26  C   UNL     1       6.214  34.215  62.560  1.00  0.00     0.037 A 
HETATM   27  C   UNL     1       6.865  33.449  61.590  1.00  0.00     0.010 A 
BRANCH  25  28
HETATM   28  O   UNL     1       5.813  34.874  64.754  1.00  0.00    -0.356 OA
HETATM   29  C   UNL     1       5.090  35.944  64.159  1.00  0.00     0.210 C 
ENDBRANCH  25  28
ENDBRANCH  21  22
ENDBRANCH  20  21
ENDBRANCH  16  20
ENDBRANCH  12  13
ENDBRANCH   1  12
BRANCH  11  30
HETATM   30  N   UNL     1       4.455  27.277  55.536  1.00  0.00    -0.274 NA
HETATM   31  H   UNL     1       3.689  26.652  55.273  1.00  0.00     0.129 HD
BRANCH  30  32
HETATM   32  C   UNL     1       5.707  26.527  55.322  1.00  0.00     0.130 C 
BRANCH  32  33
HETATM   33  C   UNL     1       5.645  25.659  54.047  1.00  0.00     0.164 C 
BRANCH  33  34
HETATM   34  O   UNL     1       4.290  25.275  53.774  1.00  0.00    -0.390 OA
HETATM   35  H   UNL     1       4.275  24.925  52.866  1.00  0.00     0.210 HD
ENDBRANCH  33  34
BRANCH  33  36
HETATM   36  C   UNL     1       6.562  24.450  54.084  1.00  0.00    -0.029 A 
HETATM   37  C   UNL     1       6.961  23.912  55.317  1.00  0.00     0.010 A 
HETATM   38  C   UNL     1       7.812  22.808  55.368  1.00  0.00     0.001 A 
HETATM   39  C   UNL     1       8.279  22.230  54.190  1.00  0.00     0.000 A 
HETATM   40  C   UNL     1       7.877  22.741  52.958  1.00  0.00     0.001 A 
HETATM   41  C   UNL     1       7.018  23.840  52.905  1.00  0.00     0.010 A 
ENDBRANCH  33  36
ENDBRANCH  32  33
ENDBRANCH  30  32
ENDBRANCH  11  30
TORSDOF 11
ENDMDL
MODEL 8
REMARK VINA RESULT:      -9.6      3.211      8.778
REMARK  11 active torsions:
REMARK  status: ('A' for Active; 'I' for Inactive)
REMARK    1  A    between atoms: O_2  and  C_3 
REMARK    2  A    between atoms: C_6  and  C_7 
REMARK    3  A    between atoms: C_7  and  C_8 
REMARK    4  A    between atoms: C_8  and  N_9 
REMARK    5  A    between atoms: C_13  and  C_14 
REMARK    6  A    between atoms: C_14  and  C_15 
REMARK    7  A    between atoms: C_25  and  N_26 
REMARK    8  A    between atoms: N_26  and  C_27 
REMARK    9  A    between atoms: C_27  and  C_28 
REMARK   10  A    between atoms: C_28  and  O_29 
REMARK   11  A    between atoms: C_28  and  C_30 
ROOT
HETATM    1  C   UNL     1       5.980  28.407  56.067  1.00  0.00     0.074 A 
HETATM    2  C   UNL     1       6.108  29.472  57.101  1.00  0.00     0.266 A 
HETATM    3  O   UNL     1       5.095  29.986  57.583  1.00  0.00    -0.267 OA
HETATM    4  N   UNL     1       7.402  29.811  57.466  1.00  0.00    -0.273 N 
HETATM    5  C   UNL     1       8.467  29.124  56.913  1.00  0.00     0.138 A 
HETATM    6  N   UNL     1       8.352  28.165  56.051  1.00  0.00    -0.218 NA
HETATM    7  C   UNL     1       7.610  30.829  58.390  1.00  0.00     0.102 A 
HETATM    8  C   UNL     1       8.839  31.188  58.779  1.00  0.00     0.018 A 
HETATM    9  C   UNL     1       9.988  30.510  58.241  1.00  0.00     0.005 A 
HETATM   10  C   UNL     1       9.834  29.522  57.352  1.00  0.00     0.051 A 
HETATM   11  C   UNL     1       7.105  27.805  55.619  1.00  0.00     0.121 A 
ENDROOT
BRANCH   1  12
HETATM   12  C   UNL     1       4.668  28.130  55.499  1.00  0.00     0.045 C 
BRANCH  12  13
HETATM   13  C   UNL     1       4.174  28.714  54.402  1.00  0.00     0.077 C 
HETATM   14  S   UNL     1       3.590  30.323  54.244  1.00  0.00    -0.055 SA
HETATM   15  C   UNL     1       3.366  30.168  52.509  1.00  0.00     0.148 C 
HETATM   16  N   UNL     1       3.773  28.916  52.096  1.00  0.00    -0.298 N 
HETATM   17  S   UNL     1       2.754  31.410  51.577  1.00  0.00    -0.052 SA
HETATM   18  C   UNL     1       4.140  28.024  53.087  1.00  0.00     0.266 C 
HETATM   19  O   UNL     1       4.412  26.841  52.929  1.00  0.00    -0.266 OA
BRANCH  16  20
HETATM   20  C   UNL     1       3.904  28.507  50.701  1.00  0.00     0.138 C 
BRANCH  20  21
HETATM   21  C   UNL     1       5.315  28.676  50.135  1.00  0.00     0.059 C 
BRANCH  21  22
HETATM   22  C   UNL     1       5.382  29.933  49.300  1.00  0.00    -0.057 A 
HETATM   23  C   UNL     1       6.078  31.060  49.753  1.00  0.00     0.010 A 
HETATM   24  C   UNL     1       6.071  32.248  49.012  1.00  0.00     0.037 A 
HETATM   25  C   UNL     1       5.361  32.324  47.813  1.00  0.00     0.068 A 
HETATM   26  C   UNL     1       4.660  31.205  47.363  1.00  0.00     0.037 A 
HETATM   27  C   UNL     1       4.672  30.015  48.096  1.00  0.00     0.010 A 
BRANCH  25  28
HETATM   28  O   UNL     1       5.260  33.424  47.006  1.00  0.00    -0.356 OA
HETATM   29  C   UNL     1       5.497  33.224  45.619  1.00  0.00     0.210 C 
ENDBRANCH  25  28
ENDBRANCH  21  22
ENDBRANCH  20  21
ENDBRANCH  16  20
ENDBRANCH  12  13
ENDBRANCH   1  12
BRANCH  11  30
HETATM   30  N   UNL     1       7.061  26.812  54.644  1.00  0.00    -0.274 NA
HETATM   31  H   UNL     1       7.803  27.031  53.974  1.00  0.00     0.129 HD
BRANCH  30  32
HETATM   32  C   UNL     1       7.231  25.394  55.017  1.00  0.00     0.130 C 
BRANCH  32  33
HETATM   33  C   UNL     1       7.107  24.461  53.795  1.00  0.00     0.164 C 
BRANCH  33  34
HETATM   34  O   UNL     1       5.784  24.535  53.246  1.00  0.00    -0.390 OA
HETATM   35  H   UNL     1       5.165  24.491  53.996  1.00  0.00     0.210 HD
ENDBRANCH  33  34
BRANCH  33  36
HETATM   36  C   UNL     1       7.503  23.023  54.080  1.00  0.00    -0.029 A 
HETATM   37  C   UNL     1       7.841  22.168  53.021  1.00  0.00     0.010 A 
HETATM   38  C   UNL     1       8.197  20.840  53.266  1.00  0.00     0.001 A 
HETATM   39  C   UNL     1       8.216  20.351  54.569  1.00  0.00     0.000 A 
HETATM   40  C   UNL     1       7.901  21.194  55.634  1.00  0.00     0.001 A 
HETATM   41  C   UNL     1       7.555  22.524  55.391  1.00  0.00     0.010 A 
ENDBRANCH  33  36
ENDBRANCH  32  33
ENDBRANCH  30  32
ENDBRANCH  11  30
TORSDOF 11
ENDMDL
MODEL 9
REMARK VINA RESULT:      -9.6      2.049      5.713
REMARK  11 active torsions:
REMARK  status: ('A' for Active; 'I' for Inactive)
REMARK    1  A    between atoms: O_2  and  C_3 
REMARK    2  A    between atoms: C_6  and  C_7 
REMARK    3  A    between atoms: C_7  and  C_8 
REMARK    4  A    between atoms: C_8  and  N_9 
REMARK    5  A    between atoms: C_13  and  C_14 
REMARK    6  A    between atoms: C_14  and  C_15 
REMARK    7  A    between atoms: C_25  and  N_26 
REMARK    8  A    between atoms: N_26  and  C_27 
REMARK    9  A    between atoms: C_27  and  C_28 
REMARK   10  A    between atoms: C_28  and  O_29 
REMARK   11  A    between atoms: C_28  and  C_30 
ROOT
HETATM    1  C   UNL     1       7.410  25.859  53.697  1.00  0.00     0.074 A 
HETATM    2  C   UNL     1       7.796  25.033  54.876  1.00  0.00     0.266 A 
HETATM    3  O   UNL     1       8.015  25.575  55.962  1.00  0.00    -0.267 OA
HETATM    4  N   UNL     1       7.872  23.665  54.659  1.00  0.00    -0.273 N 
HETATM    5  C   UNL     1       7.540  23.153  53.418  1.00  0.00     0.138 A 
HETATM    6  N   UNL     1       7.157  23.868  52.409  1.00  0.00    -0.218 NA
HETATM    7  C   UNL     1       8.272  22.828  55.695  1.00  0.00     0.102 A 
HETATM    8  C   UNL     1       8.355  21.501  55.537  1.00  0.00     0.018 A 
HETATM    9  C   UNL     1       8.022  20.907  54.270  1.00  0.00     0.005 A 
HETATM   10  C   UNL     1       7.628  21.675  53.248  1.00  0.00     0.051 A 
HETATM   11  C   UNL     1       7.096  25.228  52.543  1.00  0.00     0.121 A 
ENDROOT
BRANCH   1  12
HETATM   12  C   UNL     1       7.491  27.309  53.797  1.00  0.00     0.045 C 
BRANCH  12  13
HETATM   13  C   UNL     1       6.743  28.060  54.613  1.00  0.00     0.077 C 
HETATM   14  S   UNL     1       5.059  28.381  54.493  1.00  0.00    -0.055 SA
HETATM   15  C   UNL     1       5.022  29.240  56.025  1.00  0.00     0.148 C 
HETATM   16  N   UNL     1       6.277  29.228  56.598  1.00  0.00    -0.298 N 
HETATM   17  S   UNL     1       3.624  29.928  56.624  1.00  0.00    -0.052 SA
HETATM   18  C   UNL     1       7.299  28.683  55.841  1.00  0.00     0.266 C 
HETATM   19  O   UNL     1       8.490  28.690  56.126  1.00  0.00    -0.266 OA
BRANCH  16  20
HETATM   20  C   UNL     1       6.572  29.681  57.953  1.00  0.00     0.138 C 
BRANCH  20  21
HETATM   21  C   UNL     1       6.881  31.175  58.055  1.00  0.00     0.059 C 
BRANCH  21  22
HETATM   22  C   UNL     1       7.209  31.531  59.486  1.00  0.00    -0.057 A 
HETATM   23  C   UNL     1       6.396  32.410  60.212  1.00  0.00     0.010 A 
HETATM   24  C   UNL     1       6.747  32.797  61.511  1.00  0.00     0.037 A 
HETATM   25  C   UNL     1       7.919  32.316  62.096  1.00  0.00     0.068 A 
HETATM   26  C   UNL     1       8.734  31.445  61.371  1.00  0.00     0.037 A 
HETATM   27  C   UNL     1       8.383  31.050  60.079  1.00  0.00     0.010 A 
BRANCH  25  28
HETATM   28  O   UNL     1       8.382  32.627  63.344  1.00  0.00    -0.356 OA
HETATM   29  C   UNL     1       7.447  33.193  64.253  1.00  0.00     0.210 C 
ENDBRANCH  25  28
ENDBRANCH  21  22
ENDBRANCH  20  21
ENDBRANCH  16  20
ENDBRANCH  12  13
ENDBRANCH   1  12
BRANCH  11  30
HETATM   30  N   UNL     1       6.740  25.937  51.399  1.00  0.00    -0.274 NA
HETATM   31  H   UNL     1       7.188  25.461  50.612  1.00  0.00     0.129 HD
BRANCH  30  32
HETATM   32  C   UNL     1       5.319  26.105  51.040  1.00  0.00     0.130 C 
BRANCH  32  33
HETATM   33  C   UNL     1       5.109  27.283  50.064  1.00  0.00     0.164 C 
BRANCH  33  34
HETATM   34  O   UNL     1       4.980  28.513  50.792  1.00  0.00    -0.390 OA
HETATM   35  H   UNL     1       5.825  28.656  51.253  1.00  0.00     0.210 HD
ENDBRANCH  33  34
BRANCH  33  36
HETATM   36  C   UNL     1       3.947  27.085  49.108  1.00  0.00    -0.029 A 
HETATM   37  C   UNL     1       2.826  27.925  49.186  1.00  0.00     0.010 A 
HETATM   38  C   UNL     1       1.745  27.750  48.322  1.00  0.00     0.001 A 
HETATM   39  C   UNL     1       1.768  26.731  47.372  1.00  0.00     0.000 A 
HETATM   40  C   UNL     1       2.883  25.901  47.268  1.00  0.00     0.001 A 
HETATM   41  C   UNL     1       3.968  26.082  48.127  1.00  0.00     0.010 A 
ENDBRANCH  33  36
ENDBRANCH  32  33
ENDBRANCH  30  32
ENDBRANCH  11  30
TORSDOF 11
ENDMDL
MODEL 10
REMARK VINA RESULT:      -9.3      3.147     10.171
REMARK  11 active torsions:
REMARK  status: ('A' for Active; 'I' for Inactive)
REMARK    1  A    between atoms: O_2  and  C_3 
REMARK    2  A    between atoms: C_6  and  C_7 
REMARK    3  A    between atoms: C_7  and  C_8 
REMARK    4  A    between atoms: C_8  and  N_9 
REMARK    5  A    between atoms: C_13  and  C_14 
REMARK    6  A    between atoms: C_14  and  C_15 
REMARK    7  A    between atoms: C_25  and  N_26 
REMARK    8  A    between atoms: N_26  and  C_27 
REMARK    9  A    between atoms: C_27  and  C_28 
REMARK   10  A    between atoms: C_28  and  O_29 
REMARK   11  A    between atoms: C_28  and  C_30 
ROOT
HETATM    1  C   UNL     1       5.204  32.655  58.827  1.00  0.00     0.074 A 
HETATM    2  C   UNL     1       4.846  33.698  57.825  1.00  0.00     0.266 A 
HETATM    3  O   UNL     1       5.335  33.658  56.694  1.00  0.00    -0.267 OA
HETATM    4  N   UNL     1       3.949  34.665  58.251  1.00  0.00    -0.273 N 
HETATM    5  C   UNL     1       3.407  34.580  59.521  1.00  0.00     0.138 A 
HETATM    6  N   UNL     1       3.682  33.645  60.373  1.00  0.00    -0.218 NA
HETATM    7  C   UNL     1       3.599  35.702  57.392  1.00  0.00     0.102 A 
HETATM    8  C   UNL     1       2.732  36.655  57.755  1.00  0.00     0.018 A 
HETATM    9  C   UNL     1       2.133  36.621  59.062  1.00  0.00     0.005 A 
HETATM   10  C   UNL     1       2.438  35.640  59.919  1.00  0.00     0.051 A 
HETATM   11  C   UNL     1       4.588  32.679  60.031  1.00  0.00     0.121 A 
ENDROOT
BRANCH   1  12
HETATM   12  C   UNL     1       6.277  31.720  58.518  1.00  0.00     0.045 C 
BRANCH  12  13
HETATM   13  C   UNL     1       6.123  30.585  57.826  1.00  0.00     0.077 C 
HETATM   14  S   UNL     1       4.890  30.210  56.690  1.00  0.00    -0.055 SA
HETATM   15  C   UNL     1       5.637  28.682  56.248  1.00  0.00     0.148 C 
HETATM   16  N   UNL     1       6.815  28.519  56.947  1.00  0.00    -0.298 N 
HETATM   17  S   UNL     1       4.953  27.651  55.128  1.00  0.00    -0.052 SA
HETATM   18  C   UNL     1       7.105  29.474  57.905  1.00  0.00     0.266 C 
HETATM   19  O   UNL     1       8.034  29.438  58.702  1.00  0.00    -0.266 OA
BRANCH  16  20
HETATM   20  C   UNL     1       7.787  27.461  56.694  1.00  0.00     0.138 C 
BRANCH  20  21
HETATM   21  C   UNL     1       7.479  26.149  57.417  1.00  0.00     0.059 C 
BRANCH  21  22
HETATM   22  C   UNL     1       7.767  24.983  56.500  1.00  0.00    -0.057 A 
HETATM   23  C   UNL     1       8.311  23.794  56.999  1.00  0.00     0.010 A 
HETATM   24  C   UNL     1       8.650  22.746  56.134  1.00  0.00     0.037 A 
HETATM   25  C   UNL     1       8.453  22.879  54.759  1.00  0.00     0.068 A 
HETATM   26  C   UNL     1       7.917  24.066  54.258  1.00  0.00     0.037 A 
HETATM   27  C   UNL     1       7.571  25.110  55.119  1.00  0.00     0.010 A 
BRANCH  25  28
HETATM   28  O   UNL     1       8.754  21.943  53.808  1.00  0.00    -0.356 OA
HETATM   29  C   UNL     1       7.889  20.819  53.719  1.00  0.00     0.210 C 
ENDBRANCH  25  28
ENDBRANCH  21  22
ENDBRANCH  20  21
ENDBRANCH  16  20
ENDBRANCH  12  13
ENDBRANCH   1  12
BRANCH  11  30
HETATM   30  N   UNL     1       4.884  31.744  61.019  1.00  0.00    -0.274 NA
HETATM   31  H   UNL     1       5.780  31.322  60.759  1.00  0.00     0.129 HD
BRANCH  30  32
HETATM   32  C   UNL     1       5.007  32.164  62.428  1.00  0.00     0.130 C 
BRANCH  32  33
HETATM   33  C   UNL     1       6.320  32.934  62.685  1.00  0.00     0.164 C 
BRANCH  33  34
HETATM   34  O   UNL     1       6.229  34.261  62.149  1.00  0.00    -0.390 OA
HETATM   35  H   UNL     1       5.449  34.677  62.556  1.00  0.00     0.210 HD
ENDBRANCH  33  34
BRANCH  33  36
HETATM   36  C   UNL     1       7.558  32.219  62.177  1.00  0.00    -0.029 A 
HETATM   37  C   UNL     1       8.309  32.778  61.131  1.00  0.00     0.010 A 
HETATM   38  C   UNL     1       9.444  32.127  60.645  1.00  0.00     0.001 A 
HETATM   39  C   UNL     1       9.841  30.910  61.193  1.00  0.00     0.000 A 
HETATM   40  C   UNL     1       9.117  30.352  62.246  1.00  0.00     0.001 A 
HETATM   41  C   UNL     1       7.987  31.006  62.739  1.00  0.00     0.010 A 
ENDBRANCH  33  36
ENDBRANCH  32  33
ENDBRANCH  30  32
ENDBRANCH  11  30
TORSDOF 11
ENDMDL
