MODEL 1
REMARK VINA RESULT:      -9.6      0.000      0.000
REMARK  10 active torsions:
REMARK  status: ('A' for Active; 'I' for Inactive)
REMARK    1  A    between atoms: C_2  and  C_3 
REMARK    2  A    between atoms: C_3  and  C_4 
REMARK    3  A    between atoms: C_4  and  O_5 
REMARK    4  A    between atoms: O_5  and  C_6 
REMARK    5  A    between atoms: C_10  and  C_11 
REMARK       I    between atoms: C_11  and  N_12 
REMARK    6  A    between atoms: N_12  and  C_13 
REMARK    7  A    between atoms: C_13  and  N_14 
REMARK    8  A    between atoms: N_14  and  C_15 
REMARK    9  A    between atoms: N_18  and  C_20 
REMARK   10  A    between atoms: C_20  and  C_21 
ROOT
HETATM    1  C   UNL     1       8.077  30.629  59.327  1.00  0.00     0.174 C 
HETATM    2  S   UNL     1       9.536  31.161  58.704  1.00  0.00    -0.041 SA
ENDROOT
BRANCH   1   3
HETATM    3  N   UNL     1       7.640  31.193  60.486  1.00  0.00    -0.300 N 
HETATM    4  C   UNL     1       8.036  31.176  61.826  1.00  0.00     0.257 C 
HETATM    5  O   UNL     1       8.892  30.455  62.325  1.00  0.00    -0.267 OA
HETATM    6  H   UNL     1       6.754  31.660  60.325  1.00  0.00     0.171 HD
BRANCH   4   7
HETATM    7  C   UNL     1       7.256  32.057  62.736  1.00  0.00     0.033 A 
HETATM    8  C   UNL     1       5.926  32.402  62.483  1.00  0.00     0.039 A 
HETATM    9  C   UNL     1       5.250  33.243  63.377  1.00  0.00     0.045 A 
HETATM   10  C   UNL     1       5.888  33.756  64.519  1.00  0.00     0.086 A 
HETATM   11 BR   UNL     1       3.443  33.679  62.974  1.00  0.00    -0.048 Br
HETATM   12  C   UNL     1       7.224  33.416  64.749  1.00  0.00     0.039 A 
HETATM   13  C   UNL     1       7.904  32.577  63.861  1.00  0.00     0.020 A 
BRANCH  10  14
HETATM   14  O   UNL     1       5.144  34.556  65.345  1.00  0.00    -0.350 OA
BRANCH  14  15
HETATM   15  C   UNL     1       4.865  34.076  66.662  1.00  0.00     0.176 C 
BRANCH  15  16
HETATM   16  C   UNL     1       5.431  35.081  67.666  1.00  0.00     0.030 C 
BRANCH  16  17
HETATM   17  C   UNL     1       6.526  34.488  68.568  1.00  0.00    -0.021 C 
HETATM   18  C   UNL     1       5.900  33.558  69.608  1.00  0.00     0.009 C 
HETATM   19  C   UNL     1       7.343  35.573  69.271  1.00  0.00     0.009 C 
ENDBRANCH  16  17
ENDBRANCH  15  16
ENDBRANCH  14  15
ENDBRANCH  10  14
ENDBRANCH   4   7
ENDBRANCH   1   3
BRANCH   1  20
HETATM   20  N   UNL     1       7.449  29.654  58.642  1.00  0.00    -0.362 N 
HETATM   21  H   UNL     1       6.749  29.205  59.225  1.00  0.00     0.162 HD
BRANCH  20  22
HETATM   22  C   UNL     1       7.499  29.281  57.230  1.00  0.00     0.087 C 
HETATM   23  C   UNL     1       6.110  28.900  56.702  1.00  0.00     0.053 C 
HETATM   24  C   UNL     1       5.683  27.480  57.042  1.00  0.00     0.237 C 
HETATM   25  N   UNL     1       6.756  26.523  56.595  1.00  0.00    -0.067 N 
HETATM   26  H   UNL     1       6.927  26.699  55.596  1.00  0.00     0.280 HD
HETATM   27  C   UNL     1       8.040  26.784  57.328  1.00  0.00     0.237 C 
HETATM   28  C   UNL     1       8.534  28.175  56.983  1.00  0.00     0.053 C 
BRANCH  25  29
HETATM   29  C   UNL     1       6.337  25.070  56.672  1.00  0.00     0.273 C 
BRANCH  29  30
HETATM   30  C   UNL     1       6.746  24.286  55.453  1.00  0.00    -0.033 A 
HETATM   31  C   UNL     1       7.393  23.046  55.585  1.00  0.00     0.009 A 
HETATM   32  C   UNL     1       7.817  22.345  54.454  1.00  0.00     0.001 A 
HETATM   33  C   UNL     1       7.590  22.870  53.184  1.00  0.00     0.000 A 
HETATM   34  C   UNL     1       6.932  24.089  53.040  1.00  0.00     0.001 A 
HETATM   35  C   UNL     1       6.511  24.796  54.168  1.00  0.00     0.009 A 
ENDBRANCH  29  30
ENDBRANCH  25  29
ENDBRANCH  20  22
ENDBRANCH   1  20
TORSDOF 10
ENDMDL
MODEL 2
REMARK VINA RESULT:      -9.6      4.009      6.141
REMARK  10 active torsions:
REMARK  status: ('A' for Active; 'I' for Inactive)
REMARK    1  A    between atoms: C_2  and  C_3 
REMARK    2  A    between atoms: C_3  and  C_4 
REMARK    3  A    between atoms: C_4  and  O_5 
REMARK    4  A    between atoms: O_5  and  C_6 
REMARK    5  A    between atoms: C_10  and  C_11 
REMARK       I    between atoms: C_11  and  N_12 
REMARK    6  A    between atoms: N_12  and  C_13 
REMARK    7  A    between atoms: C_13  and  N_14 
REMARK    8  A    between atoms: N_14  and  C_15 
REMARK    9  A    between atoms: N_18  and  C_20 
REMARK   10  A    between atoms: C_20  and  C_21 
ROOT
HETATM    1  C   UNL     1       4.588  28.714  53.975  1.00  0.00     0.174 C 
HETATM    2  S   UNL     1       3.947  29.855  52.933  1.00  0.00    -0.041 SA
ENDROOT
BRANCH   1   3
HETATM    3  N   UNL     1       5.392  29.156  54.981  1.00  0.00    -0.300 N 
HETATM    4  C   UNL     1       5.975  28.599  56.123  1.00  0.00     0.257 C 
HETATM    5  O   UNL     1       5.753  27.488  56.588  1.00  0.00    -0.267 OA
HETATM    6  H   UNL     1       5.503  30.161  54.912  1.00  0.00     0.171 HD
BRANCH   4   7
HETATM    7  C   UNL     1       6.874  29.503  56.889  1.00  0.00     0.033 A 
HETATM    8  C   UNL     1       8.265  29.428  56.798  1.00  0.00     0.039 A 
HETATM    9  C   UNL     1       9.055  30.305  57.553  1.00  0.00     0.045 A 
HETATM   10  C   UNL     1       8.473  31.254  58.410  1.00  0.00     0.086 A 
HETATM   11 BR   UNL     1      10.943  30.147  57.388  1.00  0.00    -0.048 Br
HETATM   12  C   UNL     1       7.080  31.306  58.504  1.00  0.00     0.039 A 
HETATM   13  C   UNL     1       6.286  30.434  57.753  1.00  0.00     0.020 A 
BRANCH  10  14
HETATM   14  O   UNL     1       9.322  32.081  59.097  1.00  0.00    -0.350 OA
BRANCH  14  15
HETATM   15  C   UNL     1       9.527  31.817  60.487  1.00  0.00     0.176 C 
BRANCH  15  16
HETATM   16  C   UNL     1       8.560  32.691  61.285  1.00  0.00     0.030 C 
BRANCH  16  17
HETATM   17  C   UNL     1       7.884  31.944  62.447  1.00  0.00    -0.021 C 
HETATM   18  C   UNL     1       7.951  32.788  63.721  1.00  0.00     0.009 C 
HETATM   19  C   UNL     1       8.520  30.577  62.700  1.00  0.00     0.009 C 
ENDBRANCH  16  17
ENDBRANCH  15  16
ENDBRANCH  14  15
ENDBRANCH  10  14
ENDBRANCH   4   7
ENDBRANCH   1   3
BRANCH   1  20
HETATM   20  N   UNL     1       4.279  27.428  53.723  1.00  0.00    -0.362 N 
HETATM   21  H   UNL     1       3.420  27.169  54.200  1.00  0.00     0.162 HD
BRANCH  20  22
HETATM   22  C   UNL     1       4.860  26.461  52.795  1.00  0.00     0.087 C 
HETATM   23  C   UNL     1       4.695  25.023  53.308  1.00  0.00     0.053 C 
HETATM   24  C   UNL     1       5.725  24.613  54.349  1.00  0.00     0.237 C 
HETATM   25  N   UNL     1       7.105  24.882  53.810  1.00  0.00    -0.067 N 
HETATM   26  H   UNL     1       7.182  24.395  52.908  1.00  0.00     0.280 HD
HETATM   27  C   UNL     1       7.299  26.348  53.555  1.00  0.00     0.237 C 
HETATM   28  C   UNL     1       6.325  26.797  52.484  1.00  0.00     0.053 C 
BRANCH  25  29
HETATM   29  C   UNL     1       8.210  24.297  54.666  1.00  0.00     0.273 C 
BRANCH  29  30
HETATM   30  C   UNL     1       8.331  22.805  54.511  1.00  0.00    -0.033 A 
HETATM   31  C   UNL     1       8.313  22.215  53.235  1.00  0.00     0.009 A 
HETATM   32  C   UNL     1       8.374  20.828  53.096  1.00  0.00     0.001 A 
HETATM   33  C   UNL     1       8.467  20.018  54.226  1.00  0.00     0.000 A 
HETATM   34  C   UNL     1       8.506  20.592  55.494  1.00  0.00     0.001 A 
HETATM   35  C   UNL     1       8.439  21.979  55.638  1.00  0.00     0.009 A 
ENDBRANCH  29  30
ENDBRANCH  25  29
ENDBRANCH  20  22
ENDBRANCH   1  20
TORSDOF 10
ENDMDL
MODEL 3
REMARK VINA RESULT:      -9.6      1.420      2.284
REMARK  10 active torsions:
REMARK  status: ('A' for Active; 'I' for Inactive)
REMARK    1  A    between atoms: C_2  and  C_3 
REMARK    2  A    between atoms: C_3  and  C_4 
REMARK    3  A    between atoms: C_4  and  O_5 
REMARK    4  A    between atoms: O_5  and  C_6 
REMARK    5  A    between atoms: C_10  and  C_11 
REMARK       I    between atoms: C_11  and  N_12 
REMARK    6  A    between atoms: N_12  and  C_13 
REMARK    7  A    between atoms: C_13  and  N_14 
REMARK    8  A    between atoms: N_14  and  C_15 
REMARK    9  A    between atoms: N_18  and  C_20 
REMARK   10  A    between atoms: C_20  and  C_21 
ROOT
HETATM    1  C   UNL     1       8.143  30.415  59.271  1.00  0.00     0.174 C 
HETATM    2  S   UNL     1       9.572  31.032  58.656  1.00  0.00    -0.041 SA
ENDROOT
BRANCH   1   3
HETATM    3  N   UNL     1       7.637  30.992  60.395  1.00  0.00    -0.300 N 
HETATM    4  C   UNL     1       8.077  31.202  61.705  1.00  0.00     0.257 C 
HETATM    5  O   UNL     1       9.088  30.739  62.218  1.00  0.00    -0.267 OA
HETATM    6  H   UNL     1       6.665  31.237  60.244  1.00  0.00     0.171 HD
BRANCH   4   7
HETATM    7  C   UNL     1       7.157  31.985  62.572  1.00  0.00     0.033 A 
HETATM    8  C   UNL     1       5.836  32.257  62.207  1.00  0.00     0.039 A 
HETATM    9  C   UNL     1       5.023  33.009  63.066  1.00  0.00     0.045 A 
HETATM   10  C   UNL     1       5.515  33.503  64.286  1.00  0.00     0.086 A 
HETATM   11 BR   UNL     1       3.237  33.348  62.509  1.00  0.00    -0.048 Br
HETATM   12  C   UNL     1       6.843  33.239  64.629  1.00  0.00     0.039 A 
HETATM   13  C   UNL     1       7.659  32.490  63.776  1.00  0.00     0.020 A 
BRANCH  10  14
HETATM   14  O   UNL     1       4.644  34.213  65.069  1.00  0.00    -0.350 OA
BRANCH  14  15
HETATM   15  C   UNL     1       5.060  35.503  65.526  1.00  0.00     0.176 C 
BRANCH  15  16
HETATM   16  C   UNL     1       4.592  36.542  64.507  1.00  0.00     0.030 C 
BRANCH  16  17
HETATM   17  C   UNL     1       5.725  37.067  63.610  1.00  0.00    -0.021 C 
HETATM   18  C   UNL     1       5.725  38.597  63.608  1.00  0.00     0.009 C 
HETATM   19  C   UNL     1       5.609  36.550  62.175  1.00  0.00     0.009 C 
ENDBRANCH  16  17
ENDBRANCH  15  16
ENDBRANCH  14  15
ENDBRANCH  10  14
ENDBRANCH   4   7
ENDBRANCH   1   3
BRANCH   1  20
HETATM   20  N   UNL     1       7.609  29.367  58.616  1.00  0.00    -0.362 N 
HETATM   21  H   UNL     1       7.077  28.783  59.255  1.00  0.00     0.162 HD
BRANCH  20  22
HETATM   22  C   UNL     1       7.540  29.054  57.190  1.00  0.00     0.087 C 
HETATM   23  C   UNL     1       6.115  28.669  56.770  1.00  0.00     0.053 C 
HETATM   24  C   UNL     1       5.741  27.229  57.085  1.00  0.00     0.237 C 
HETATM   25  N   UNL     1       6.785  26.312  56.504  1.00  0.00    -0.067 N 
HETATM   26  H   UNL     1       6.864  26.531  55.503  1.00  0.00     0.280 HD
HETATM   27  C   UNL     1       8.124  26.565  57.133  1.00  0.00     0.237 C 
HETATM   28  C   UNL     1       8.565  27.979  56.806  1.00  0.00     0.053 C 
BRANCH  25  29
HETATM   29  C   UNL     1       6.395  24.849  56.555  1.00  0.00     0.273 C 
BRANCH  29  30
HETATM   30  C   UNL     1       6.883  24.080  55.357  1.00  0.00    -0.033 A 
HETATM   31  C   UNL     1       7.476  22.815  55.511  1.00  0.00     0.009 A 
HETATM   32  C   UNL     1       7.975  22.127  54.404  1.00  0.00     0.001 A 
HETATM   33  C   UNL     1       7.875  22.688  53.133  1.00  0.00     0.000 A 
HETATM   34  C   UNL     1       7.271  23.932  52.964  1.00  0.00     0.001 A 
HETATM   35  C   UNL     1       6.777  24.626  54.070  1.00  0.00     0.009 A 
ENDBRANCH  29  30
ENDBRANCH  25  29
ENDBRANCH  20  22
ENDBRANCH   1  20
TORSDOF 10
ENDMDL
MODEL 4
REMARK VINA RESULT:      -9.6      2.243      2.832
REMARK  10 active torsions:
REMARK  status: ('A' for Active; 'I' for Inactive)
REMARK    1  A    between atoms: C_2  and  C_3 
REMARK    2  A    between atoms: C_3  and  C_4 
REMARK    3  A    between atoms: C_4  and  O_5 
REMARK    4  A    between atoms: O_5  and  C_6 
REMARK    5  A    between atoms: C_10  and  C_11 
REMARK       I    between atoms: C_11  and  N_12 
REMARK    6  A    between atoms: N_12  and  C_13 
REMARK    7  A    between atoms: C_13  and  N_14 
REMARK    8  A    between atoms: N_14  and  C_15 
REMARK    9  A    between atoms: N_18  and  C_20 
REMARK   10  A    between atoms: C_20  and  C_21 
ROOT
HETATM    1  C   UNL     1       7.842  30.259  58.817  1.00  0.00     0.174 C 
HETATM    2  S   UNL     1       9.433  30.646  58.469  1.00  0.00    -0.041 SA
ENDROOT
BRANCH   1   3
HETATM    3  N   UNL     1       7.202  31.005  59.759  1.00  0.00    -0.300 N 
HETATM    4  C   UNL     1       6.394  32.145  59.764  1.00  0.00     0.257 C 
HETATM    5  O   UNL     1       6.170  32.884  58.813  1.00  0.00    -0.267 OA
HETATM    6  H   UNL     1       7.469  30.687  60.685  1.00  0.00     0.171 HD
BRANCH   4   7
HETATM    7  C   UNL     1       5.847  32.538  61.090  1.00  0.00     0.033 A 
HETATM    8  C   UNL     1       6.670  32.860  62.172  1.00  0.00     0.039 A 
HETATM    9  C   UNL     1       6.090  33.213  63.398  1.00  0.00     0.045 A 
HETATM   10  C   UNL     1       4.695  33.240  63.563  1.00  0.00     0.086 A 
HETATM   11 BR   UNL     1       7.264  33.636  64.833  1.00  0.00    -0.048 Br
HETATM   12  C   UNL     1       3.885  32.898  62.477  1.00  0.00     0.039 A 
HETATM   13  C   UNL     1       4.457  32.545  61.251  1.00  0.00     0.020 A 
BRANCH  10  14
HETATM   14  O   UNL     1       4.218  33.614  64.791  1.00  0.00    -0.350 OA
BRANCH  14  15
HETATM   15  C   UNL     1       3.386  34.775  64.857  1.00  0.00     0.176 C 
BRANCH  15  16
HETATM   16  C   UNL     1       4.278  35.985  65.132  1.00  0.00     0.030 C 
BRANCH  16  17
HETATM   17  C   UNL     1       4.396  36.938  63.930  1.00  0.00    -0.021 C 
HETATM   18  C   UNL     1       3.336  36.593  62.883  1.00  0.00     0.009 C 
HETATM   19  C   UNL     1       5.786  36.890  63.293  1.00  0.00     0.009 C 
ENDBRANCH  16  17
ENDBRANCH  15  16
ENDBRANCH  14  15
ENDBRANCH  10  14
ENDBRANCH   4   7
ENDBRANCH   1   3
BRANCH   1  20
HETATM   20  N   UNL     1       7.317  29.213  58.152  1.00  0.00    -0.362 N 
HETATM   21  H   UNL     1       6.563  28.795  58.688  1.00  0.00     0.162 HD
BRANCH  20  22
HETATM   22  C   UNL     1       7.539  28.726  56.792  1.00  0.00     0.087 C 
HETATM   23  C   UNL     1       6.250  28.152  56.187  1.00  0.00     0.053 C 
HETATM   24  C   UNL     1       5.937  26.730  56.625  1.00  0.00     0.237 C 
HETATM   25  N   UNL     1       7.137  25.859  56.366  1.00  0.00    -0.067 N 
HETATM   26  H   UNL     1       7.384  25.963  55.373  1.00  0.00     0.280 HD
HETATM   27  C   UNL     1       8.313  26.320  57.178  1.00  0.00     0.237 C 
HETATM   28  C   UNL     1       8.697  27.721  56.743  1.00  0.00     0.053 C 
BRANCH  25  29
HETATM   29  C   UNL     1       6.859  24.381  56.548  1.00  0.00     0.273 C 
BRANCH  29  30
HETATM   30  C   UNL     1       7.226  23.572  55.332  1.00  0.00    -0.033 A 
HETATM   31  C   UNL     1       7.568  22.214  55.454  1.00  0.00     0.009 A 
HETATM   32  C   UNL     1       7.957  21.479  54.333  1.00  0.00     0.001 A 
HETATM   33  C   UNL     1       7.997  22.088  53.081  1.00  0.00     0.000 A 
HETATM   34  C   UNL     1       7.642  23.427  52.945  1.00  0.00     0.001 A 
HETATM   35  C   UNL     1       7.257  24.168  54.064  1.00  0.00     0.009 A 
ENDBRANCH  29  30
ENDBRANCH  25  29
ENDBRANCH  20  22
ENDBRANCH   1  20
TORSDOF 10
ENDMDL
MODEL 5
REMARK VINA RESULT:      -9.5      1.624      2.251
REMARK  10 active torsions:
REMARK  status: ('A' for Active; 'I' for Inactive)
REMARK    1  A    between atoms: C_2  and  C_3 
REMARK    2  A    between atoms: C_3  and  C_4 
REMARK    3  A    between atoms: C_4  and  O_5 
REMARK    4  A    between atoms: O_5  and  C_6 
REMARK    5  A    between atoms: C_10  and  C_11 
REMARK       I    between atoms: C_11  and  N_12 
REMARK    6  A    between atoms: N_12  and  C_13 
REMARK    7  A    between atoms: C_13  and  N_14 
REMARK    8  A    between atoms: N_14  and  C_15 
REMARK    9  A    between atoms: N_18  and  C_20 
REMARK   10  A    between atoms: C_20  and  C_21 
ROOT
HETATM    1  C   UNL     1       6.224  30.417  57.844  1.00  0.00     0.174 C 
HETATM    2  S   UNL     1       4.631  30.091  57.450  1.00  0.00    -0.041 SA
ENDROOT
BRANCH   1   3
HETATM    3  N   UNL     1       6.471  31.003  59.048  1.00  0.00    -0.300 N 
HETATM    4  C   UNL     1       7.549  31.068  59.935  1.00  0.00     0.257 C 
HETATM    5  O   UNL     1       8.589  30.423  59.868  1.00  0.00    -0.267 OA
HETATM    6  H   UNL     1       5.614  31.407  59.412  1.00  0.00     0.171 HD
BRANCH   4   7
HETATM    7  C   UNL     1       7.348  31.937  61.125  1.00  0.00     0.033 A 
HETATM    8  C   UNL     1       6.429  32.988  61.136  1.00  0.00     0.039 A 
HETATM    9  C   UNL     1       6.294  33.775  62.288  1.00  0.00     0.045 A 
HETATM   10  C   UNL     1       7.074  33.532  63.431  1.00  0.00     0.086 A 
HETATM   11 BR   UNL     1       5.028  35.193  62.238  1.00  0.00    -0.048 Br
HETATM   12  C   UNL     1       8.003  32.488  63.399  1.00  0.00     0.039 A 
HETATM   13  C   UNL     1       8.142  31.700  62.253  1.00  0.00     0.020 A 
BRANCH  10  14
HETATM   14  O   UNL     1       6.863  34.341  64.516  1.00  0.00    -0.350 OA
BRANCH  14  15
HETATM   15  C   UNL     1       6.544  33.714  65.761  1.00  0.00     0.176 C 
BRANCH  15  16
HETATM   16  C   UNL     1       5.028  33.775  65.950  1.00  0.00     0.030 C 
BRANCH  16  17
HETATM   17  C   UNL     1       4.592  34.759  67.048  1.00  0.00    -0.021 C 
HETATM   18  C   UNL     1       4.264  36.119  66.430  1.00  0.00     0.009 C 
HETATM   19  C   UNL     1       5.661  34.928  68.128  1.00  0.00     0.009 C 
ENDBRANCH  16  17
ENDBRANCH  15  16
ENDBRANCH  14  15
ENDBRANCH  10  14
ENDBRANCH   4   7
ENDBRANCH   1   3
BRANCH   1  20
HETATM   20  N   UNL     1       7.151  30.097  56.922  1.00  0.00    -0.362 N 
HETATM   21  H   UNL     1       7.280  30.863  56.268  1.00  0.00     0.162 HD
BRANCH  20  22
HETATM   22  C   UNL     1       8.062  28.958  56.825  1.00  0.00     0.087 C 
HETATM   23  C   UNL     1       8.311  28.563  55.363  1.00  0.00     0.053 C 
HETATM   24  C   UNL     1       7.209  27.710  54.754  1.00  0.00     0.237 C 
HETATM   25  N   UNL     1       6.960  26.519  55.642  1.00  0.00    -0.067 N 
HETATM   26  H   UNL     1       7.861  26.040  55.771  1.00  0.00     0.280 HD
HETATM   27  C   UNL     1       6.479  26.957  56.995  1.00  0.00     0.237 C 
HETATM   28  C   UNL     1       7.565  27.775  57.666  1.00  0.00     0.053 C 
BRANCH  25  29
HETATM   29  C   UNL     1       6.050  25.482  55.017  1.00  0.00     0.273 C 
BRANCH  29  30
HETATM   30  C   UNL     1       6.791  24.241  54.599  1.00  0.00    -0.033 A 
HETATM   31  C   UNL     1       7.104  24.016  53.248  1.00  0.00     0.009 A 
HETATM   32  C   UNL     1       7.746  22.840  52.856  1.00  0.00     0.001 A 
HETATM   33  C   UNL     1       8.092  21.885  53.809  1.00  0.00     0.000 A 
HETATM   34  C   UNL     1       7.806  22.106  55.154  1.00  0.00     0.001 A 
HETATM   35  C   UNL     1       7.158  23.277  55.549  1.00  0.00     0.009 A 
ENDBRANCH  29  30
ENDBRANCH  25  29
ENDBRANCH  20  22
ENDBRANCH   1  20
TORSDOF 10
ENDMDL
MODEL 6
REMARK VINA RESULT:      -9.4      2.561      3.407
REMARK  10 active torsions:
REMARK  status: ('A' for Active; 'I' for Inactive)
REMARK    1  A    between atoms: C_2  and  C_3 
REMARK    2  A    between atoms: C_3  and  C_4 
REMARK    3  A    between atoms: C_4  and  O_5 
REMARK    4  A    between atoms: O_5  and  C_6 
REMARK    5  A    between atoms: C_10  and  C_11 
REMARK       I    between atoms: C_11  and  N_12 
REMARK    6  A    between atoms: N_12  and  C_13 
REMARK    7  A    between atoms: C_13  and  N_14 
REMARK    8  A    between atoms: N_14  and  C_15 
REMARK    9  A    between atoms: N_18  and  C_20 
REMARK   10  A    between atoms: C_20  and  C_21 
ROOT
HETATM    1  C   UNL     1       5.641  30.626  57.476  1.00  0.00     0.174 C 
HETATM    2  S   UNL     1       4.835  31.438  56.255  1.00  0.00    -0.041 SA
ENDROOT
BRANCH   1   3
HETATM    3  N   UNL     1       5.604  31.165  58.726  1.00  0.00    -0.300 N 
HETATM    4  C   UNL     1       6.402  32.039  59.470  1.00  0.00     0.257 C 
HETATM    5  O   UNL     1       7.512  32.455  59.161  1.00  0.00    -0.267 OA
HETATM    6  H   UNL     1       4.854  30.739  59.259  1.00  0.00     0.171 HD
BRANCH   4   7
HETATM    7  C   UNL     1       5.874  32.403  60.812  1.00  0.00     0.033 A 
HETATM    8  C   UNL     1       6.711  32.673  61.896  1.00  0.00     0.039 A 
HETATM    9  C   UNL     1       6.149  33.002  63.137  1.00  0.00     0.045 A 
HETATM   10  C   UNL     1       4.755  33.055  63.313  1.00  0.00     0.086 A 
HETATM   11 BR   UNL     1       7.342  33.354  64.575  1.00  0.00    -0.048 Br
HETATM   12  C   UNL     1       3.931  32.765  62.224  1.00  0.00     0.039 A 
HETATM   13  C   UNL     1       4.486  32.436  60.983  1.00  0.00     0.020 A 
BRANCH  10  14
HETATM   14  O   UNL     1       4.295  33.402  64.556  1.00  0.00    -0.350 OA
BRANCH  14  15
HETATM   15  C   UNL     1       3.431  34.537  64.653  1.00  0.00     0.176 C 
BRANCH  15  16
HETATM   16  C   UNL     1       4.285  35.757  64.998  1.00  0.00     0.030 C 
BRANCH  16  17
HETATM   17  C   UNL     1       4.386  36.773  63.848  1.00  0.00    -0.021 C 
HETATM   18  C   UNL     1       3.292  36.503  62.814  1.00  0.00     0.009 C 
HETATM   19  C   UNL     1       5.757  36.739  63.170  1.00  0.00     0.009 C 
ENDBRANCH  16  17
ENDBRANCH  15  16
ENDBRANCH  14  15
ENDBRANCH  10  14
ENDBRANCH   4   7
ENDBRANCH   1   3
BRANCH   1  20
HETATM   20  N   UNL     1       6.294  29.503  57.124  1.00  0.00    -0.362 N 
HETATM   21  H   UNL     1       7.214  29.728  56.757  1.00  0.00     0.162 HD
BRANCH  20  22
HETATM   22  C   UNL     1       5.971  28.093  57.332  1.00  0.00     0.087 C 
HETATM   23  C   UNL     1       7.240  27.239  57.453  1.00  0.00     0.053 C 
HETATM   24  C   UNL     1       7.874  26.877  56.119  1.00  0.00     0.237 C 
HETATM   25  N   UNL     1       6.833  26.245  55.233  1.00  0.00    -0.067 N 
HETATM   26  H   UNL     1       6.428  25.455  55.752  1.00  0.00     0.280 HD
HETATM   27  C   UNL     1       5.724  27.215  54.943  1.00  0.00     0.237 C 
HETATM   28  C   UNL     1       5.026  27.571  56.241  1.00  0.00     0.053 C 
BRANCH  25  29
HETATM   29  C   UNL     1       7.405  25.635  53.971  1.00  0.00     0.273 C 
BRANCH  29  30
HETATM   30  C   UNL     1       7.595  24.146  54.085  1.00  0.00    -0.033 A 
HETATM   31  C   UNL     1       7.874  23.371  52.946  1.00  0.00     0.009 A 
HETATM   32  C   UNL     1       7.998  21.985  53.047  1.00  0.00     0.001 A 
HETATM   33  C   UNL     1       7.857  21.360  54.284  1.00  0.00     0.000 A 
HETATM   34  C   UNL     1       7.599  22.119  55.423  1.00  0.00     0.001 A 
HETATM   35  C   UNL     1       7.469  23.506  55.326  1.00  0.00     0.009 A 
ENDBRANCH  29  30
ENDBRANCH  25  29
ENDBRANCH  20  22
ENDBRANCH   1  20
TORSDOF 10
ENDMDL
MODEL 7
REMARK VINA RESULT:      -9.4      1.700      2.713
REMARK  10 active torsions:
REMARK  status: ('A' for Active; 'I' for Inactive)
REMARK    1  A    between atoms: C_2  and  C_3 
REMARK    2  A    between atoms: C_3  and  C_4 
REMARK    3  A    between atoms: C_4  and  O_5 
REMARK    4  A    between atoms: O_5  and  C_6 
REMARK    5  A    between atoms: C_10  and  C_11 
REMARK       I    between atoms: C_11  and  N_12 
REMARK    6  A    between atoms: N_12  and  C_13 
REMARK    7  A    between atoms: C_13  and  N_14 
REMARK    8  A    between atoms: N_14  and  C_15 
REMARK    9  A    between atoms: N_18  and  C_20 
REMARK   10  A    between atoms: C_20  and  C_21 
ROOT
HETATM    1  C   UNL     1       9.123  29.427  57.507  1.00  0.00     0.174 C 
HETATM    2  S   UNL     1      10.655  29.675  56.882  1.00  0.00    -0.041 SA
ENDROOT
BRANCH   1   3
HETATM    3  N   UNL     1       8.762  30.149  58.604  1.00  0.00    -0.300 N 
HETATM    4  C   UNL     1       9.053  31.416  59.116  1.00  0.00     0.257 C 
HETATM    5  O   UNL     1       9.904  32.193  58.700  1.00  0.00    -0.267 OA
HETATM    6  H   UNL     1       8.222  29.565  59.234  1.00  0.00     0.171 HD
BRANCH   4   7
HETATM    7  C   UNL     1       8.316  31.792  60.352  1.00  0.00     0.033 A 
HETATM    8  C   UNL     1       6.947  32.067  60.351  1.00  0.00     0.039 A 
HETATM    9  C   UNL     1       6.314  32.424  61.550  1.00  0.00     0.045 A 
HETATM   10  C   UNL     1       7.034  32.521  62.753  1.00  0.00     0.086 A 
HETATM   11 BR   UNL     1       4.449  32.790  61.480  1.00  0.00    -0.048 Br
HETATM   12  C   UNL     1       8.406  32.260  62.734  1.00  0.00     0.039 A 
HETATM   13  C   UNL     1       9.044  31.904  61.542  1.00  0.00     0.020 A 
BRANCH  10  14
HETATM   14  O   UNL     1       6.329  32.860  63.877  1.00  0.00    -0.350 OA
BRANCH  14  15
HETATM   15  C   UNL     1       6.649  34.100  64.514  1.00  0.00     0.176 C 
BRANCH  15  16
HETATM   16  C   UNL     1       6.531  33.903  66.025  1.00  0.00     0.030 C 
BRANCH  16  17
HETATM   17  C   UNL     1       5.490  34.828  66.679  1.00  0.00    -0.021 C 
HETATM   18  C   UNL     1       4.786  34.097  67.823  1.00  0.00     0.009 C 
HETATM   19  C   UNL     1       4.454  35.331  65.672  1.00  0.00     0.009 C 
ENDBRANCH  16  17
ENDBRANCH  15  16
ENDBRANCH  14  15
ENDBRANCH  10  14
ENDBRANCH   4   7
ENDBRANCH   1   3
BRANCH   1  20
HETATM   20  N   UNL     1       8.362  28.504  56.889  1.00  0.00    -0.362 N 
HETATM   21  H   UNL     1       8.463  28.579  55.881  1.00  0.00     0.162 HD
BRANCH  20  22
HETATM   22  C   UNL     1       7.596  27.376  57.414  1.00  0.00     0.087 C 
HETATM   23  C   UNL     1       8.356  26.054  57.242  1.00  0.00     0.053 C 
HETATM   24  C   UNL     1       8.250  25.453  55.849  1.00  0.00     0.237 C 
HETATM   25  N   UNL     1       6.797  25.340  55.472  1.00  0.00    -0.067 N 
HETATM   26  H   UNL     1       6.328  24.804  56.213  1.00  0.00     0.280 HD
HETATM   27  C   UNL     1       6.155  26.696  55.415  1.00  0.00     0.237 C 
HETATM   28  C   UNL     1       6.193  27.320  56.796  1.00  0.00     0.053 C 
BRANCH  25  29
HETATM   29  C   UNL     1       6.564  24.542  54.205  1.00  0.00     0.273 C 
BRANCH  29  30
HETATM   30  C   UNL     1       7.207  23.182  54.254  1.00  0.00    -0.033 A 
HETATM   31  C   UNL     1       7.669  22.566  53.078  1.00  0.00     0.009 A 
HETATM   32  C   UNL     1       8.218  21.284  53.119  1.00  0.00     0.001 A 
HETATM   33  C   UNL     1       8.323  20.610  54.333  1.00  0.00     0.000 A 
HETATM   34  C   UNL     1       7.887  21.217  55.509  1.00  0.00     0.001 A 
HETATM   35  C   UNL     1       7.331  22.497  55.472  1.00  0.00     0.009 A 
ENDBRANCH  29  30
ENDBRANCH  25  29
ENDBRANCH  20  22
ENDBRANCH   1  20
TORSDOF 10
ENDMDL
MODEL 8
REMARK VINA RESULT:      -9.3      3.293      5.524
REMARK  10 active torsions:
REMARK  status: ('A' for Active; 'I' for Inactive)
REMARK    1  A    between atoms: C_2  and  C_3 
REMARK    2  A    between atoms: C_3  and  C_4 
REMARK    3  A    between atoms: C_4  and  O_5 
REMARK    4  A    between atoms: O_5  and  C_6 
REMARK    5  A    between atoms: C_10  and  C_11 
REMARK       I    between atoms: C_11  and  N_12 
REMARK    6  A    between atoms: N_12  and  C_13 
REMARK    7  A    between atoms: C_13  and  N_14 
REMARK    8  A    between atoms: N_14  and  C_15 
REMARK    9  A    between atoms: N_18  and  C_20 
REMARK   10  A    between atoms: C_20  and  C_21 
ROOT
HETATM    1  C   UNL     1       5.722  28.695  53.585  1.00  0.00     0.174 C 
HETATM    2  S   UNL     1       4.242  29.310  53.104  1.00  0.00    -0.041 SA
ENDROOT
BRANCH   1   3
HETATM    3  N   UNL     1       6.208  29.089  54.795  1.00  0.00    -0.300 N 
HETATM    4  C   UNL     1       7.203  28.649  55.672  1.00  0.00     0.257 C 
HETATM    5  O   UNL     1       7.842  27.608  55.588  1.00  0.00    -0.267 OA
HETATM    6  H   UNL     1       5.625  29.829  55.172  1.00  0.00     0.171 HD
BRANCH   4   7
HETATM    7  C   UNL     1       7.416  29.497  56.875  1.00  0.00     0.033 A 
HETATM    8  C   UNL     1       6.474  30.435  57.305  1.00  0.00     0.039 A 
HETATM    9  C   UNL     1       6.741  31.209  58.443  1.00  0.00     0.045 A 
HETATM   10  C   UNL     1       7.944  31.066  59.155  1.00  0.00     0.086 A 
HETATM   11 BR   UNL     1       5.421  32.471  58.973  1.00  0.00    -0.048 Br
HETATM   12  C   UNL     1       8.884  30.137  58.703  1.00  0.00     0.039 A 
HETATM   13  C   UNL     1       8.624  29.362  57.568  1.00  0.00     0.020 A 
BRANCH  10  14
HETATM   14  O   UNL     1       8.111  31.852  60.264  1.00  0.00    -0.350 OA
BRANCH  14  15
HETATM   15  C   UNL     1       8.135  31.207  61.540  1.00  0.00     0.176 C 
BRANCH  15  16
HETATM   16  C   UNL     1       6.971  31.749  62.370  1.00  0.00     0.030 C 
BRANCH  16  17
HETATM   17  C   UNL     1       7.208  33.178  62.887  1.00  0.00    -0.021 C 
HETATM   18  C   UNL     1       7.560  33.144  64.375  1.00  0.00     0.009 C 
HETATM   19  C   UNL     1       5.992  34.079  62.665  1.00  0.00     0.009 C 
ENDBRANCH  16  17
ENDBRANCH  15  16
ENDBRANCH  14  15
ENDBRANCH  10  14
ENDBRANCH   4   7
ENDBRANCH   1   3
BRANCH   1  20
HETATM   20  N   UNL     1       6.341  27.869  52.721  1.00  0.00    -0.362 N 
HETATM   21  H   UNL     1       7.247  28.245  52.459  1.00  0.00     0.162 HD
BRANCH  20  22
HETATM   22  C   UNL     1       6.004  26.523  52.264  1.00  0.00     0.087 C 
HETATM   23  C   UNL     1       4.946  25.874  53.168  1.00  0.00     0.053 C 
HETATM   24  C   UNL     1       5.506  25.278  54.450  1.00  0.00     0.237 C 
HETATM   25  N   UNL     1       6.631  24.338  54.107  1.00  0.00    -0.067 N 
HETATM   26  H   UNL     1       6.264  23.653  53.433  1.00  0.00     0.280 HD
HETATM   27  C   UNL     1       7.754  25.077  53.439  1.00  0.00     0.237 C 
HETATM   28  C   UNL     1       7.258  25.651  52.127  1.00  0.00     0.053 C 
BRANCH  25  29
HETATM   29  C   UNL     1       7.107  23.513  55.285  1.00  0.00     0.273 C 
BRANCH  29  30
HETATM   30  C   UNL     1       7.713  22.202  54.863  1.00  0.00    -0.033 A 
HETATM   31  C   UNL     1       8.344  21.370  55.804  1.00  0.00     0.009 A 
HETATM   32  C   UNL     1       8.951  20.179  55.401  1.00  0.00     0.001 A 
HETATM   33  C   UNL     1       8.923  19.802  54.061  1.00  0.00     0.000 A 
HETATM   34  C   UNL     1       8.284  20.608  53.122  1.00  0.00     0.001 A 
HETATM   35  C   UNL     1       7.681  21.803  53.519  1.00  0.00     0.009 A 
ENDBRANCH  29  30
ENDBRANCH  25  29
ENDBRANCH  20  22
ENDBRANCH   1  20
TORSDOF 10
ENDMDL
MODEL 9
REMARK VINA RESULT:      -9.1      3.102      4.692
REMARK  10 active torsions:
REMARK  status: ('A' for Active; 'I' for Inactive)
REMARK    1  A    between atoms: C_2  and  C_3 
REMARK    2  A    between atoms: C_3  and  C_4 
REMARK    3  A    between atoms: C_4  and  O_5 
REMARK    4  A    between atoms: O_5  and  C_6 
REMARK    5  A    between atoms: C_10  and  C_11 
REMARK       I    between atoms: C_11  and  N_12 
REMARK    6  A    between atoms: N_12  and  C_13 
REMARK    7  A    between atoms: C_13  and  N_14 
REMARK    8  A    between atoms: N_14  and  C_15 
REMARK    9  A    between atoms: N_18  and  C_20 
REMARK   10  A    between atoms: C_20  and  C_21 
ROOT
HETATM    1  C   UNL     1       4.449  29.653  54.977  1.00  0.00     0.174 C 
HETATM    2  S   UNL     1       3.695  30.549  53.782  1.00  0.00    -0.041 SA
ENDROOT
BRANCH   1   3
HETATM    3  N   UNL     1       4.843  30.307  56.104  1.00  0.00    -0.300 N 
HETATM    4  C   UNL     1       4.229  31.111  57.069  1.00  0.00     0.257 C 
HETATM    5  O   UNL     1       3.090  31.560  57.028  1.00  0.00    -0.267 OA
HETATM    6  H   UNL     1       5.852  30.259  56.190  1.00  0.00     0.171 HD
BRANCH   4   7
HETATM    7  C   UNL     1       5.100  31.534  58.198  1.00  0.00     0.033 A 
HETATM    8  C   UNL     1       6.488  31.379  58.170  1.00  0.00     0.039 A 
HETATM    9  C   UNL     1       7.250  31.791  59.272  1.00  0.00     0.045 A 
HETATM   10  C   UNL     1       6.643  32.349  60.410  1.00  0.00     0.086 A 
HETATM   11 BR   UNL     1       9.134  31.549  59.173  1.00  0.00    -0.048 Br
HETATM   12  C   UNL     1       5.252  32.480  60.431  1.00  0.00     0.039 A 
HETATM   13  C   UNL     1       4.486  32.071  59.335  1.00  0.00     0.020 A 
BRANCH  10  14
HETATM   14  O   UNL     1       7.469  32.738  61.431  1.00  0.00    -0.350 OA
BRANCH  14  15
HETATM   15  C   UNL     1       7.464  31.952  62.626  1.00  0.00     0.176 C 
BRANCH  15  16
HETATM   16  C   UNL     1       7.906  32.846  63.785  1.00  0.00     0.030 C 
BRANCH  16  17
HETATM   17  C   UNL     1       6.757  33.670  64.390  1.00  0.00    -0.021 C 
HETATM   18  C   UNL     1       7.002  33.892  65.883  1.00  0.00     0.009 C 
HETATM   19  C   UNL     1       5.398  32.999  64.185  1.00  0.00     0.009 C 
ENDBRANCH  16  17
ENDBRANCH  15  16
ENDBRANCH  14  15
ENDBRANCH  10  14
ENDBRANCH   4   7
ENDBRANCH   1   3
BRANCH   1  20
HETATM   20  N   UNL     1       4.635  28.345  54.721  1.00  0.00    -0.362 N 
HETATM   21  H   UNL     1       3.961  27.784  55.234  1.00  0.00     0.162 HD
BRANCH  20  22
HETATM   22  C   UNL     1       5.491  27.664  53.753  1.00  0.00     0.087 C 
HETATM   23  C   UNL     1       5.051  26.208  53.543  1.00  0.00     0.053 C 
HETATM   24  C   UNL     1       5.538  25.250  54.619  1.00  0.00     0.237 C 
HETATM   25  N   UNL     1       7.030  25.389  54.763  1.00  0.00    -0.067 N 
HETATM   26  H   UNL     1       7.444  25.245  53.833  1.00  0.00     0.280 HD
HETATM   27  C   UNL     1       7.393  26.775  55.212  1.00  0.00     0.237 C 
HETATM   28  C   UNL     1       6.970  27.767  54.147  1.00  0.00     0.053 C 
BRANCH  25  29
HETATM   29  C   UNL     1       7.653  24.321  55.639  1.00  0.00     0.273 C 
BRANCH  29  30
HETATM   30  C   UNL     1       7.813  23.008  54.920  1.00  0.00    -0.033 A 
HETATM   31  C   UNL     1       8.010  22.974  53.530  1.00  0.00     0.009 A 
HETATM   32  C   UNL     1       8.107  21.753  52.859  1.00  0.00     0.001 A 
HETATM   33  C   UNL     1       8.021  20.559  53.569  1.00  0.00     0.000 A 
HETATM   34  C   UNL     1       7.845  20.580  54.951  1.00  0.00     0.001 A 
HETATM   35  C   UNL     1       7.742  21.798  55.626  1.00  0.00     0.009 A 
ENDBRANCH  29  30
ENDBRANCH  25  29
ENDBRANCH  20  22
ENDBRANCH   1  20
TORSDOF 10
ENDMDL
MODEL 10
REMARK VINA RESULT:      -9.1      3.529     12.424
REMARK  10 active torsions:
REMARK  status: ('A' for Active; 'I' for Inactive)
REMARK    1  A    between atoms: C_2  and  C_3 
REMARK    2  A    between atoms: C_3  and  C_4 
REMARK    3  A    between atoms: C_4  and  O_5 
REMARK    4  A    between atoms: O_5  and  C_6 
REMARK    5  A    between atoms: C_10  and  C_11 
REMARK       I    between atoms: C_11  and  N_12 
REMARK    6  A    between atoms: N_12  and  C_13 
REMARK    7  A    between atoms: C_13  and  N_14 
REMARK    8  A    between atoms: N_14  and  C_15 
REMARK    9  A    between atoms: N_18  and  C_20 
REMARK   10  A    between atoms: C_20  and  C_21 
ROOT
HETATM    1  C   UNL     1       8.838  30.156  58.713  1.00  0.00     0.174 C 
HETATM    2  S   UNL     1      10.185  30.969  58.143  1.00  0.00    -0.041 SA
ENDROOT
BRANCH   1   3
HETATM    3  N   UNL     1       8.372  29.111  57.975  1.00  0.00    -0.300 N 
HETATM    4  C   UNL     1       7.606  28.958  56.815  1.00  0.00     0.257 C 
HETATM    5  O   UNL     1       7.009  29.843  56.214  1.00  0.00    -0.267 OA
HETATM    6  H   UNL     1       8.562  28.240  58.459  1.00  0.00     0.171 HD
BRANCH   4   7
HETATM    7  C   UNL     1       7.430  27.559  56.344  1.00  0.00     0.033 A 
HETATM    8  C   UNL     1       7.475  27.214  54.991  1.00  0.00     0.039 A 
HETATM    9  C   UNL     1       7.293  25.877  54.613  1.00  0.00     0.045 A 
HETATM   10  C   UNL     1       7.056  24.876  55.570  1.00  0.00     0.086 A 
HETATM   11 BR   UNL     1       7.361  25.475  52.755  1.00  0.00    -0.048 Br
HETATM   12  C   UNL     1       6.996  25.238  56.918  1.00  0.00     0.039 A 
HETATM   13  C   UNL     1       7.176  26.571  57.301  1.00  0.00     0.020 A 
BRANCH  10  14
HETATM   14  O   UNL     1       6.906  23.594  55.110  1.00  0.00    -0.350 OA
BRANCH  14  15
HETATM   15  C   UNL     1       7.813  22.602  55.598  1.00  0.00     0.176 C 
BRANCH  15  16
HETATM   16  C   UNL     1       8.851  22.330  54.510  1.00  0.00     0.030 C 
BRANCH  16  17
HETATM   17  C   UNL     1       9.018  20.835  54.189  1.00  0.00    -0.021 C 
HETATM   18  C   UNL     1       8.231  20.480  52.926  1.00  0.00     0.009 C 
HETATM   19  C   UNL     1       8.563  19.944  55.347  1.00  0.00     0.009 C 
ENDBRANCH  16  17
ENDBRANCH  15  16
ENDBRANCH  14  15
ENDBRANCH  10  14
ENDBRANCH   4   7
ENDBRANCH   1   3
BRANCH   1  20
HETATM   20  N   UNL     1       8.295  30.616  59.855  1.00  0.00    -0.362 N 
HETATM   21  H   UNL     1       7.715  29.901  60.285  1.00  0.00     0.162 HD
BRANCH  20  22
HETATM   22  C   UNL     1       8.532  31.845  60.609  1.00  0.00     0.087 C 
HETATM   23  C   UNL     1       8.687  31.560  62.109  1.00  0.00     0.053 C 
HETATM   24  C   UNL     1       7.370  31.383  62.848  1.00  0.00     0.237 C 
HETATM   25  N   UNL     1       6.486  32.571  62.572  1.00  0.00    -0.067 N 
HETATM   26  H   UNL     1       7.017  33.414  62.826  1.00  0.00     0.280 HD
HETATM   27  C   UNL     1       6.161  32.661  61.109  1.00  0.00     0.237 C 
HETATM   28  C   UNL     1       7.441  32.888  60.330  1.00  0.00     0.053 C 
BRANCH  25  29
HETATM   29  C   UNL     1       5.245  32.613  63.439  1.00  0.00     0.273 C 
BRANCH  29  30
HETATM   30  C   UNL     1       5.481  33.316  64.749  1.00  0.00    -0.033 A 
HETATM   31  C   UNL     1       6.787  33.514  65.229  1.00  0.00     0.009 A 
HETATM   32  C   UNL     1       7.001  34.121  66.468  1.00  0.00     0.001 A 
HETATM   33  C   UNL     1       5.917  34.545  67.232  1.00  0.00     0.000 A 
HETATM   34  C   UNL     1       4.618  34.372  66.758  1.00  0.00     0.001 A 
HETATM   35  C   UNL     1       4.399  33.760  65.523  1.00  0.00     0.009 A 
ENDBRANCH  29  30
ENDBRANCH  25  29
ENDBRANCH  20  22
ENDBRANCH   1  20
TORSDOF 10
ENDMDL
